MODEL 1
REMARK VINA RESULT:    -7.376      0.000      0.000
REMARK INTER + INTRA:         -17.127
REMARK INTER:                 -12.982
REMARK INTRA:                  -4.145
REMARK UNBOUND:                -4.145
REMARK  Name = cpd25.pdb
REMARK  15 active torsions:
REMARK  status: ('A' for Active; 'I' for Inactive)
REMARK    1  A    between atoms: C_1  and  C_2
REMARK    2  A    between atoms: C_6  and  N_7
REMARK    3  A    between atoms: N_7  and  C_8
REMARK    4  A    between atoms: C_13  and  C_14
REMARK    5  A    between atoms: N_16  and  C_17
REMARK    6  A    between atoms: C_17  and  C_18
REMARK    7  A    between atoms: C_18  and  C_19
REMARK    8  A    between atoms: C_19  and  C_20
REMARK    9  A    between atoms: C_20  and  C_21
REMARK   10  A    between atoms: C_21  and  C_22
REMARK   11  A    between atoms: C_22  and  C_23
REMARK   12  A    between atoms: C_23  and  C_24
REMARK   13  A    between atoms: C_24  and  N_25
REMARK   14  A    between atoms: N_25  and  C_26
REMARK   15  A    between atoms: C_40  and  C_41
REMARK                            x       y       z     vdW  Elec       q    Type
REMARK                         _______ _______ _______ _____ _____    ______ ____
ROOT
ATOM      1  C   UNL A   1      40.831 -20.862 -39.517  0.00  0.00    -0.037 C 
ENDROOT
BRANCH   1   2
ATOM      2  C   UNL A   1      40.187 -22.050 -38.799  0.00  0.00    +0.012 C 
BRANCH   2   5
ATOM      3  C   UNL A   1      40.295 -22.342 -36.355  0.00  0.00    +0.246 C 
ATOM      4  O   UNL A   1      41.196 -23.174 -36.435  0.00  0.00    -0.270 OA
ATOM      5  N   UNL A   1      39.756 -21.706 -37.458  0.00  0.00    -0.311 N 
ATOM      6  H   UNL A   1      39.071 -21.011 -37.331  0.00  0.00    +0.000 HD
BRANCH   3  12
ATOM      7  C   UNL A   1      40.403 -21.176 -34.125  0.00  0.00    +0.044 A 
ATOM      8  C   UNL A   1      39.804 -20.889 -32.889  0.00  0.00    -0.040 A 
ATOM      9  C   UNL A   1      38.547 -21.396 -32.554  0.00  0.00    -0.060 A 
ATOM     10  C   UNL A   1      37.854 -22.197 -33.456  0.00  0.00    -0.061 A 
ATOM     11  C   UNL A   1      38.422 -22.500 -34.693  0.00  0.00    -0.048 A 
ATOM     12  C   UNL A   1      39.697 -22.008 -35.028  0.00  0.00    +0.058 A 
BRANCH   7  13
ATOM     13  N   UNL A   1      41.679 -20.669 -34.452  0.00  0.00    -0.314 N 
ATOM     14  H   UNL A   1      42.218 -21.286 -34.997  0.00  0.00    +0.000 HD
BRANCH  13  20
ATOM     15  C   UNL A   1      42.492 -15.829 -35.434  0.00  0.00    -0.039 C 
ATOM     16  C   UNL A   1      42.729 -17.083 -34.636  0.00  0.00    -0.046 A 
ATOM     17  C   UNL A   1      43.639 -17.033 -33.569  0.00  0.00    -0.058 A 
ATOM     18  C   UNL A   1      43.898 -18.164 -32.804  0.00  0.00    -0.060 A 
ATOM     19  C   UNL A   1      43.254 -19.364 -33.100  0.00  0.00    -0.040 A 
ATOM     20  C   UNL A   1      42.340 -19.458 -34.158  0.00  0.00    +0.035 A 
ATOM     21  C   UNL A   1      42.049 -18.293 -34.915  0.00  0.00    -0.026 A 
ATOM     22  C   UNL A   1      41.048 -18.367 -36.046  0.00  0.00    -0.038 C 
ENDBRANCH  13  20
ENDBRANCH   7  13
ENDBRANCH   3  12
ENDBRANCH   2   5
ENDBRANCH   1   2
BRANCH   1  23
ATOM     23  C   UNL A   1      42.257 -21.156 -39.986  0.00  0.00    -0.052 C 
BRANCH  23  24
ATOM     24  C   UNL A   1      43.269 -21.269 -38.843  0.00  0.00    -0.053 C 
BRANCH  24  25
ATOM     25  C   UNL A   1      43.478 -19.910 -38.169  0.00  0.00    -0.053 C 
BRANCH  25  26
ATOM     26  C   UNL A   1      44.544 -19.953 -37.068  0.00  0.00    -0.052 C 
BRANCH  26  27
ATOM     27  C   UNL A   1      45.897 -20.493 -37.544  0.00  0.00    -0.037 C 
BRANCH  27  28
ATOM     28  C   UNL A   1      46.946 -19.405 -37.774  0.00  0.00    +0.009 C 
BRANCH  28  29
ATOM     29  N   UNL A   1      47.468 -19.422 -39.151  0.00  0.00    -0.343 N 
ATOM     30  H   UNL A   1      48.419 -19.576 -39.355  0.00  0.00    +0.000 HD
BRANCH  29  31
ATOM     31  C   UNL A   1      46.498 -19.198 -40.162  0.00  0.00    +0.041 A 
ATOM     32  C   UNL A   1      45.886 -17.929 -40.257  0.00  0.00    -0.005 A 
ATOM     33  C   UNL A   1      44.894 -17.755 -41.224  0.00  0.00    +0.047 A 
ATOM     34  N   UNL A   1      44.473 -18.748 -42.040  0.00  0.00    -0.251 NA
ATOM     35  C   UNL A   1      45.060 -19.948 -41.961  0.00  0.00    +0.073 A 
ATOM     36  C   UNL A   1      44.621 -20.935 -42.834  0.00  0.00    -0.036 A 
ATOM     37  C   UNL A   1      45.170 -22.218 -42.841  0.00  0.00    -0.060 A 
ATOM     38  C   UNL A   1      46.188 -22.526 -41.954  0.00  0.00    -0.061 A 
ATOM     39  C   UNL A   1      46.644 -21.551 -41.067  0.00  0.00    -0.051 A 
ATOM     40  C   UNL A   1      46.089 -20.243 -41.044  0.00  0.00    +0.021 A 
ATOM     41  C   UNL A   1      44.176 -16.441 -41.398  0.00  0.00    -0.010 C 
ATOM     42  C   UNL A   1      44.962 -15.250 -40.867  0.00  0.00    -0.047 C 
ATOM     43  C   UNL A   1      45.450 -15.546 -39.456  0.00  0.00    -0.049 C 
ATOM     44  C   UNL A   1      46.392 -16.749 -39.457  0.00  0.00    -0.024 C 
ENDBRANCH  29  31
ENDBRANCH  28  29
ENDBRANCH  27  28
ENDBRANCH  26  27
ENDBRANCH  25  26
ENDBRANCH  24  25
ENDBRANCH  23  24
ENDBRANCH   1  23
TORSDOF 13
ENDMDL
MODEL 2
REMARK VINA RESULT:    -7.247      0.628      3.140
REMARK INTER + INTRA:         -16.899
REMARK INTER:                 -11.961
REMARK INTRA:                  -4.939
REMARK UNBOUND:                -4.145
REMARK  Name = cpd25.pdb
REMARK  15 active torsions:
REMARK  status: ('A' for Active; 'I' for Inactive)
REMARK    1  A    between atoms: C_1  and  C_2
REMARK    2  A    between atoms: C_6  and  N_7
REMARK    3  A    between atoms: N_7  and  C_8
REMARK    4  A    between atoms: C_13  and  C_14
REMARK    5  A    between atoms: N_16  and  C_17
REMARK    6  A    between atoms: C_17  and  C_18
REMARK    7  A    between atoms: C_18  and  C_19
REMARK    8  A    between atoms: C_19  and  C_20
REMARK    9  A    between atoms: C_20  and  C_21
REMARK   10  A    between atoms: C_21  and  C_22
REMARK   11  A    between atoms: C_22  and  C_23
REMARK   12  A    between atoms: C_23  and  C_24
REMARK   13  A    between atoms: C_24  and  N_25
REMARK   14  A    between atoms: N_25  and  C_26
REMARK   15  A    between atoms: C_40  and  C_41
REMARK                            x       y       z     vdW  Elec       q    Type
REMARK                         _______ _______ _______ _____ _____    ______ ____
ROOT
ATOM      1  C   UNL A   1      40.898 -20.810 -39.430  0.00  0.00    -0.037 C 
ENDROOT
BRANCH   1   2
ATOM      2  C   UNL A   1      40.371 -22.022 -38.660  0.00  0.00    +0.012 C 
BRANCH   2   5
ATOM      3  C   UNL A   1      40.337 -22.205 -36.203  0.00  0.00    +0.246 C 
ATOM      4  O   UNL A   1      41.291 -22.980 -36.189  0.00  0.00    -0.270 OA
ATOM      5  N   UNL A   1      39.833 -21.651 -37.365  0.00  0.00    -0.311 N 
ATOM      6  H   UNL A   1      39.100 -20.997 -37.313  0.00  0.00    +0.000 HD
BRANCH   3  12
ATOM      7  C   UNL A   1      40.188 -20.882 -34.065  0.00  0.00    +0.044 A 
ATOM      8  C   UNL A   1      39.494 -20.585 -32.882  0.00  0.00    -0.040 A 
ATOM      9  C   UNL A   1      38.290 -21.218 -32.565  0.00  0.00    -0.060 A 
ATOM     10  C   UNL A   1      37.747 -22.160 -33.434  0.00  0.00    -0.061 A 
ATOM     11  C   UNL A   1      38.412 -22.475 -34.617  0.00  0.00    -0.048 A 
ATOM     12  C   UNL A   1      39.634 -21.856 -34.932  0.00  0.00    +0.058 A 
BRANCH   7  13
ATOM     13  N   UNL A   1      41.409 -20.246 -34.373  0.00  0.00    -0.314 N 
ATOM     14  H   UNL A   1      42.200 -20.753 -34.080  0.00  0.00    +0.000 HD
BRANCH  13  20
ATOM     15  C   UNL A   1      44.468 -16.328 -34.954  0.00  0.00    -0.039 C 
ATOM     16  C   UNL A   1      43.236 -17.117 -35.305  0.00  0.00    -0.046 A 
ATOM     17  C   UNL A   1      42.386 -16.617 -36.304  0.00  0.00    -0.058 A 
ATOM     18  C   UNL A   1      41.232 -17.305 -36.661  0.00  0.00    -0.060 A 
ATOM     19  C   UNL A   1      40.909 -18.499 -36.020  0.00  0.00    -0.040 A 
ATOM     20  C   UNL A   1      41.729 -19.032 -35.016  0.00  0.00    +0.035 A 
ATOM     21  C   UNL A   1      42.926 -18.348 -34.678  0.00  0.00    -0.026 A 
ATOM     22  C   UNL A   1      43.837 -18.917 -33.614  0.00  0.00    -0.038 C 
ENDBRANCH  13  20
ENDBRANCH   7  13
ENDBRANCH   3  12
ENDBRANCH   2   5
ENDBRANCH   1   2
BRANCH   1  23
ATOM     23  C   UNL A   1      42.292 -21.040 -40.015  0.00  0.00    -0.052 C 
BRANCH  23  24
ATOM     24  C   UNL A   1      43.362 -21.325 -38.959  0.00  0.00    -0.053 C 
BRANCH  24  25
ATOM     25  C   UNL A   1      43.530 -20.125 -38.022  0.00  0.00    -0.053 C 
BRANCH  25  26
ATOM     26  C   UNL A   1      44.689 -20.303 -37.034  0.00  0.00    -0.052 C 
BRANCH  26  27
ATOM     27  C   UNL A   1      46.015 -20.678 -37.703  0.00  0.00    -0.037 C 
BRANCH  27  28
ATOM     28  C   UNL A   1      47.021 -19.528 -37.761  0.00  0.00    +0.009 C 
BRANCH  28  29
ATOM     29  N   UNL A   1      47.413 -19.204 -39.142  0.00  0.00    -0.343 N 
ATOM     30  H   UNL A   1      48.354 -19.174 -39.433  0.00  0.00    +0.000 HD
BRANCH  29  31
ATOM     31  C   UNL A   1      46.334 -18.939 -40.025  0.00  0.00    +0.041 A 
ATOM     32  C   UNL A   1      46.039 -19.867 -41.047  0.00  0.00    -0.005 A 
ATOM     33  C   UNL A   1      45.010 -19.553 -41.936  0.00  0.00    +0.047 A 
ATOM     34  N   UNL A   1      44.315 -18.393 -41.884  0.00  0.00    -0.251 NA
ATOM     35  C   UNL A   1      44.583 -17.517 -40.909  0.00  0.00    +0.073 A 
ATOM     36  C   UNL A   1      43.831 -16.351 -40.870  0.00  0.00    -0.036 A 
ATOM     37  C   UNL A   1      44.023 -15.375 -39.891  0.00  0.00    -0.060 A 
ATOM     38  C   UNL A   1      44.993 -15.567 -38.921  0.00  0.00    -0.061 A 
ATOM     39  C   UNL A   1      45.762 -16.731 -38.941  0.00  0.00    -0.051 A 
ATOM     40  C   UNL A   1      45.582 -17.729 -39.936  0.00  0.00    +0.021 A 
ATOM     41  C   UNL A   1      44.625 -20.474 -43.065  0.00  0.00    -0.010 C 
ATOM     42  C   UNL A   1      45.030 -21.923 -42.824  0.00  0.00    -0.047 C 
ATOM     43  C   UNL A   1      46.490 -21.984 -42.400  0.00  0.00    -0.049 C 
ATOM     44  C   UNL A   1      46.697 -21.229 -41.087  0.00  0.00    -0.024 C 
ENDBRANCH  29  31
ENDBRANCH  28  29
ENDBRANCH  27  28
ENDBRANCH  26  27
ENDBRANCH  25  26
ENDBRANCH  24  25
ENDBRANCH  23  24
ENDBRANCH   1  23
TORSDOF 13
ENDMDL
MODEL 3
REMARK VINA RESULT:    -7.167      2.088      8.296
REMARK INTER + INTRA:         -16.758
REMARK INTER:                 -12.797
REMARK INTRA:                  -3.962
REMARK UNBOUND:                -4.145
REMARK  Name = cpd25.pdb
REMARK  15 active torsions:
REMARK  status: ('A' for Active; 'I' for Inactive)
REMARK    1  A    between atoms: C_1  and  C_2
REMARK    2  A    between atoms: C_6  and  N_7
REMARK    3  A    between atoms: N_7  and  C_8
REMARK    4  A    between atoms: C_13  and  C_14
REMARK    5  A    between atoms: N_16  and  C_17
REMARK    6  A    between atoms: C_17  and  C_18
REMARK    7  A    between atoms: C_18  and  C_19
REMARK    8  A    between atoms: C_19  and  C_20
REMARK    9  A    between atoms: C_20  and  C_21
REMARK   10  A    between atoms: C_21  and  C_22
REMARK   11  A    between atoms: C_22  and  C_23
REMARK   12  A    between atoms: C_23  and  C_24
REMARK   13  A    between atoms: C_24  and  N_25
REMARK   14  A    between atoms: N_25  and  C_26
REMARK   15  A    between atoms: C_40  and  C_41
REMARK                            x       y       z     vdW  Elec       q    Type
REMARK                         _______ _______ _______ _____ _____    ______ ____
ROOT
ATOM      1  C   UNL A   1      43.147 -19.336 -34.030  0.00  0.00    -0.037 C 
ENDROOT
BRANCH   1   2
ATOM      2  C   UNL A   1      44.665 -19.366 -34.219  0.00  0.00    +0.012 C 
BRANCH   2   5
ATOM      3  C   UNL A   1      46.062 -18.994 -36.214  0.00  0.00    +0.246 C 
ATOM      4  O   UNL A   1      46.573 -20.109 -36.137  0.00  0.00    -0.270 OA
ATOM      5  N   UNL A   1      45.089 -18.549 -35.339  0.00  0.00    -0.311 N 
ATOM      6  H   UNL A   1      44.679 -17.665 -35.479  0.00  0.00    +0.000 HD
BRANCH   3  12
ATOM      7  C   UNL A   1      46.532 -18.418 -38.621  0.00  0.00    +0.044 A 
ATOM      8  C   UNL A   1      46.969 -17.481 -39.569  0.00  0.00    -0.040 A 
ATOM      9  C   UNL A   1      47.373 -16.198 -39.192  0.00  0.00    -0.060 A 
ATOM     10  C   UNL A   1      47.340 -15.821 -37.853  0.00  0.00    -0.061 A 
ATOM     11  C   UNL A   1      46.909 -16.730 -36.887  0.00  0.00    -0.048 A 
ATOM     12  C   UNL A   1      46.520 -18.029 -37.259  0.00  0.00    +0.058 A 
BRANCH   7  13
ATOM     13  N   UNL A   1      46.135 -19.716 -39.008  0.00  0.00    -0.314 N 
ATOM     14  H   UNL A   1      46.137 -20.364 -38.268  0.00  0.00    +0.000 HD
BRANCH  13  20
ATOM     15  C   UNL A   1      46.726 -23.148 -42.603  0.00  0.00    -0.039 C 
ATOM     16  C   UNL A   1      46.021 -21.964 -41.997  0.00  0.00    -0.046 A 
ATOM     17  C   UNL A   1      44.935 -21.408 -42.689  0.00  0.00    -0.058 A 
ATOM     18  C   UNL A   1      44.254 -20.311 -42.175  0.00  0.00    -0.060 A 
ATOM     19  C   UNL A   1      44.654 -19.751 -40.963  0.00  0.00    -0.040 A 
ATOM     20  C   UNL A   1      45.735 -20.274 -40.240  0.00  0.00    +0.035 A 
ATOM     21  C   UNL A   1      46.406 -21.417 -40.748  0.00  0.00    -0.026 A 
ATOM     22  C   UNL A   1      47.560 -22.013 -39.973  0.00  0.00    -0.038 C 
ENDBRANCH  13  20
ENDBRANCH   7  13
ENDBRANCH   3  12
ENDBRANCH   2   5
ENDBRANCH   1   2
BRANCH   1  23
ATOM     23  C   UNL A   1      42.387 -19.854 -35.253  0.00  0.00    -0.052 C 
BRANCH  23  24
ATOM     24  C   UNL A   1      42.101 -18.776 -36.300  0.00  0.00    -0.053 C 
BRANCH  24  25
ATOM     25  C   UNL A   1      42.523 -19.251 -37.694  0.00  0.00    -0.053 C 
BRANCH  25  26
ATOM     26  C   UNL A   1      42.861 -20.745 -37.733  0.00  0.00    -0.052 C 
BRANCH  26  27
ATOM     27  C   UNL A   1      42.118 -21.516 -38.829  0.00  0.00    -0.037 C 
BRANCH  27  28
ATOM     28  C   UNL A   1      41.215 -22.628 -38.294  0.00  0.00    +0.009 C 
BRANCH  28  29
ATOM     29  N   UNL A   1      39.787 -22.319 -38.477  0.00  0.00    -0.343 N 
ATOM     30  H   UNL A   1      39.245 -22.727 -39.191  0.00  0.00    +0.000 HD
BRANCH  29  31
ATOM     31  C   UNL A   1      39.251 -21.389 -37.549  0.00  0.00    +0.041 A 
ATOM     32  C   UNL A   1      39.005 -20.064 -37.970  0.00  0.00    -0.005 A 
ATOM     33  C   UNL A   1      38.531 -19.156 -37.020  0.00  0.00    +0.047 A 
ATOM     34  N   UNL A   1      38.335 -19.478 -35.721  0.00  0.00    -0.251 NA
ATOM     35  C   UNL A   1      38.555 -20.737 -35.323  0.00  0.00    +0.073 A 
ATOM     36  C   UNL A   1      38.316 -21.037 -33.988  0.00  0.00    -0.036 A 
ATOM     37  C   UNL A   1      38.505 -22.319 -33.470  0.00  0.00    -0.060 A 
ATOM     38  C   UNL A   1      38.944 -23.333 -34.306  0.00  0.00    -0.061 A 
ATOM     39  C   UNL A   1      39.192 -23.053 -35.650  0.00  0.00    -0.051 A 
ATOM     40  C   UNL A   1      39.010 -21.751 -36.189  0.00  0.00    +0.021 A 
ATOM     41  C   UNL A   1      38.247 -17.718 -37.368  0.00  0.00    -0.010 C 
ATOM     42  C   UNL A   1      37.986 -17.498 -38.853  0.00  0.00    -0.047 C 
ATOM     43  C   UNL A   1      39.083 -18.163 -39.670  0.00  0.00    -0.049 C 
ATOM     44  C   UNL A   1      39.091 -19.672 -39.428  0.00  0.00    -0.024 C 
ENDBRANCH  29  31
ENDBRANCH  28  29
ENDBRANCH  27  28
ENDBRANCH  26  27
ENDBRANCH  25  26
ENDBRANCH  24  25
ENDBRANCH  23  24
ENDBRANCH   1  23
TORSDOF 13
ENDMDL
MODEL 4
REMARK VINA RESULT:    -7.158      2.194      8.434
REMARK INTER + INTRA:         -16.742
REMARK INTER:                 -11.958
REMARK INTRA:                  -4.784
REMARK UNBOUND:                -4.145
REMARK  Name = cpd25.pdb
REMARK  15 active torsions:
REMARK  status: ('A' for Active; 'I' for Inactive)
REMARK    1  A    between atoms: C_1  and  C_2
REMARK    2  A    between atoms: C_6  and  N_7
REMARK    3  A    between atoms: N_7  and  C_8
REMARK    4  A    between atoms: C_13  and  C_14
REMARK    5  A    between atoms: N_16  and  C_17
REMARK    6  A    between atoms: C_17  and  C_18
REMARK    7  A    between atoms: C_18  and  C_19
REMARK    8  A    between atoms: C_19  and  C_20
REMARK    9  A    between atoms: C_20  and  C_21
REMARK   10  A    between atoms: C_21  and  C_22
REMARK   11  A    between atoms: C_22  and  C_23
REMARK   12  A    between atoms: C_23  and  C_24
REMARK   13  A    between atoms: C_24  and  N_25
REMARK   14  A    between atoms: N_25  and  C_26
REMARK   15  A    between atoms: C_40  and  C_41
REMARK                            x       y       z     vdW  Elec       q    Type
REMARK                         _______ _______ _______ _____ _____    ______ ____
ROOT
ATOM      1  C   UNL A   1      46.359 -18.626 -36.787  0.00  0.00    -0.037 C 
ENDROOT
BRANCH   1   2
ATOM      2  C   UNL A   1      47.125 -18.412 -38.094  0.00  0.00    +0.012 C 
BRANCH   2   5
ATOM      3  C   UNL A   1      47.066 -19.470 -40.318  0.00  0.00    +0.246 C 
ATOM      4  O   UNL A   1      47.131 -18.388 -40.899  0.00  0.00    -0.270 OA
ATOM      5  N   UNL A   1      47.093 -19.588 -38.941  0.00  0.00    -0.311 N 
ATOM      6  H   UNL A   1      47.089 -20.482 -38.531  0.00  0.00    +0.000 HD
BRANCH   3  12
ATOM      7  C   UNL A   1      45.619 -21.137 -41.529  0.00  0.00    +0.044 A 
ATOM      8  C   UNL A   1      45.513 -22.331 -42.259  0.00  0.00    -0.040 A 
ATOM      9  C   UNL A   1      46.639 -23.099 -42.564  0.00  0.00    -0.060 A 
ATOM     10  C   UNL A   1      47.901 -22.683 -42.151  0.00  0.00    -0.061 A 
ATOM     11  C   UNL A   1      48.038 -21.501 -41.425  0.00  0.00    -0.048 A 
ATOM     12  C   UNL A   1      46.906 -20.733 -41.099  0.00  0.00    +0.058 A 
BRANCH   7  13
ATOM     13  N   UNL A   1      44.475 -20.371 -41.216  0.00  0.00    -0.314 N 
ATOM     14  H   UNL A   1      44.172 -19.799 -41.958  0.00  0.00    +0.000 HD
BRANCH  13  20
ATOM     15  C   UNL A   1      42.189 -17.521 -37.795  0.00  0.00    -0.039 C 
ATOM     16  C   UNL A   1      42.550 -18.857 -38.388  0.00  0.00    -0.046 A 
ATOM     17  C   UNL A   1      42.073 -20.017 -37.759  0.00  0.00    -0.058 A 
ATOM     18  C   UNL A   1      42.383 -21.274 -38.263  0.00  0.00    -0.060 A 
ATOM     19  C   UNL A   1      43.179 -21.390 -39.401  0.00  0.00    -0.040 A 
ATOM     20  C   UNL A   1      43.678 -20.257 -40.059  0.00  0.00    +0.035 A 
ATOM     21  C   UNL A   1      43.330 -18.972 -39.564  0.00  0.00    -0.026 A 
ATOM     22  C   UNL A   1      43.838 -17.736 -40.272  0.00  0.00    -0.038 C 
ENDBRANCH  13  20
ENDBRANCH   7  13
ENDBRANCH   3  12
ENDBRANCH   2   5
ENDBRANCH   1   2
BRANCH   1  23
ATOM     23  C   UNL A   1      45.651 -19.980 -36.729  0.00  0.00    -0.052 C 
BRANCH  23  24
ATOM     24  C   UNL A   1      44.761 -20.156 -35.497  0.00  0.00    -0.053 C 
BRANCH  24  25
ATOM     25  C   UNL A   1      44.333 -18.794 -34.940  0.00  0.00    -0.053 C 
BRANCH  25  26
ATOM     26  C   UNL A   1      44.436 -18.721 -33.412  0.00  0.00    -0.052 C 
BRANCH  26  27
ATOM     27  C   UNL A   1      43.148 -18.246 -32.731  0.00  0.00    -0.037 C 
BRANCH  27  28
ATOM     28  C   UNL A   1      42.047 -17.842 -33.712  0.00  0.00    +0.009 C 
BRANCH  28  29
ATOM     29  N   UNL A   1      40.721 -18.318 -33.284  0.00  0.00    -0.343 N 
ATOM     30  H   UNL A   1      40.280 -17.992 -32.466  0.00  0.00    +0.000 HD
BRANCH  29  31
ATOM     31  C   UNL A   1      40.125 -19.282 -34.139  0.00  0.00    +0.041 A 
ATOM     32  C   UNL A   1      40.273 -20.652 -33.836  0.00  0.00    -0.005 A 
ATOM     33  C   UNL A   1      39.726 -21.579 -34.726  0.00  0.00    +0.047 A 
ATOM     34  N   UNL A   1      39.098 -21.225 -35.871  0.00  0.00    -0.251 NA
ATOM     35  C   UNL A   1      38.945 -19.926 -36.154  0.00  0.00    +0.073 A 
ATOM     36  C   UNL A   1      38.271 -19.601 -37.323  0.00  0.00    -0.036 A 
ATOM     37  C   UNL A   1      38.049 -18.278 -37.709  0.00  0.00    -0.060 A 
ATOM     38  C   UNL A   1      38.511 -17.249 -36.905  0.00  0.00    -0.061 A 
ATOM     39  C   UNL A   1      39.192 -17.552 -35.726  0.00  0.00    -0.051 A 
ATOM     40  C   UNL A   1      39.431 -18.895 -35.325  0.00  0.00    +0.021 A 
ATOM     41  C   UNL A   1      39.839 -23.064 -34.496  0.00  0.00    -0.010 C 
ATOM     42  C   UNL A   1      40.073 -23.431 -33.036  0.00  0.00    -0.047 C 
ATOM     43  C   UNL A   1      41.213 -22.595 -32.474  0.00  0.00    -0.049 C 
ATOM     44  C   UNL A   1      40.859 -21.109 -32.518  0.00  0.00    -0.024 C 
ENDBRANCH  29  31
ENDBRANCH  28  29
ENDBRANCH  27  28
ENDBRANCH  26  27
ENDBRANCH  25  26
ENDBRANCH  24  25
ENDBRANCH  23  24
ENDBRANCH   1  23
TORSDOF 13
ENDMDL
MODEL 5
REMARK VINA RESULT:    -7.148      2.057      7.661
REMARK INTER + INTRA:         -16.725
REMARK INTER:                 -11.525
REMARK INTRA:                  -5.200
REMARK UNBOUND:                -4.145
REMARK  Name = cpd25.pdb
REMARK  15 active torsions:
REMARK  status: ('A' for Active; 'I' for Inactive)
REMARK    1  A    between atoms: C_1  and  C_2
REMARK    2  A    between atoms: C_6  and  N_7
REMARK    3  A    between atoms: N_7  and  C_8
REMARK    4  A    between atoms: C_13  and  C_14
REMARK    5  A    between atoms: N_16  and  C_17
REMARK    6  A    between atoms: C_17  and  C_18
REMARK    7  A    between atoms: C_18  and  C_19
REMARK    8  A    between atoms: C_19  and  C_20
REMARK    9  A    between atoms: C_20  and  C_21
REMARK   10  A    between atoms: C_21  and  C_22
REMARK   11  A    between atoms: C_22  and  C_23
REMARK   12  A    between atoms: C_23  and  C_24
REMARK   13  A    between atoms: C_24  and  N_25
REMARK   14  A    between atoms: N_25  and  C_26
REMARK   15  A    between atoms: C_40  and  C_41
REMARK                            x       y       z     vdW  Elec       q    Type
REMARK                         _______ _______ _______ _____ _____    ______ ____
ROOT
ATOM      1  C   UNL A   1      45.565 -15.809 -37.955  0.00  0.00    -0.037 C 
ENDROOT
BRANCH   1   2
ATOM      2  C   UNL A   1      45.827 -16.005 -39.449  0.00  0.00    +0.012 C 
BRANCH   2   5
ATOM      3  C   UNL A   1      45.558 -18.065 -40.774  0.00  0.00    +0.246 C 
ATOM      4  O   UNL A   1      44.703 -17.558 -41.498  0.00  0.00    -0.270 OA
ATOM      5  N   UNL A   1      46.195 -17.372 -39.762  0.00  0.00    -0.311 N 
ATOM      6  H   UNL A   1      46.908 -17.813 -39.247  0.00  0.00    +0.000 HD
BRANCH   3  12
ATOM      7  C   UNL A   1      44.900 -20.485 -40.999  0.00  0.00    +0.044 A 
ATOM      8  C   UNL A   1      45.285 -21.827 -41.149  0.00  0.00    -0.040 A 
ATOM      9  C   UNL A   1      46.630 -22.191 -41.243  0.00  0.00    -0.060 A 
ATOM     10  C   UNL A   1      47.622 -21.218 -41.196  0.00  0.00    -0.061 A 
ATOM     11  C   UNL A   1      47.271 -19.877 -41.048  0.00  0.00    -0.048 A 
ATOM     12  C   UNL A   1      45.920 -19.505 -40.935  0.00  0.00    +0.058 A 
BRANCH   7  13
ATOM     13  N   UNL A   1      43.539 -20.125 -40.895  0.00  0.00    -0.314 N 
ATOM     14  H   UNL A   1      43.292 -19.360 -41.463  0.00  0.00    +0.000 HD
BRANCH  13  20
ATOM     15  C   UNL A   1      39.742 -19.393 -37.718  0.00  0.00    -0.039 C 
ATOM     16  C   UNL A   1      40.594 -20.273 -38.593  0.00  0.00    -0.046 A 
ATOM     17  C   UNL A   1      40.296 -21.643 -38.653  0.00  0.00    -0.058 A 
ATOM     18  C   UNL A   1      41.056 -22.499 -39.442  0.00  0.00    -0.060 A 
ATOM     19  C   UNL A   1      42.128 -21.997 -40.177  0.00  0.00    -0.040 A 
ATOM     20  C   UNL A   1      42.461 -20.636 -40.143  0.00  0.00    +0.035 A 
ATOM     21  C   UNL A   1      41.662 -19.757 -39.367  0.00  0.00    -0.026 A 
ATOM     22  C   UNL A   1      41.988 -18.281 -39.335  0.00  0.00    -0.038 C 
ENDBRANCH  13  20
ENDBRANCH   7  13
ENDBRANCH   3  12
ENDBRANCH   2   5
ENDBRANCH   1   2
BRANCH   1  23
ATOM     23  C   UNL A   1      44.350 -16.595 -37.457  0.00  0.00    -0.052 C 
BRANCH  23  24
ATOM     24  C   UNL A   1      43.783 -16.075 -36.135  0.00  0.00    -0.053 C 
BRANCH  24  25
ATOM     25  C   UNL A   1      44.905 -15.556 -35.231  0.00  0.00    -0.053 C 
BRANCH  25  26
ATOM     26  C   UNL A   1      44.425 -15.251 -33.807  0.00  0.00    -0.052 C 
BRANCH  26  27
ATOM     27  C   UNL A   1      44.918 -16.259 -32.763  0.00  0.00    -0.037 C 
BRANCH  27  28
ATOM     28  C   UNL A   1      43.916 -17.375 -32.465  0.00  0.00    +0.009 C 
BRANCH  28  29
ATOM     29  N   UNL A   1      44.500 -18.712 -32.666  0.00  0.00    -0.343 N 
ATOM     30  H   UNL A   1      45.191 -19.083 -32.071  0.00  0.00    +0.000 HD
BRANCH  29  31
ATOM     31  C   UNL A   1      43.991 -19.426 -33.782  0.00  0.00    +0.041 A 
ATOM     32  C   UNL A   1      44.760 -19.488 -34.964  0.00  0.00    -0.005 A 
ATOM     33  C   UNL A   1      44.210 -20.149 -36.066  0.00  0.00    +0.047 A 
ATOM     34  N   UNL A   1      42.971 -20.693 -36.059  0.00  0.00    -0.251 NA
ATOM     35  C   UNL A   1      42.246 -20.647 -34.935  0.00  0.00    +0.073 A 
ATOM     36  C   UNL A   1      40.991 -21.241 -34.958  0.00  0.00    -0.036 A 
ATOM     37  C   UNL A   1      40.157 -21.257 -33.840  0.00  0.00    -0.060 A 
ATOM     38  C   UNL A   1      40.586 -20.664 -32.663  0.00  0.00    -0.061 A 
ATOM     39  C   UNL A   1      41.842 -20.060 -32.618  0.00  0.00    -0.051 A 
ATOM     40  C   UNL A   1      42.699 -20.031 -33.751  0.00  0.00    +0.021 A 
ATOM     41  C   UNL A   1      44.947 -20.261 -37.375  0.00  0.00    -0.010 C 
ATOM     42  C   UNL A   1      46.456 -20.114 -37.230  0.00  0.00    -0.047 C 
ATOM     43  C   UNL A   1      46.774 -18.875 -36.407  0.00  0.00    -0.049 C 
ATOM     44  C   UNL A   1      46.193 -19.004 -34.999  0.00  0.00    -0.024 C 
ENDBRANCH  29  31
ENDBRANCH  28  29
ENDBRANCH  27  28
ENDBRANCH  26  27
ENDBRANCH  25  26
ENDBRANCH  24  25
ENDBRANCH  23  24
ENDBRANCH   1  23
TORSDOF 13
ENDMDL
MODEL 6
REMARK VINA RESULT:    -7.041      2.143      8.412
REMARK INTER + INTRA:         -16.537
REMARK INTER:                 -12.525
REMARK INTRA:                  -4.013
REMARK UNBOUND:                -4.145
REMARK  Name = cpd25.pdb
REMARK  15 active torsions:
REMARK  status: ('A' for Active; 'I' for Inactive)
REMARK    1  A    between atoms: C_1  and  C_2
REMARK    2  A    between atoms: C_6  and  N_7
REMARK    3  A    between atoms: N_7  and  C_8
REMARK    4  A    between atoms: C_13  and  C_14
REMARK    5  A    between atoms: N_16  and  C_17
REMARK    6  A    between atoms: C_17  and  C_18
REMARK    7  A    between atoms: C_18  and  C_19
REMARK    8  A    between atoms: C_19  and  C_20
REMARK    9  A    between atoms: C_20  and  C_21
REMARK   10  A    between atoms: C_21  and  C_22
REMARK   11  A    between atoms: C_22  and  C_23
REMARK   12  A    between atoms: C_23  and  C_24
REMARK   13  A    between atoms: C_24  and  N_25
REMARK   14  A    between atoms: N_25  and  C_26
REMARK   15  A    between atoms: C_40  and  C_41
REMARK                            x       y       z     vdW  Elec       q    Type
REMARK                         _______ _______ _______ _____ _____    ______ ____
ROOT
ATOM      1  C   UNL A   1      43.110 -19.277 -34.050  0.00  0.00    -0.037 C 
ENDROOT
BRANCH   1   2
ATOM      2  C   UNL A   1      44.631 -19.309 -34.211  0.00  0.00    +0.012 C 
BRANCH   2   5
ATOM      3  C   UNL A   1      46.091 -18.882 -36.149  0.00  0.00    +0.246 C 
ATOM      4  O   UNL A   1      46.619 -19.989 -36.071  0.00  0.00    -0.270 OA
ATOM      5  N   UNL A   1      45.080 -18.467 -35.303  0.00  0.00    -0.311 N 
ATOM      6  H   UNL A   1      44.659 -17.589 -35.444  0.00  0.00    +0.000 HD
BRANCH   3  12
ATOM      7  C   UNL A   1      46.529 -18.222 -38.540  0.00  0.00    +0.044 A 
ATOM      8  C   UNL A   1      46.987 -17.264 -39.458  0.00  0.00    -0.040 A 
ATOM      9  C   UNL A   1      47.460 -16.019 -39.035  0.00  0.00    -0.060 A 
ATOM     10  C   UNL A   1      47.476 -15.701 -37.681  0.00  0.00    -0.061 A 
ATOM     11  C   UNL A   1      47.027 -16.631 -36.745  0.00  0.00    -0.048 A 
ATOM     12  C   UNL A   1      46.568 -17.893 -37.163  0.00  0.00    +0.058 A 
BRANCH   7  13
ATOM     13  N   UNL A   1      46.063 -19.481 -38.973  0.00  0.00    -0.314 N 
ATOM     14  H   UNL A   1      45.991 -20.143 -38.248  0.00  0.00    +0.000 HD
BRANCH  13  20
ATOM     15  C   UNL A   1      46.468 -22.958 -42.550  0.00  0.00    -0.039 C 
ATOM     16  C   UNL A   1      45.873 -21.698 -41.981  0.00  0.00    -0.046 A 
ATOM     17  C   UNL A   1      44.910 -21.014 -42.737  0.00  0.00    -0.058 A 
ATOM     18  C   UNL A   1      44.335 -19.843 -42.259  0.00  0.00    -0.060 A 
ATOM     19  C   UNL A   1      44.720 -19.336 -41.019  0.00  0.00    -0.040 A 
ATOM     20  C   UNL A   1      45.680 -19.987 -40.233  0.00  0.00    +0.035 A 
ATOM     21  C   UNL A   1      46.239 -21.203 -40.706  0.00  0.00    -0.026 A 
ATOM     22  C   UNL A   1      47.260 -21.934 -39.863  0.00  0.00    -0.038 C 
ENDBRANCH  13  20
ENDBRANCH   7  13
ENDBRANCH   3  12
ENDBRANCH   2   5
ENDBRANCH   1   2
BRANCH   1  23
ATOM     23  C   UNL A   1      42.372 -19.798 -35.285  0.00  0.00    -0.052 C 
BRANCH  23  24
ATOM     24  C   UNL A   1      41.996 -18.702 -36.284  0.00  0.00    -0.053 C 
BRANCH  24  25
ATOM     25  C   UNL A   1      42.412 -19.099 -37.704  0.00  0.00    -0.053 C 
BRANCH  25  26
ATOM     26  C   UNL A   1      42.884 -20.554 -37.798  0.00  0.00    -0.052 C 
BRANCH  26  27
ATOM     27  C   UNL A   1      42.198 -21.352 -38.913  0.00  0.00    -0.037 C 
BRANCH  27  28
ATOM     28  C   UNL A   1      41.364 -22.528 -38.403  0.00  0.00    +0.009 C 
BRANCH  28  29
ATOM     29  N   UNL A   1      39.919 -22.277 -38.529  0.00  0.00    -0.343 N 
ATOM     30  H   UNL A   1      39.352 -22.758 -39.175  0.00  0.00    +0.000 HD
BRANCH  29  31
ATOM     31  C   UNL A   1      39.402 -21.291 -37.649  0.00  0.00    +0.041 A 
ATOM     32  C   UNL A   1      39.260 -21.601 -36.279  0.00  0.00    -0.005 A 
ATOM     33  C   UNL A   1      38.695 -20.632 -35.447  0.00  0.00    +0.047 A 
ATOM     34  N   UNL A   1      38.250 -19.436 -35.898  0.00  0.00    -0.251 NA
ATOM     35  C   UNL A   1      38.397 -19.135 -37.194  0.00  0.00    +0.073 A 
ATOM     36  C   UNL A   1      37.954 -17.888 -37.615  0.00  0.00    -0.036 A 
ATOM     37  C   UNL A   1      38.066 -17.470 -38.941  0.00  0.00    -0.060 A 
ATOM     38  C   UNL A   1      38.636 -18.318 -39.876  0.00  0.00    -0.061 A 
ATOM     39  C   UNL A   1      39.086 -19.576 -39.476  0.00  0.00    -0.051 A 
ATOM     40  C   UNL A   1      38.973 -20.017 -38.130  0.00  0.00    +0.021 A 
ATOM     41  C   UNL A   1      38.493 -20.870 -33.973  0.00  0.00    -0.010 C 
ATOM     42  C   UNL A   1      39.412 -21.944 -33.405  0.00  0.00    -0.047 C 
ATOM     43  C   UNL A   1      39.352 -23.186 -34.281  0.00  0.00    -0.049 C 
ATOM     44  C   UNL A   1      39.842 -22.868 -35.693  0.00  0.00    -0.024 C 
ENDBRANCH  29  31
ENDBRANCH  28  29
ENDBRANCH  27  28
ENDBRANCH  26  27
ENDBRANCH  25  26
ENDBRANCH  24  25
ENDBRANCH  23  24
ENDBRANCH   1  23
TORSDOF 13
ENDMDL
MODEL 7
REMARK VINA RESULT:    -7.032      1.995      8.479
REMARK INTER + INTRA:         -16.522
REMARK INTER:                 -12.250
REMARK INTRA:                  -4.271
REMARK UNBOUND:                -4.145
REMARK  Name = cpd25.pdb
REMARK  15 active torsions:
REMARK  status: ('A' for Active; 'I' for Inactive)
REMARK    1  A    between atoms: C_1  and  C_2
REMARK    2  A    between atoms: C_6  and  N_7
REMARK    3  A    between atoms: N_7  and  C_8
REMARK    4  A    between atoms: C_13  and  C_14
REMARK    5  A    between atoms: N_16  and  C_17
REMARK    6  A    between atoms: C_17  and  C_18
REMARK    7  A    between atoms: C_18  and  C_19
REMARK    8  A    between atoms: C_19  and  C_20
REMARK    9  A    between atoms: C_20  and  C_21
REMARK   10  A    between atoms: C_21  and  C_22
REMARK   11  A    between atoms: C_22  and  C_23
REMARK   12  A    between atoms: C_23  and  C_24
REMARK   13  A    between atoms: C_24  and  N_25
REMARK   14  A    between atoms: N_25  and  C_26
REMARK   15  A    between atoms: C_40  and  C_41
REMARK                            x       y       z     vdW  Elec       q    Type
REMARK                         _______ _______ _______ _____ _____    ______ ____
ROOT
ATOM      1  C   UNL A   1      43.619 -19.877 -34.992  0.00  0.00    -0.037 C 
ENDROOT
BRANCH   1   2
ATOM      2  C   UNL A   1      43.620 -18.347 -35.009  0.00  0.00    +0.012 C 
BRANCH   2   5
ATOM      3  C   UNL A   1      44.284 -17.282 -37.129  0.00  0.00    +0.246 C 
ATOM      4  O   UNL A   1      43.119 -17.173 -37.508  0.00  0.00    -0.270 OA
ATOM      5  N   UNL A   1      44.631 -17.814 -35.902  0.00  0.00    -0.311 N 
ATOM      6  H   UNL A   1      45.576 -17.830 -35.629  0.00  0.00    +0.000 HD
BRANCH   3  12
ATOM      7  C   UNL A   1      45.671 -17.617 -39.204  0.00  0.00    +0.044 A 
ATOM      8  C   UNL A   1      46.735 -17.200 -40.019  0.00  0.00    -0.040 A 
ATOM      9  C   UNL A   1      47.509 -16.085 -39.691  0.00  0.00    -0.060 A 
ATOM     10  C   UNL A   1      47.228 -15.354 -38.541  0.00  0.00    -0.061 A 
ATOM     11  C   UNL A   1      46.177 -15.742 -37.713  0.00  0.00    -0.048 A 
ATOM     12  C   UNL A   1      45.406 -16.876 -38.027  0.00  0.00    +0.058 A 
BRANCH   7  13
ATOM     13  N   UNL A   1      44.900 -18.751 -39.537  0.00  0.00    -0.314 N 
ATOM     14  H   UNL A   1      44.117 -18.877 -38.954  0.00  0.00    +0.000 HD
BRANCH  13  20
ATOM     15  C   UNL A   1      46.629 -23.205 -41.030  0.00  0.00    -0.039 C 
ATOM     16  C   UNL A   1      45.862 -21.930 -41.260  0.00  0.00    -0.046 A 
ATOM     17  C   UNL A   1      45.256 -21.732 -42.510  0.00  0.00    -0.058 A 
ATOM     18  C   UNL A   1      44.542 -20.569 -42.775  0.00  0.00    -0.060 A 
ATOM     19  C   UNL A   1      44.429 -19.585 -41.795  0.00  0.00    -0.040 A 
ATOM     20  C   UNL A   1      45.021 -19.741 -40.534  0.00  0.00    +0.035 A 
ATOM     21  C   UNL A   1      45.719 -20.945 -40.252  0.00  0.00    -0.026 A 
ATOM     22  C   UNL A   1      46.345 -21.145 -38.891  0.00  0.00    -0.038 C 
ENDBRANCH  13  20
ENDBRANCH   7  13
ENDBRANCH   3  12
ENDBRANCH   2   5
ENDBRANCH   1   2
BRANCH   1  23
ATOM     23  C   UNL A   1      42.345 -20.462 -34.380  0.00  0.00    -0.052 C 
BRANCH  23  24
ATOM     24  C   UNL A   1      42.053 -19.954 -32.967  0.00  0.00    -0.053 C 
BRANCH  24  25
ATOM     25  C   UNL A   1      40.625 -19.407 -32.873  0.00  0.00    -0.053 C 
BRANCH  25  26
ATOM     26  C   UNL A   1      40.501 -17.980 -33.418  0.00  0.00    -0.052 C 
BRANCH  26  27
ATOM     27  C   UNL A   1      39.328 -17.791 -34.387  0.00  0.00    -0.037 C 
BRANCH  27  28
ATOM     28  C   UNL A   1      39.671 -18.124 -35.839  0.00  0.00    +0.009 C 
BRANCH  28  29
ATOM     29  N   UNL A   1      38.761 -19.133 -36.406  0.00  0.00    -0.343 N 
ATOM     30  H   UNL A   1      37.862 -18.908 -36.739  0.00  0.00    +0.000 HD
BRANCH  29  31
ATOM     31  C   UNL A   1      39.277 -20.455 -36.438  0.00  0.00    +0.041 A 
ATOM     32  C   UNL A   1      38.895 -21.364 -35.427  0.00  0.00    -0.005 A 
ATOM     33  C   UNL A   1      39.463 -22.640 -35.450  0.00  0.00    +0.047 A 
ATOM     34  N   UNL A   1      40.379 -23.026 -36.367  0.00  0.00    -0.251 NA
ATOM     35  C   UNL A   1      40.733 -22.171 -37.334  0.00  0.00    +0.073 A 
ATOM     36  C   UNL A   1      41.655 -22.612 -38.273  0.00  0.00    -0.036 A 
ATOM     37  C   UNL A   1      42.086 -21.804 -39.327  0.00  0.00    -0.060 A 
ATOM     38  C   UNL A   1      41.583 -20.519 -39.448  0.00  0.00    -0.061 A 
ATOM     39  C   UNL A   1      40.656 -20.055 -38.515  0.00  0.00    -0.051 A 
ATOM     40  C   UNL A   1      40.214 -20.864 -37.434  0.00  0.00    +0.021 A 
ATOM     41  C   UNL A   1      39.127 -23.679 -34.411  0.00  0.00    -0.010 C 
ATOM     42  C   UNL A   1      37.787 -23.435 -33.728  0.00  0.00    -0.047 C 
ATOM     43  C   UNL A   1      37.707 -21.990 -33.258  0.00  0.00    -0.049 C 
ATOM     44  C   UNL A   1      37.791 -21.035 -34.447  0.00  0.00    -0.024 C 
ENDBRANCH  29  31
ENDBRANCH  28  29
ENDBRANCH  27  28
ENDBRANCH  26  27
ENDBRANCH  25  26
ENDBRANCH  24  25
ENDBRANCH  23  24
ENDBRANCH   1  23
TORSDOF 13
ENDMDL
MODEL 8
REMARK VINA RESULT:    -7.018     17.110     22.671
REMARK INTER + INTRA:         -16.497
REMARK INTER:                 -12.563
REMARK INTRA:                  -3.933
REMARK UNBOUND:                -4.145
REMARK  Name = cpd25.pdb
REMARK  15 active torsions:
REMARK  status: ('A' for Active; 'I' for Inactive)
REMARK    1  A    between atoms: C_1  and  C_2
REMARK    2  A    between atoms: C_6  and  N_7
REMARK    3  A    between atoms: N_7  and  C_8
REMARK    4  A    between atoms: C_13  and  C_14
REMARK    5  A    between atoms: N_16  and  C_17
REMARK    6  A    between atoms: C_17  and  C_18
REMARK    7  A    between atoms: C_18  and  C_19
REMARK    8  A    between atoms: C_19  and  C_20
REMARK    9  A    between atoms: C_20  and  C_21
REMARK   10  A    between atoms: C_21  and  C_22
REMARK   11  A    between atoms: C_22  and  C_23
REMARK   12  A    between atoms: C_23  and  C_24
REMARK   13  A    between atoms: C_24  and  N_25
REMARK   14  A    between atoms: N_25  and  C_26
REMARK   15  A    between atoms: C_40  and  C_41
REMARK                            x       y       z     vdW  Elec       q    Type
REMARK                         _______ _______ _______ _____ _____    ______ ____
ROOT
ATOM      1  C   UNL A   1      32.098 -38.861 -31.223  0.00  0.00    -0.037 C 
ENDROOT
BRANCH   1   2
ATOM      2  C   UNL A   1      31.827 -37.795 -32.287  0.00  0.00    +0.012 C 
BRANCH   2   5
ATOM      3  C   UNL A   1      33.049 -35.672 -32.554  0.00  0.00    +0.246 C 
ATOM      4  O   UNL A   1      33.514 -36.008 -33.641  0.00  0.00    -0.270 OA
ATOM      5  N   UNL A   1      32.183 -36.466 -31.827  0.00  0.00    -0.311 N 
ATOM      6  H   UNL A   1      31.801 -36.125 -30.986  0.00  0.00    +0.000 HD
BRANCH   3  12
ATOM      7  C   UNL A   1      34.819 -34.100 -31.696  0.00  0.00    +0.044 A 
ATOM      8  C   UNL A   1      35.152 -32.868 -31.112  0.00  0.00    -0.040 A 
ATOM      9  C   UNL A   1      34.171 -31.930 -30.782  0.00  0.00    -0.060 A 
ATOM     10  C   UNL A   1      32.830 -32.203 -31.038  0.00  0.00    -0.061 A 
ATOM     11  C   UNL A   1      32.469 -33.418 -31.618  0.00  0.00    -0.048 A 
ATOM     12  C   UNL A   1      33.450 -34.373 -31.935  0.00  0.00    +0.058 A 
BRANCH   7  13
ATOM     13  N   UNL A   1      35.816 -35.046 -32.018  0.00  0.00    -0.314 N 
ATOM     14  H   UNL A   1      36.014 -35.094 -32.980  0.00  0.00    +0.000 HD
BRANCH  13  20
ATOM     15  C   UNL A   1      40.280 -36.684 -30.457  0.00  0.00    -0.039 C 
ATOM     16  C   UNL A   1      38.776 -36.732 -30.470  0.00  0.00    -0.046 A 
ATOM     17  C   UNL A   1      38.132 -37.699 -29.684  0.00  0.00    -0.058 A 
ATOM     18  C   UNL A   1      36.745 -37.789 -29.666  0.00  0.00    -0.060 A 
ATOM     19  C   UNL A   1      35.982 -36.916 -30.440  0.00  0.00    -0.040 A 
ATOM     20  C   UNL A   1      36.586 -35.938 -31.242  0.00  0.00    +0.035 A 
ATOM     21  C   UNL A   1      38.001 -35.823 -31.230  0.00  0.00    -0.026 A 
ATOM     22  C   UNL A   1      38.671 -34.758 -32.069  0.00  0.00    -0.038 C 
ENDBRANCH  13  20
ENDBRANCH   7  13
ENDBRANCH   3  12
ENDBRANCH   2   5
ENDBRANCH   1   2
BRANCH   1  23
ATOM     23  C   UNL A   1      31.306 -40.148 -31.459  0.00  0.00    -0.052 C 
BRANCH  23  24
ATOM     24  C   UNL A   1      31.848 -41.353 -30.688  0.00  0.00    -0.053 C 
BRANCH  24  25
ATOM     25  C   UNL A   1      33.359 -41.221 -30.471  0.00  0.00    -0.053 C 
BRANCH  25  26
ATOM     26  C   UNL A   1      33.762 -41.385 -29.001  0.00  0.00    -0.052 C 
BRANCH  26  27
ATOM     27  C   UNL A   1      34.142 -40.066 -28.317  0.00  0.00    -0.037 C 
BRANCH  27  28
ATOM     28  C   UNL A   1      33.749 -40.005 -26.841  0.00  0.00    +0.009 C 
BRANCH  28  29
ATOM     29  N   UNL A   1      34.396 -38.882 -26.142  0.00  0.00    -0.343 N 
ATOM     30  H   UNL A   1      35.371 -38.833 -26.008  0.00  0.00    +0.000 HD
BRANCH  29  31
ATOM     31  C   UNL A   1      33.510 -37.875 -25.677  0.00  0.00    +0.041 A 
ATOM     32  C   UNL A   1      32.936 -38.008 -24.394  0.00  0.00    -0.005 A 
ATOM     33  C   UNL A   1      32.023 -37.032 -23.985  0.00  0.00    +0.047 A 
ATOM     34  N   UNL A   1      31.643 -35.998 -24.770  0.00  0.00    -0.251 NA
ATOM     35  C   UNL A   1      32.196 -35.864 -25.981  0.00  0.00    +0.073 A 
ATOM     36  C   UNL A   1      31.803 -34.775 -26.748  0.00  0.00    -0.036 A 
ATOM     37  C   UNL A   1      32.323 -34.536 -28.020  0.00  0.00    -0.060 A 
ATOM     38  C   UNL A   1      33.263 -35.407 -28.545  0.00  0.00    -0.061 A 
ATOM     39  C   UNL A   1      33.673 -36.508 -27.793  0.00  0.00    -0.051 A 
ATOM     40  C   UNL A   1      33.147 -36.767 -26.499  0.00  0.00    +0.021 A 
ATOM     41  C   UNL A   1      31.350 -37.089 -22.638  0.00  0.00    -0.010 C 
ATOM     42  C   UNL A   1      32.120 -37.913 -21.614  0.00  0.00    -0.047 C 
ATOM     43  C   UNL A   1      32.493 -39.259 -22.214  0.00  0.00    -0.049 C 
ATOM     44  C   UNL A   1      33.406 -39.071 -23.426  0.00  0.00    -0.024 C 
ENDBRANCH  29  31
ENDBRANCH  28  29
ENDBRANCH  27  28
ENDBRANCH  26  27
ENDBRANCH  25  26
ENDBRANCH  24  25
ENDBRANCH  23  24
ENDBRANCH   1  23
TORSDOF 13
ENDMDL
MODEL 9
REMARK VINA RESULT:    -6.889      2.127      7.909
REMARK INTER + INTRA:         -16.270
REMARK INTER:                 -11.624
REMARK INTRA:                  -4.646
REMARK UNBOUND:                -4.145
REMARK  Name = cpd25.pdb
REMARK  15 active torsions:
REMARK  status: ('A' for Active; 'I' for Inactive)
REMARK    1  A    between atoms: C_1  and  C_2
REMARK    2  A    between atoms: C_6  and  N_7
REMARK    3  A    between atoms: N_7  and  C_8
REMARK    4  A    between atoms: C_13  and  C_14
REMARK    5  A    between atoms: N_16  and  C_17
REMARK    6  A    between atoms: C_17  and  C_18
REMARK    7  A    between atoms: C_18  and  C_19
REMARK    8  A    between atoms: C_19  and  C_20
REMARK    9  A    between atoms: C_20  and  C_21
REMARK   10  A    between atoms: C_21  and  C_22
REMARK   11  A    between atoms: C_22  and  C_23
REMARK   12  A    between atoms: C_23  and  C_24
REMARK   13  A    between atoms: C_24  and  N_25
REMARK   14  A    between atoms: N_25  and  C_26
REMARK   15  A    between atoms: C_40  and  C_41
REMARK                            x       y       z     vdW  Elec       q    Type
REMARK                         _______ _______ _______ _____ _____    ______ ____
ROOT
ATOM      1  C   UNL A   1      41.444 -15.500 -39.142  0.00  0.00    -0.037 C 
ENDROOT
BRANCH   1   2
ATOM      2  C   UNL A   1      42.658 -16.092 -39.857  0.00  0.00    +0.012 C 
BRANCH   2   5
ATOM      3  C   UNL A   1      44.924 -16.546 -39.002  0.00  0.00    +0.246 C 
ATOM      4  O   UNL A   1      45.442 -15.751 -39.783  0.00  0.00    -0.270 OA
ATOM      5  N   UNL A   1      43.560 -16.759 -38.938  0.00  0.00    -0.311 N 
ATOM      6  H   UNL A   1      43.195 -17.370 -38.258  0.00  0.00    +0.000 HD
BRANCH   3  12
ATOM      7  C   UNL A   1      46.688 -18.309 -38.647  0.00  0.00    +0.044 A 
ATOM      8  C   UNL A   1      47.469 -19.066 -37.760  0.00  0.00    -0.040 A 
ATOM      9  C   UNL A   1      47.365 -18.902 -36.377  0.00  0.00    -0.060 A 
ATOM     10  C   UNL A   1      46.479 -17.968 -35.849  0.00  0.00    -0.061 A 
ATOM     11  C   UNL A   1      45.690 -17.200 -36.704  0.00  0.00    -0.048 A 
ATOM     12  C   UNL A   1      45.777 -17.374 -38.097  0.00  0.00    +0.058 A 
BRANCH   7  13
ATOM     13  N   UNL A   1      46.791 -18.487 -40.043  0.00  0.00    -0.314 N 
ATOM     14  H   UNL A   1      47.498 -17.940 -40.456  0.00  0.00    +0.000 HD
BRANCH  13  20
ATOM     15  C   UNL A   1      46.243 -22.827 -42.475  0.00  0.00    -0.039 C 
ATOM     16  C   UNL A   1      45.817 -21.420 -42.152  0.00  0.00    -0.046 A 
ATOM     17  C   UNL A   1      44.686 -20.899 -42.799  0.00  0.00    -0.058 A 
ATOM     18  C   UNL A   1      44.255 -19.604 -42.540  0.00  0.00    -0.060 A 
ATOM     19  C   UNL A   1      44.953 -18.807 -41.634  0.00  0.00    -0.040 A 
ATOM     20  C   UNL A   1      46.089 -19.287 -40.968  0.00  0.00    +0.035 A 
ATOM     21  C   UNL A   1      46.507 -20.623 -41.205  0.00  0.00    -0.026 A 
ATOM     22  C   UNL A   1      47.716 -21.168 -40.480  0.00  0.00    -0.038 C 
ENDBRANCH  13  20
ENDBRANCH   7  13
ENDBRANCH   3  12
ENDBRANCH   2   5
ENDBRANCH   1   2
BRANCH   1  23
ATOM     23  C   UNL A   1      41.638 -15.398 -37.628  0.00  0.00    -0.052 C 
BRANCH  23  24
ATOM     24  C   UNL A   1      40.671 -16.270 -36.824  0.00  0.00    -0.053 C 
BRANCH  24  25
ATOM     25  C   UNL A   1      41.394 -17.493 -36.250  0.00  0.00    -0.053 C 
BRANCH  25  26
ATOM     26  C   UNL A   1      42.342 -17.134 -35.100  0.00  0.00    -0.052 C 
BRANCH  26  27
ATOM     27  C   UNL A   1      42.406 -18.199 -34.000  0.00  0.00    -0.037 C 
BRANCH  27  28
ATOM     28  C   UNL A   1      43.631 -19.109 -34.098  0.00  0.00    +0.009 C 
BRANCH  28  29
ATOM     29  N   UNL A   1      43.267 -20.535 -34.036  0.00  0.00    -0.343 N 
ATOM     30  H   UNL A   1      43.668 -21.156 -33.385  0.00  0.00    +0.000 HD
BRANCH  29  31
ATOM     31  C   UNL A   1      42.296 -20.948 -34.986  0.00  0.00    +0.041 A 
ATOM     32  C   UNL A   1      41.032 -21.380 -34.529  0.00  0.00    -0.005 A 
ATOM     33  C   UNL A   1      40.117 -21.835 -35.481  0.00  0.00    +0.047 A 
ATOM     34  N   UNL A   1      40.399 -21.913 -36.802  0.00  0.00    -0.251 NA
ATOM     35  C   UNL A   1      41.592 -21.491 -37.238  0.00  0.00    +0.073 A 
ATOM     36  C   UNL A   1      41.835 -21.560 -38.603  0.00  0.00    -0.036 A 
ATOM     37  C   UNL A   1      43.042 -21.139 -39.165  0.00  0.00    -0.060 A 
ATOM     38  C   UNL A   1      44.035 -20.634 -38.342  0.00  0.00    -0.061 A 
ATOM     39  C   UNL A   1      43.813 -20.557 -36.967  0.00  0.00    -0.051 A 
ATOM     40  C   UNL A   1      42.592 -20.988 -36.381  0.00  0.00    +0.021 A 
ATOM     41  C   UNL A   1      38.745 -22.325 -35.094  0.00  0.00    -0.010 C 
ATOM     42  C   UNL A   1      38.269 -21.784 -33.753  0.00  0.00    -0.047 C 
ATOM     43  C   UNL A   1      39.353 -21.983 -32.704  0.00  0.00    -0.049 C 
ATOM     44  C   UNL A   1      40.614 -21.209 -33.086  0.00  0.00    -0.024 C 
ENDBRANCH  29  31
ENDBRANCH  28  29
ENDBRANCH  27  28
ENDBRANCH  26  27
ENDBRANCH  25  26
ENDBRANCH  24  25
ENDBRANCH  23  24
ENDBRANCH   1  23
TORSDOF 13
ENDMDL
MODEL 10
REMARK VINA RESULT:    -6.883      2.261      8.272
REMARK INTER + INTRA:         -16.260
REMARK INTER:                 -11.723
REMARK INTRA:                  -4.536
REMARK UNBOUND:                -4.145
REMARK  Name = cpd25.pdb
REMARK  15 active torsions:
REMARK  status: ('A' for Active; 'I' for Inactive)
REMARK    1  A    between atoms: C_1  and  C_2
REMARK    2  A    between atoms: C_6  and  N_7
REMARK    3  A    between atoms: N_7  and  C_8
REMARK    4  A    between atoms: C_13  and  C_14
REMARK    5  A    between atoms: N_16  and  C_17
REMARK    6  A    between atoms: C_17  and  C_18
REMARK    7  A    between atoms: C_18  and  C_19
REMARK    8  A    between atoms: C_19  and  C_20
REMARK    9  A    between atoms: C_20  and  C_21
REMARK   10  A    between atoms: C_21  and  C_22
REMARK   11  A    between atoms: C_22  and  C_23
REMARK   12  A    between atoms: C_23  and  C_24
REMARK   13  A    between atoms: C_24  and  N_25
REMARK   14  A    between atoms: N_25  and  C_26
REMARK   15  A    between atoms: C_40  and  C_41
REMARK                            x       y       z     vdW  Elec       q    Type
REMARK                         _______ _______ _______ _____ _____    ______ ____
ROOT
ATOM      1  C   UNL A   1      45.758 -18.878 -36.363  0.00  0.00    -0.037 C 
ENDROOT
BRANCH   1   2
ATOM      2  C   UNL A   1      47.155 -19.129 -36.934  0.00  0.00    +0.012 C 
BRANCH   2   5
ATOM      3  C   UNL A   1      47.016 -19.778 -39.307  0.00  0.00    +0.246 C 
ATOM      4  O   UNL A   1      46.969 -18.609 -39.685  0.00  0.00    -0.270 OA
ATOM      5  N   UNL A   1      47.143 -20.135 -37.978  0.00  0.00    -0.311 N 
ATOM      6  H   UNL A   1      47.228 -21.086 -37.737  0.00  0.00    +0.000 HD
BRANCH   3  12
ATOM      7  C   UNL A   1      45.663 -21.091 -40.976  0.00  0.00    +0.044 A 
ATOM      8  C   UNL A   1      45.586 -22.150 -41.894  0.00  0.00    -0.040 A 
ATOM      9  C   UNL A   1      46.681 -22.982 -42.139  0.00  0.00    -0.060 A 
ATOM     10  C   UNL A   1      47.885 -22.765 -41.475  0.00  0.00    -0.061 A 
ATOM     11  C   UNL A   1      47.992 -21.721 -40.559  0.00  0.00    -0.048 A 
ATOM     12  C   UNL A   1      46.888 -20.892 -40.293  0.00  0.00    +0.058 A 
BRANCH   7  13
ATOM     13  N   UNL A   1      44.549 -20.262 -40.726  0.00  0.00    -0.314 N 
ATOM     14  H   UNL A   1      44.512 -19.470 -41.309  0.00  0.00    +0.000 HD
BRANCH  13  20
ATOM     15  C   UNL A   1      41.424 -18.014 -37.527  0.00  0.00    -0.039 C 
ATOM     16  C   UNL A   1      41.941 -19.228 -38.250  0.00  0.00    -0.046 A 
ATOM     17  C   UNL A   1      41.331 -20.466 -37.996  0.00  0.00    -0.058 A 
ATOM     18  C   UNL A   1      41.774 -21.619 -38.634  0.00  0.00    -0.060 A 
ATOM     19  C   UNL A   1      42.839 -21.551 -39.531  0.00  0.00    -0.040 A 
ATOM     20  C   UNL A   1      43.478 -20.335 -39.811  0.00  0.00    +0.035 A 
ATOM     21  C   UNL A   1      43.000 -19.153 -39.187  0.00  0.00    -0.026 A 
ATOM     22  C   UNL A   1      43.660 -17.827 -39.494  0.00  0.00    -0.038 C 
ENDBRANCH  13  20
ENDBRANCH   7  13
ENDBRANCH   3  12
ENDBRANCH   2   5
ENDBRANCH   1   2
BRANCH   1  23
ATOM     23  C   UNL A   1      44.964 -20.168 -36.151  0.00  0.00    -0.052 C 
BRANCH  23  24
ATOM     24  C   UNL A   1      43.747 -19.997 -35.239  0.00  0.00    -0.053 C 
BRANCH  24  25
ATOM     25  C   UNL A   1      44.183 -19.827 -33.780  0.00  0.00    -0.053 C 
BRANCH  25  26
ATOM     26  C   UNL A   1      43.512 -18.630 -33.098  0.00  0.00    -0.052 C 
BRANCH  26  27
ATOM     27  C   UNL A   1      42.330 -18.056 -33.887  0.00  0.00    -0.037 C 
BRANCH  27  28
ATOM     28  C   UNL A   1      41.309 -17.322 -33.016  0.00  0.00    +0.009 C 
BRANCH  28  29
ATOM     29  N   UNL A   1      40.223 -18.209 -32.568  0.00  0.00    -0.343 N 
ATOM     30  H   UNL A   1      39.826 -18.149 -31.669  0.00  0.00    +0.000 HD
BRANCH  29  31
ATOM     31  C   UNL A   1      39.790 -19.159 -33.530  0.00  0.00    +0.041 A 
ATOM     32  C   UNL A   1      38.999 -18.724 -34.615  0.00  0.00    -0.005 A 
ATOM     33  C   UNL A   1      38.539 -19.689 -35.515  0.00  0.00    +0.047 A 
ATOM     34  N   UNL A   1      38.786 -21.011 -35.372  0.00  0.00    -0.251 NA
ATOM     35  C   UNL A   1      39.546 -21.425 -34.351  0.00  0.00    +0.073 A 
ATOM     36  C   UNL A   1      39.801 -22.786 -34.253  0.00  0.00    -0.036 A 
ATOM     37  C   UNL A   1      40.588 -23.322 -33.233  0.00  0.00    -0.060 A 
ATOM     38  C   UNL A   1      41.139 -22.477 -32.283  0.00  0.00    -0.061 A 
ATOM     39  C   UNL A   1      40.895 -21.106 -32.362  0.00  0.00    -0.051 A 
ATOM     40  C   UNL A   1      40.090 -20.547 -33.391  0.00  0.00    +0.021 A 
ATOM     41  C   UNL A   1      37.682 -19.326 -36.700  0.00  0.00    -0.010 C 
ATOM     42  C   UNL A   1      37.829 -17.871 -37.126  0.00  0.00    -0.047 C 
ATOM     43  C   UNL A   1      37.685 -16.964 -35.915  0.00  0.00    -0.049 C 
ATOM     44  C   UNL A   1      38.787 -17.253 -34.896  0.00  0.00    -0.024 C 
ENDBRANCH  29  31
ENDBRANCH  28  29
ENDBRANCH  27  28
ENDBRANCH  26  27
ENDBRANCH  25  26
ENDBRANCH  24  25
ENDBRANCH  23  24
ENDBRANCH   1  23
TORSDOF 13
ENDMDL
MODEL 11
REMARK VINA RESULT:    -6.877      2.036      8.199
REMARK INTER + INTRA:         -16.248
REMARK INTER:                 -11.365
REMARK INTRA:                  -4.883
REMARK UNBOUND:                -4.145
REMARK  Name = cpd25.pdb
REMARK  15 active torsions:
REMARK  status: ('A' for Active; 'I' for Inactive)
REMARK    1  A    between atoms: C_1  and  C_2
REMARK    2  A    between atoms: C_6  and  N_7
REMARK    3  A    between atoms: N_7  and  C_8
REMARK    4  A    between atoms: C_13  and  C_14
REMARK    5  A    between atoms: N_16  and  C_17
REMARK    6  A    between atoms: C_17  and  C_18
REMARK    7  A    between atoms: C_18  and  C_19
REMARK    8  A    between atoms: C_19  and  C_20
REMARK    9  A    between atoms: C_20  and  C_21
REMARK   10  A    between atoms: C_21  and  C_22
REMARK   11  A    between atoms: C_22  and  C_23
REMARK   12  A    between atoms: C_23  and  C_24
REMARK   13  A    between atoms: C_24  and  N_25
REMARK   14  A    between atoms: N_25  and  C_26
REMARK   15  A    between atoms: C_40  and  C_41
REMARK                            x       y       z     vdW  Elec       q    Type
REMARK                         _______ _______ _______ _____ _____    ______ ____
ROOT
ATOM      1  C   UNL A   1      46.326 -16.618 -38.842  0.00  0.00    -0.037 C 
ENDROOT
BRANCH   1   2
ATOM      2  C   UNL A   1      46.452 -16.938 -40.332  0.00  0.00    +0.012 C 
BRANCH   2   5
ATOM      3  C   UNL A   1      46.217 -19.168 -41.353  0.00  0.00    +0.246 C 
ATOM      4  O   UNL A   1      45.191 -18.851 -41.952  0.00  0.00    -0.270 OA
ATOM      5  N   UNL A   1      46.929 -18.288 -40.560  0.00  0.00    -0.311 N 
ATOM      6  H   UNL A   1      47.772 -18.582 -40.145  0.00  0.00    +0.000 HD
BRANCH   3  12
ATOM      7  C   UNL A   1      45.824 -21.654 -41.271  0.00  0.00    +0.044 A 
ATOM      8  C   UNL A   1      46.343 -22.956 -41.343  0.00  0.00    -0.040 A 
ATOM      9  C   UNL A   1      47.702 -23.186 -41.568  0.00  0.00    -0.060 A 
ATOM     10  C   UNL A   1      48.574 -22.114 -41.733  0.00  0.00    -0.061 A 
ATOM     11  C   UNL A   1      48.088 -20.810 -41.668  0.00  0.00    -0.048 A 
ATOM     12  C   UNL A   1      46.724 -20.571 -41.423  0.00  0.00    +0.058 A 
BRANCH   7  13
ATOM     13  N   UNL A   1      44.451 -21.429 -41.034  0.00  0.00    -0.314 N 
ATOM     14  H   UNL A   1      43.914 -21.386 -41.857  0.00  0.00    +0.000 HD
BRANCH  13  20
ATOM     15  C   UNL A   1      40.051 -21.606 -38.655  0.00  0.00    -0.039 C 
ATOM     16  C   UNL A   1      41.534 -21.351 -38.692  0.00  0.00    -0.046 A 
ATOM     17  C   UNL A   1      42.168 -20.926 -37.515  0.00  0.00    -0.058 A 
ATOM     18  C   UNL A   1      43.534 -20.672 -37.498  0.00  0.00    -0.060 A 
ATOM     19  C   UNL A   1      44.285 -20.834 -38.661  0.00  0.00    -0.040 A 
ATOM     20  C   UNL A   1      43.691 -21.255 -39.859  0.00  0.00    +0.035 A 
ATOM     21  C   UNL A   1      42.302 -21.549 -39.865  0.00  0.00    -0.026 A 
ATOM     22  C   UNL A   1      41.646 -22.028 -41.140  0.00  0.00    -0.038 C 
ENDBRANCH  13  20
ENDBRANCH   7  13
ENDBRANCH   3  12
ENDBRANCH   2   5
ENDBRANCH   1   2
BRANCH   1  23
ATOM     23  C   UNL A   1      45.043 -17.176 -38.222  0.00  0.00    -0.052 C 
BRANCH  23  24
ATOM     24  C   UNL A   1      43.857 -17.206 -39.188  0.00  0.00    -0.053 C 
BRANCH  24  25
ATOM     25  C   UNL A   1      42.604 -16.626 -38.524  0.00  0.00    -0.053 C 
BRANCH  25  26
ATOM     26  C   UNL A   1      41.346 -17.454 -38.809  0.00  0.00    -0.052 C 
BRANCH  26  27
ATOM     27  C   UNL A   1      40.175 -17.138 -37.871  0.00  0.00    -0.037 C 
BRANCH  27  28
ATOM     28  C   UNL A   1      39.676 -18.348 -37.082  0.00  0.00    +0.009 C 
BRANCH  28  29
ATOM     29  N   UNL A   1      39.758 -18.134 -35.628  0.00  0.00    -0.343 N 
ATOM     30  H   UNL A   1      39.287 -17.398 -35.174  0.00  0.00    +0.000 HD
BRANCH  29  31
ATOM     31  C   UNL A   1      40.567 -19.068 -34.929  0.00  0.00    +0.041 A 
ATOM     32  C   UNL A   1      41.913 -18.741 -34.658  0.00  0.00    -0.005 A 
ATOM     33  C   UNL A   1      42.701 -19.701 -34.020  0.00  0.00    +0.047 A 
ATOM     34  N   UNL A   1      42.246 -20.931 -33.688  0.00  0.00    -0.251 NA
ATOM     35  C   UNL A   1      40.966 -21.238 -33.932  0.00  0.00    +0.073 A 
ATOM     36  C   UNL A   1      40.527 -22.499 -33.551  0.00  0.00    -0.036 A 
ATOM     37  C   UNL A   1      39.211 -22.919 -33.752  0.00  0.00    -0.060 A 
ATOM     38  C   UNL A   1      38.306 -22.057 -34.348  0.00  0.00    -0.061 A 
ATOM     39  C   UNL A   1      38.725 -20.786 -34.740  0.00  0.00    -0.051 A 
ATOM     40  C   UNL A   1      40.064 -20.348 -34.548  0.00  0.00    +0.021 A 
ATOM     41  C   UNL A   1      44.151 -19.451 -33.695  0.00  0.00    -0.010 C 
ATOM     42  C   UNL A   1      44.501 -17.972 -33.603  0.00  0.00    -0.047 C 
ATOM     43  C   UNL A   1      43.972 -17.242 -34.829  0.00  0.00    -0.049 C 
ATOM     44  C   UNL A   1      42.449 -17.346 -34.897  0.00  0.00    -0.024 C 
ENDBRANCH  29  31
ENDBRANCH  28  29
ENDBRANCH  27  28
ENDBRANCH  26  27
ENDBRANCH  25  26
ENDBRANCH  24  25
ENDBRANCH  23  24
ENDBRANCH   1  23
TORSDOF 13
ENDMDL
MODEL 12
REMARK VINA RESULT:    -6.819      1.489      4.671
REMARK INTER + INTRA:         -16.146
REMARK INTER:                 -11.807
REMARK INTRA:                  -4.339
REMARK UNBOUND:                -4.145
REMARK  Name = cpd25.pdb
REMARK  15 active torsions:
REMARK  status: ('A' for Active; 'I' for Inactive)
REMARK    1  A    between atoms: C_1  and  C_2
REMARK    2  A    between atoms: C_6  and  N_7
REMARK    3  A    between atoms: N_7  and  C_8
REMARK    4  A    between atoms: C_13  and  C_14
REMARK    5  A    between atoms: N_16  and  C_17
REMARK    6  A    between atoms: C_17  and  C_18
REMARK    7  A    between atoms: C_18  and  C_19
REMARK    8  A    between atoms: C_19  and  C_20
REMARK    9  A    between atoms: C_20  and  C_21
REMARK   10  A    between atoms: C_21  and  C_22
REMARK   11  A    between atoms: C_22  and  C_23
REMARK   12  A    between atoms: C_23  and  C_24
REMARK   13  A    between atoms: C_24  and  N_25
REMARK   14  A    between atoms: N_25  and  C_26
REMARK   15  A    between atoms: C_40  and  C_41
REMARK                            x       y       z     vdW  Elec       q    Type
REMARK                         _______ _______ _______ _____ _____    ______ ____
ROOT
ATOM      1  C   UNL A   1      42.647 -16.372 -34.430  0.00  0.00    -0.037 C 
ENDROOT
BRANCH   1   2
ATOM      2  C   UNL A   1      42.221 -16.950 -33.079  0.00  0.00    +0.012 C 
BRANCH   2   5
ATOM      3  C   UNL A   1      41.238 -19.209 -33.140  0.00  0.00    +0.246 C 
ATOM      4  O   UNL A   1      42.319 -19.750 -32.918  0.00  0.00    -0.270 OA
ATOM      5  N   UNL A   1      41.080 -17.837 -33.203  0.00  0.00    -0.311 N 
ATOM      6  H   UNL A   1      40.182 -17.457 -33.333  0.00  0.00    +0.000 HD
BRANCH   3  12
ATOM      7  C   UNL A   1      40.054 -21.030 -34.415  0.00  0.00    +0.044 A 
ATOM      8  C   UNL A   1      38.891 -21.785 -34.630  0.00  0.00    -0.040 A 
ATOM      9  C   UNL A   1      37.738 -21.578 -33.870  0.00  0.00    -0.060 A 
ATOM     10  C   UNL A   1      37.726 -20.613 -32.868  0.00  0.00    -0.061 A 
ATOM     11  C   UNL A   1      38.866 -19.847 -32.630  0.00  0.00    -0.048 A 
ATOM     12  C   UNL A   1      40.024 -20.038 -33.404  0.00  0.00    +0.058 A 
BRANCH   7  13
ATOM     13  N   UNL A   1      41.213 -21.238 -35.194  0.00  0.00    -0.314 N 
ATOM     14  H   UNL A   1      41.824 -21.908 -34.814  0.00  0.00    +0.000 HD
BRANCH  13  20
ATOM     15  C   UNL A   1      41.598 -21.434 -40.180  0.00  0.00    -0.039 C 
ATOM     16  C   UNL A   1      41.852 -20.774 -38.851  0.00  0.00    -0.046 A 
ATOM     17  C   UNL A   1      42.571 -19.570 -38.830  0.00  0.00    -0.058 A 
ATOM     18  C   UNL A   1      42.837 -18.925 -37.628  0.00  0.00    -0.060 A 
ATOM     19  C   UNL A   1      42.392 -19.478 -36.429  0.00  0.00    -0.040 A 
ATOM     20  C   UNL A   1      41.673 -20.681 -36.405  0.00  0.00    +0.035 A 
ATOM     21  C   UNL A   1      41.370 -21.320 -37.636  0.00  0.00    -0.026 A 
ATOM     22  C   UNL A   1      40.574 -22.605 -37.635  0.00  0.00    -0.038 C 
ENDBRANCH  13  20
ENDBRANCH   7  13
ENDBRANCH   3  12
ENDBRANCH   2   5
ENDBRANCH   1   2
BRANCH   1  23
ATOM     23  C   UNL A   1      44.162 -16.406 -34.639  0.00  0.00    -0.052 C 
BRANCH  23  24
ATOM     24  C   UNL A   1      44.872 -17.479 -33.810  0.00  0.00    -0.053 C 
BRANCH  24  25
ATOM     25  C   UNL A   1      45.363 -18.619 -34.707  0.00  0.00    -0.053 C 
BRANCH  25  26
ATOM     26  C   UNL A   1      46.540 -18.206 -35.598  0.00  0.00    -0.052 C 
BRANCH  26  27
ATOM     27  C   UNL A   1      47.243 -19.387 -36.276  0.00  0.00    -0.037 C 
BRANCH  27  28
ATOM     28  C   UNL A   1      46.558 -19.855 -37.560  0.00  0.00    +0.009 C 
BRANCH  28  29
ATOM     29  N   UNL A   1      47.112 -19.197 -38.755  0.00  0.00    -0.343 N 
ATOM     30  H   UNL A   1      48.071 -18.997 -38.852  0.00  0.00    +0.000 HD
BRANCH  29  31
ATOM     31  C   UNL A   1      46.160 -18.873 -39.757  0.00  0.00    +0.041 A 
ATOM     32  C   UNL A   1      45.889 -19.813 -40.774  0.00  0.00    -0.005 A 
ATOM     33  C   UNL A   1      44.990 -19.444 -41.779  0.00  0.00    +0.047 A 
ATOM     34  N   UNL A   1      44.404 -18.227 -41.838  0.00  0.00    -0.251 NA
ATOM     35  C   UNL A   1      44.650 -17.339 -40.867  0.00  0.00    +0.073 A 
ATOM     36  C   UNL A   1      44.009 -16.110 -40.946  0.00  0.00    -0.036 A 
ATOM     37  C   UNL A   1      44.188 -15.116 -39.983  0.00  0.00    -0.060 A 
ATOM     38  C   UNL A   1      45.030 -15.353 -38.909  0.00  0.00    -0.061 A 
ATOM     39  C   UNL A   1      45.685 -16.580 -38.810  0.00  0.00    -0.051 A 
ATOM     40  C   UNL A   1      45.518 -17.599 -39.787  0.00  0.00    +0.021 A 
ATOM     41  C   UNL A   1      44.642 -20.373 -42.913  0.00  0.00    -0.010 C 
ATOM     42  C   UNL A   1      44.884 -21.841 -42.584  0.00  0.00    -0.047 C 
ATOM     43  C   UNL A   1      46.279 -22.014 -42.004  0.00  0.00    -0.049 C 
ATOM     44  C   UNL A   1      46.418 -21.228 -40.701  0.00  0.00    -0.024 C 
ENDBRANCH  29  31
ENDBRANCH  28  29
ENDBRANCH  27  28
ENDBRANCH  26  27
ENDBRANCH  25  26
ENDBRANCH  24  25
ENDBRANCH  23  24
ENDBRANCH   1  23
TORSDOF 13
ENDMDL
MODEL 13
REMARK VINA RESULT:    -6.764      2.379      7.660
REMARK INTER + INTRA:         -16.049
REMARK INTER:                 -11.553
REMARK INTRA:                  -4.497
REMARK UNBOUND:                -4.145
REMARK  Name = cpd25.pdb
REMARK  15 active torsions:
REMARK  status: ('A' for Active; 'I' for Inactive)
REMARK    1  A    between atoms: C_1  and  C_2
REMARK    2  A    between atoms: C_6  and  N_7
REMARK    3  A    between atoms: N_7  and  C_8
REMARK    4  A    between atoms: C_13  and  C_14
REMARK    5  A    between atoms: N_16  and  C_17
REMARK    6  A    between atoms: C_17  and  C_18
REMARK    7  A    between atoms: C_18  and  C_19
REMARK    8  A    between atoms: C_19  and  C_20
REMARK    9  A    between atoms: C_20  and  C_21
REMARK   10  A    between atoms: C_21  and  C_22
REMARK   11  A    between atoms: C_22  and  C_23
REMARK   12  A    between atoms: C_23  and  C_24
REMARK   13  A    between atoms: C_24  and  N_25
REMARK   14  A    between atoms: N_25  and  C_26
REMARK   15  A    between atoms: C_40  and  C_41
REMARK                            x       y       z     vdW  Elec       q    Type
REMARK                         _______ _______ _______ _____ _____    ______ ____
ROOT
ATOM      1  C   UNL A   1      41.633 -15.646 -39.034  0.00  0.00    -0.037 C 
ENDROOT
BRANCH   1   2
ATOM      2  C   UNL A   1      43.158 -15.634 -39.160  0.00  0.00    +0.012 C 
BRANCH   2   5
ATOM      3  C   UNL A   1      45.169 -16.536 -38.058  0.00  0.00    +0.246 C 
ATOM      4  O   UNL A   1      45.923 -15.838 -38.732  0.00  0.00    -0.270 OA
ATOM      5  N   UNL A   1      43.792 -16.482 -38.169  0.00  0.00    -0.311 N 
ATOM      6  H   UNL A   1      43.235 -17.027 -37.568  0.00  0.00    +0.000 HD
BRANCH   3  12
ATOM      7  C   UNL A   1      46.472 -18.637 -37.577  0.00  0.00    +0.044 A 
ATOM      8  C   UNL A   1      46.978 -19.549 -36.638  0.00  0.00    -0.040 A 
ATOM      9  C   UNL A   1      46.766 -19.376 -35.268  0.00  0.00    -0.060 A 
ATOM     10  C   UNL A   1      46.047 -18.278 -34.806  0.00  0.00    -0.061 A 
ATOM     11  C   UNL A   1      45.533 -17.354 -35.714  0.00  0.00    -0.048 A 
ATOM     12  C   UNL A   1      45.727 -17.532 -37.095  0.00  0.00    +0.058 A 
BRANCH   7  13
ATOM     13  N   UNL A   1      46.681 -18.823 -38.960  0.00  0.00    -0.314 N 
ATOM     14  H   UNL A   1      47.196 -18.097 -39.380  0.00  0.00    +0.000 HD
BRANCH  13  20
ATOM     15  C   UNL A   1      44.409 -20.225 -43.194  0.00  0.00    -0.039 C 
ATOM     16  C   UNL A   1      45.198 -20.521 -41.946  0.00  0.00    -0.046 A 
ATOM     17  C   UNL A   1      45.561 -21.851 -41.685  0.00  0.00    -0.058 A 
ATOM     18  C   UNL A   1      46.284 -22.177 -40.544  0.00  0.00    -0.060 A 
ATOM     19  C   UNL A   1      46.649 -21.178 -39.644  0.00  0.00    -0.040 A 
ATOM     20  C   UNL A   1      46.304 -19.837 -39.865  0.00  0.00    +0.035 A 
ATOM     21  C   UNL A   1      45.598 -19.501 -41.049  0.00  0.00    -0.026 A 
ATOM     22  C   UNL A   1      45.237 -18.057 -41.319  0.00  0.00    -0.038 C 
ENDBRANCH  13  20
ENDBRANCH   7  13
ENDBRANCH   3  12
ENDBRANCH   2   5
ENDBRANCH   1   2
BRANCH   1  23
ATOM     23  C   UNL A   1      41.022 -17.008 -39.368  0.00  0.00    -0.052 C 
BRANCH  23  24
ATOM     24  C   UNL A   1      39.524 -17.099 -39.067  0.00  0.00    -0.053 C 
BRANCH  24  25
ATOM     25  C   UNL A   1      39.258 -16.888 -37.573  0.00  0.00    -0.053 C 
BRANCH  25  26
ATOM     26  C   UNL A   1      39.457 -18.166 -36.751  0.00  0.00    -0.052 C 
BRANCH  26  27
ATOM     27  C   UNL A   1      40.275 -17.953 -35.472  0.00  0.00    -0.037 C 
BRANCH  27  28
ATOM     28  C   UNL A   1      41.786 -17.977 -35.698  0.00  0.00    +0.009 C 
BRANCH  28  29
ATOM     29  N   UNL A   1      42.416 -19.173 -35.114  0.00  0.00    -0.343 N 
ATOM     30  H   UNL A   1      43.145 -19.119 -34.455  0.00  0.00    +0.000 HD
BRANCH  29  31
ATOM     31  C   UNL A   1      41.891 -20.410 -35.572  0.00  0.00    +0.041 A 
ATOM     32  C   UNL A   1      42.026 -20.749 -36.935  0.00  0.00    -0.005 A 
ATOM     33  C   UNL A   1      41.450 -21.946 -37.369  0.00  0.00    +0.047 A 
ATOM     34  N   UNL A   1      40.746 -22.766 -36.556  0.00  0.00    -0.251 NA
ATOM     35  C   UNL A   1      40.628 -22.453 -35.260  0.00  0.00    +0.073 A 
ATOM     36  C   UNL A   1      39.922 -23.332 -34.450  0.00  0.00    -0.036 A 
ATOM     37  C   UNL A   1      39.746 -23.106 -33.084  0.00  0.00    -0.060 A 
ATOM     38  C   UNL A   1      40.291 -21.970 -32.508  0.00  0.00    -0.061 A 
ATOM     39  C   UNL A   1      41.003 -21.072 -33.302  0.00  0.00    -0.051 A 
ATOM     40  C   UNL A   1      41.184 -21.286 -34.695  0.00  0.00    +0.021 A 
ATOM     41  C   UNL A   1      41.532 -22.392 -38.806  0.00  0.00    -0.010 C 
ATOM     42  C   UNL A   1      42.697 -21.769 -39.564  0.00  0.00    -0.047 C 
ATOM     43  C   UNL A   1      42.704 -20.264 -39.347  0.00  0.00    -0.049 C 
ATOM     44  C   UNL A   1      42.899 -19.938 -37.867  0.00  0.00    -0.024 C 
ENDBRANCH  29  31
ENDBRANCH  28  29
ENDBRANCH  27  28
ENDBRANCH  26  27
ENDBRANCH  25  26
ENDBRANCH  24  25
ENDBRANCH  23  24
ENDBRANCH   1  23
TORSDOF 13
ENDMDL
MODEL 14
REMARK VINA RESULT:    -6.673      2.090      7.465
REMARK INTER + INTRA:         -15.890
REMARK INTER:                 -10.466
REMARK INTRA:                  -5.425
REMARK UNBOUND:                -4.145
REMARK  Name = cpd25.pdb
REMARK  15 active torsions:
REMARK  status: ('A' for Active; 'I' for Inactive)
REMARK    1  A    between atoms: C_1  and  C_2
REMARK    2  A    between atoms: C_6  and  N_7
REMARK    3  A    between atoms: N_7  and  C_8
REMARK    4  A    between atoms: C_13  and  C_14
REMARK    5  A    between atoms: N_16  and  C_17
REMARK    6  A    between atoms: C_17  and  C_18
REMARK    7  A    between atoms: C_18  and  C_19
REMARK    8  A    between atoms: C_19  and  C_20
REMARK    9  A    between atoms: C_20  and  C_21
REMARK   10  A    between atoms: C_21  and  C_22
REMARK   11  A    between atoms: C_22  and  C_23
REMARK   12  A    between atoms: C_23  and  C_24
REMARK   13  A    between atoms: C_24  and  N_25
REMARK   14  A    between atoms: N_25  and  C_26
REMARK   15  A    between atoms: C_40  and  C_41
REMARK                            x       y       z     vdW  Elec       q    Type
REMARK                         _______ _______ _______ _____ _____    ______ ____
ROOT
ATOM      1  C   UNL A   1      43.439 -15.249 -39.475  0.00  0.00    -0.037 C 
ENDROOT
BRANCH   1   2
ATOM      2  C   UNL A   1      44.458 -15.669 -40.535  0.00  0.00    +0.012 C 
BRANCH   2   5
ATOM      3  C   UNL A   1      45.743 -17.771 -40.526  0.00  0.00    +0.246 C 
ATOM      4  O   UNL A   1      46.787 -17.201 -40.216  0.00  0.00    -0.270 OA
ATOM      5  N   UNL A   1      44.538 -17.110 -40.672  0.00  0.00    -0.311 N 
ATOM      6  H   UNL A   1      43.723 -17.625 -40.872  0.00  0.00    +0.000 HD
BRANCH   3  12
ATOM      7  C   UNL A   1      46.125 -20.151 -39.797  0.00  0.00    +0.044 A 
ATOM      8  C   UNL A   1      46.112 -21.520 -40.107  0.00  0.00    -0.040 A 
ATOM      9  C   UNL A   1      45.729 -21.977 -41.370  0.00  0.00    -0.060 A 
ATOM     10  C   UNL A   1      45.340 -21.070 -42.352  0.00  0.00    -0.061 A 
ATOM     11  C   UNL A   1      45.341 -19.705 -42.074  0.00  0.00    -0.048 A 
ATOM     12  C   UNL A   1      45.744 -19.238 -40.810  0.00  0.00    +0.058 A 
BRANCH   7  13
ATOM     13  N   UNL A   1      46.523 -19.697 -38.521  0.00  0.00    -0.314 N 
ATOM     14  H   UNL A   1      47.463 -19.407 -38.485  0.00  0.00    +0.000 HD
BRANCH  13  20
ATOM     15  C   UNL A   1      45.841 -17.301 -34.181  0.00  0.00    -0.039 C 
ATOM     16  C   UNL A   1      45.511 -18.391 -35.165  0.00  0.00    -0.046 A 
ATOM     17  C   UNL A   1      44.502 -19.308 -34.832  0.00  0.00    -0.058 A 
ATOM     18  C   UNL A   1      44.164 -20.336 -35.703  0.00  0.00    -0.060 A 
ATOM     19  C   UNL A   1      44.835 -20.466 -36.918  0.00  0.00    -0.040 A 
ATOM     20  C   UNL A   1      45.850 -19.574 -37.288  0.00  0.00    +0.035 A 
ATOM     21  C   UNL A   1      46.169 -18.502 -36.414  0.00  0.00    -0.026 A 
ATOM     22  C   UNL A   1      47.245 -17.514 -36.804  0.00  0.00    -0.038 C 
ENDBRANCH  13  20
ENDBRANCH   7  13
ENDBRANCH   3  12
ENDBRANCH   2   5
ENDBRANCH   1   2
BRANCH   1  23
ATOM     23  C   UNL A   1      44.077 -14.504 -38.301  0.00  0.00    -0.052 C 
BRANCH  23  24
ATOM     24  C   UNL A   1      43.995 -15.263 -36.975  0.00  0.00    -0.053 C 
BRANCH  24  25
ATOM     25  C   UNL A   1      43.033 -16.449 -37.089  0.00  0.00    -0.053 C 
BRANCH  25  26
ATOM     26  C   UNL A   1      41.828 -16.326 -36.149  0.00  0.00    -0.052 C 
BRANCH  26  27
ATOM     27  C   UNL A   1      41.899 -17.255 -34.932  0.00  0.00    -0.037 C 
BRANCH  27  28
ATOM     28  C   UNL A   1      40.669 -18.147 -34.767  0.00  0.00    +0.009 C 
BRANCH  28  29
ATOM     29  N   UNL A   1      40.099 -18.550 -36.064  0.00  0.00    -0.343 N 
ATOM     30  H   UNL A   1      39.631 -17.917 -36.656  0.00  0.00    +0.000 HD
BRANCH  29  31
ATOM     31  C   UNL A   1      40.276 -19.918 -36.397  0.00  0.00    +0.041 A 
ATOM     32  C   UNL A   1      39.746 -20.907 -35.540  0.00  0.00    -0.005 A 
ATOM     33  C   UNL A   1      39.985 -22.245 -35.862  0.00  0.00    +0.047 A 
ATOM     34  N   UNL A   1      40.723 -22.629 -36.928  0.00  0.00    -0.251 NA
ATOM     35  C   UNL A   1      41.215 -21.694 -37.750  0.00  0.00    +0.073 A 
ATOM     36  C   UNL A   1      41.945 -22.127 -38.849  0.00  0.00    -0.036 A 
ATOM     37  C   UNL A   1      42.495 -21.237 -39.772  0.00  0.00    -0.060 A 
ATOM     38  C   UNL A   1      42.312 -19.876 -39.597  0.00  0.00    -0.061 A 
ATOM     39  C   UNL A   1      41.584 -19.418 -38.499  0.00  0.00    -0.051 A 
ATOM     40  C   UNL A   1      41.024 -20.312 -37.547  0.00  0.00    +0.021 A 
ATOM     41  C   UNL A   1      39.469 -23.372 -35.006  0.00  0.00    -0.010 C 
ATOM     42  C   UNL A   1      38.273 -22.979 -34.149  0.00  0.00    -0.047 C 
ATOM     43  C   UNL A   1      38.574 -21.684 -33.410  0.00  0.00    -0.049 C 
ATOM     44  C   UNL A   1      38.816 -20.547 -34.402  0.00  0.00    -0.024 C 
ENDBRANCH  29  31
ENDBRANCH  28  29
ENDBRANCH  27  28
ENDBRANCH  26  27
ENDBRANCH  25  26
ENDBRANCH  24  25
ENDBRANCH  23  24
ENDBRANCH   1  23
TORSDOF 13
ENDMDL
MODEL 15
REMARK VINA RESULT:    -6.661     17.564     22.721
REMARK INTER + INTRA:         -15.867
REMARK INTER:                 -10.889
REMARK INTRA:                  -4.978
REMARK UNBOUND:                -4.145
REMARK  Name = cpd25.pdb
REMARK  15 active torsions:
REMARK  status: ('A' for Active; 'I' for Inactive)
REMARK    1  A    between atoms: C_1  and  C_2
REMARK    2  A    between atoms: C_6  and  N_7
REMARK    3  A    between atoms: N_7  and  C_8
REMARK    4  A    between atoms: C_13  and  C_14
REMARK    5  A    between atoms: N_16  and  C_17
REMARK    6  A    between atoms: C_17  and  C_18
REMARK    7  A    between atoms: C_18  and  C_19
REMARK    8  A    between atoms: C_19  and  C_20
REMARK    9  A    between atoms: C_20  and  C_21
REMARK   10  A    between atoms: C_21  and  C_22
REMARK   11  A    between atoms: C_22  and  C_23
REMARK   12  A    between atoms: C_23  and  C_24
REMARK   13  A    between atoms: C_24  and  N_25
REMARK   14  A    between atoms: N_25  and  C_26
REMARK   15  A    between atoms: C_40  and  C_41
REMARK                            x       y       z     vdW  Elec       q    Type
REMARK                         _______ _______ _______ _____ _____    ______ ____
ROOT
ATOM      1  C   UNL A   1      30.478 -37.922 -32.079  0.00  0.00    -0.037 C 
ENDROOT
BRANCH   1   2
ATOM      2  C   UNL A   1      30.829 -36.797 -33.054  0.00  0.00    +0.012 C 
BRANCH   2   5
ATOM      3  C   UNL A   1      32.617 -35.127 -32.764  0.00  0.00    +0.246 C 
ATOM      4  O   UNL A   1      33.254 -35.556 -33.724  0.00  0.00    -0.270 OA
ATOM      5  N   UNL A   1      31.397 -35.648 -32.377  0.00  0.00    -0.311 N 
ATOM      6  H   UNL A   1      30.906 -35.232 -31.632  0.00  0.00    +0.000 HD
BRANCH   3  12
ATOM      7  C   UNL A   1      34.516 -34.089 -31.476  0.00  0.00    +0.044 A 
ATOM      8  C   UNL A   1      34.999 -33.032 -30.689  0.00  0.00    -0.040 A 
ATOM      9  C   UNL A   1      34.191 -31.941 -30.361  0.00  0.00    -0.060 A 
ATOM     10  C   UNL A   1      32.879 -31.881 -30.822  0.00  0.00    -0.061 A 
ATOM     11  C   UNL A   1      32.372 -32.915 -31.606  0.00  0.00    -0.048 A 
ATOM     12  C   UNL A   1      33.175 -34.024 -31.924  0.00  0.00    +0.058 A 
BRANCH   7  13
ATOM     13  N   UNL A   1      35.336 -35.193 -31.795  0.00  0.00    -0.314 N 
ATOM     14  H   UNL A   1      35.041 -35.681 -32.598  0.00  0.00    +0.000 HD
BRANCH  13  20
ATOM     15  C   UNL A   1      37.516 -37.611 -27.994  0.00  0.00    -0.039 C 
ATOM     16  C   UNL A   1      37.555 -36.936 -29.338  0.00  0.00    -0.046 A 
ATOM     17  C   UNL A   1      38.785 -36.853 -30.008  0.00  0.00    -0.058 A 
ATOM     18  C   UNL A   1      38.876 -36.235 -31.249  0.00  0.00    -0.060 A 
ATOM     19  C   UNL A   1      37.738 -35.683 -31.836  0.00  0.00    -0.040 A 
ATOM     20  C   UNL A   1      36.491 -35.741 -31.199  0.00  0.00    +0.035 A 
ATOM     21  C   UNL A   1      36.392 -36.406 -29.949  0.00  0.00    -0.026 A 
ATOM     22  C   UNL A   1      35.052 -36.501 -29.256  0.00  0.00    -0.038 C 
ENDBRANCH  13  20
ENDBRANCH   7  13
ENDBRANCH   3  12
ENDBRANCH   2   5
ENDBRANCH   1   2
BRANCH   1  23
ATOM     23  C   UNL A   1      31.244 -39.215 -32.365  0.00  0.00    -0.052 C 
BRANCH  23  24
ATOM     24  C   UNL A   1      32.692 -38.987 -32.805  0.00  0.00    -0.053 C 
BRANCH  24  25
ATOM     25  C   UNL A   1      33.594 -38.740 -31.592  0.00  0.00    -0.053 C 
BRANCH  25  26
ATOM     26  C   UNL A   1      34.989 -39.354 -31.758  0.00  0.00    -0.052 C 
BRANCH  26  27
ATOM     27  C   UNL A   1      35.207 -40.619 -30.919  0.00  0.00    -0.037 C 
BRANCH  27  28
ATOM     28  C   UNL A   1      35.506 -40.335 -29.447  0.00  0.00    +0.009 C 
BRANCH  28  29
ATOM     29  N   UNL A   1      34.592 -41.057 -28.547  0.00  0.00    -0.343 N 
ATOM     30  H   UNL A   1      34.809 -41.941 -28.169  0.00  0.00    +0.000 HD
BRANCH  29  31
ATOM     31  C   UNL A   1      33.375 -40.384 -28.263  0.00  0.00    +0.041 A 
ATOM     32  C   UNL A   1      32.195 -40.796 -28.919  0.00  0.00    -0.005 A 
ATOM     33  C   UNL A   1      31.023 -40.079 -28.664  0.00  0.00    +0.047 A 
ATOM     34  N   UNL A   1      30.979 -38.997 -27.853  0.00  0.00    -0.251 NA
ATOM     35  C   UNL A   1      32.094 -38.613 -27.220  0.00  0.00    +0.073 A 
ATOM     36  C   UNL A   1      32.004 -37.516 -26.374  0.00  0.00    -0.036 A 
ATOM     37  C   UNL A   1      33.103 -37.037 -25.659  0.00  0.00    -0.060 A 
ATOM     38  C   UNL A   1      34.328 -37.671 -25.790  0.00  0.00    -0.061 A 
ATOM     39  C   UNL A   1      34.442 -38.774 -26.636  0.00  0.00    -0.051 A 
ATOM     40  C   UNL A   1      33.333 -39.268 -27.374  0.00  0.00    +0.021 A 
ATOM     41  C   UNL A   1      29.715 -40.435 -29.321  0.00  0.00    -0.010 C 
ATOM     42  C   UNL A   1      29.655 -41.880 -29.800  0.00  0.00    -0.047 C 
ATOM     43  C   UNL A   1      30.901 -42.205 -30.608  0.00  0.00    -0.049 C 
ATOM     44  C   UNL A   1      32.153 -42.065 -29.743  0.00  0.00    -0.024 C 
ENDBRANCH  29  31
ENDBRANCH  28  29
ENDBRANCH  27  28
ENDBRANCH  26  27
ENDBRANCH  25  26
ENDBRANCH  24  25
ENDBRANCH  23  24
ENDBRANCH   1  23
TORSDOF 13
ENDMDL
MODEL 16
REMARK VINA RESULT:    -6.606      2.404      8.588
REMARK INTER + INTRA:         -15.772
REMARK INTER:                 -11.120
REMARK INTRA:                  -4.652
REMARK UNBOUND:                -4.145
REMARK  Name = cpd25.pdb
REMARK  15 active torsions:
REMARK  status: ('A' for Active; 'I' for Inactive)
REMARK    1  A    between atoms: C_1  and  C_2
REMARK    2  A    between atoms: C_6  and  N_7
REMARK    3  A    between atoms: N_7  and  C_8
REMARK    4  A    between atoms: C_13  and  C_14
REMARK    5  A    between atoms: N_16  and  C_17
REMARK    6  A    between atoms: C_17  and  C_18
REMARK    7  A    between atoms: C_18  and  C_19
REMARK    8  A    between atoms: C_19  and  C_20
REMARK    9  A    between atoms: C_20  and  C_21
REMARK   10  A    between atoms: C_21  and  C_22
REMARK   11  A    between atoms: C_22  and  C_23
REMARK   12  A    between atoms: C_23  and  C_24
REMARK   13  A    between atoms: C_24  and  N_25
REMARK   14  A    between atoms: N_25  and  C_26
REMARK   15  A    between atoms: C_40  and  C_41
REMARK                            x       y       z     vdW  Elec       q    Type
REMARK                         _______ _______ _______ _____ _____    ______ ____
ROOT
ATOM      1  C   UNL A   1      46.446 -16.331 -37.661  0.00  0.00    -0.037 C 
ENDROOT
BRANCH   1   2
ATOM      2  C   UNL A   1      47.174 -17.465 -38.385  0.00  0.00    +0.012 C 
BRANCH   2   5
ATOM      3  C   UNL A   1      46.309 -19.552 -39.368  0.00  0.00    +0.246 C 
ATOM      4  O   UNL A   1      46.990 -20.255 -38.625  0.00  0.00    -0.270 OA
ATOM      5  N   UNL A   1      46.302 -18.171 -39.304  0.00  0.00    -0.311 N 
ATOM      6  H   UNL A   1      45.698 -17.661 -39.889  0.00  0.00    +0.000 HD
BRANCH   3  12
ATOM      7  C   UNL A   1      44.244 -20.799 -40.090  0.00  0.00    +0.044 A 
ATOM      8  C   UNL A   1      43.487 -21.376 -41.122  0.00  0.00    -0.040 A 
ATOM      9  C   UNL A   1      43.918 -21.337 -42.450  0.00  0.00    -0.060 A 
ATOM     10  C   UNL A   1      45.116 -20.709 -42.777  0.00  0.00    -0.061 A 
ATOM     11  C   UNL A   1      45.889 -20.126 -41.775  0.00  0.00    -0.048 A 
ATOM     12  C   UNL A   1      45.469 -20.179 -40.433  0.00  0.00    +0.058 A 
BRANCH   7  13
ATOM     13  N   UNL A   1      43.807 -20.852 -38.749  0.00  0.00    -0.314 N 
ATOM     14  H   UNL A   1      44.544 -20.859 -38.098  0.00  0.00    +0.000 HD
BRANCH  13  20
ATOM     15  C   UNL A   1      39.946 -18.502 -36.599  0.00  0.00    -0.039 C 
ATOM     16  C   UNL A   1      40.634 -19.740 -37.107  0.00  0.00    -0.046 A 
ATOM     17  C   UNL A   1      39.975 -20.972 -36.975  0.00  0.00    -0.058 A 
ATOM     18  C   UNL A   1      40.569 -22.145 -37.423  0.00  0.00    -0.060 A 
ATOM     19  C   UNL A   1      41.835 -22.105 -38.004  0.00  0.00    -0.040 A 
ATOM     20  C   UNL A   1      42.530 -20.897 -38.152  0.00  0.00    +0.035 A 
ATOM     21  C   UNL A   1      41.906 -19.694 -37.729  0.00  0.00    -0.026 A 
ATOM     22  C   UNL A   1      42.627 -18.377 -37.902  0.00  0.00    -0.038 C 
ENDBRANCH  13  20
ENDBRANCH   7  13
ENDBRANCH   3  12
ENDBRANCH   2   5
ENDBRANCH   1   2
BRANCH   1  23
ATOM     23  C   UNL A   1      45.989 -16.721 -36.254  0.00  0.00    -0.052 C 
BRANCH  23  24
ATOM     24  C   UNL A   1      46.889 -17.761 -35.583  0.00  0.00    -0.053 C 
BRANCH  24  25
ATOM     25  C   UNL A   1      46.067 -18.687 -34.681  0.00  0.00    -0.053 C 
BRANCH  25  26
ATOM     26  C   UNL A   1      45.185 -19.656 -35.477  0.00  0.00    -0.052 C 
BRANCH  26  27
ATOM     27  C   UNL A   1      43.941 -20.124 -34.713  0.00  0.00    -0.037 C 
BRANCH  27  28
ATOM     28  C   UNL A   1      43.220 -19.001 -33.968  0.00  0.00    +0.009 C 
BRANCH  28  29
ATOM     29  N   UNL A   1      42.475 -19.500 -32.800  0.00  0.00    -0.343 N 
ATOM     30  H   UNL A   1      42.924 -19.818 -31.982  0.00  0.00    +0.000 HD
BRANCH  29  31
ATOM     31  C   UNL A   1      41.063 -19.489 -32.939  0.00  0.00    +0.041 A 
ATOM     32  C   UNL A   1      40.396 -20.691 -33.259  0.00  0.00    -0.005 A 
ATOM     33  C   UNL A   1      39.013 -20.639 -33.446  0.00  0.00    +0.047 A 
ATOM     34  N   UNL A   1      38.298 -19.493 -33.372  0.00  0.00    -0.251 NA
ATOM     35  C   UNL A   1      38.927 -18.354 -33.056  0.00  0.00    +0.073 A 
ATOM     36  C   UNL A   1      38.156 -17.203 -32.962  0.00  0.00    -0.036 A 
ATOM     37  C   UNL A   1      38.709 -15.965 -32.631  0.00  0.00    -0.060 A 
ATOM     38  C   UNL A   1      40.069 -15.871 -32.386  0.00  0.00    -0.061 A 
ATOM     39  C   UNL A   1      40.863 -17.014 -32.477  0.00  0.00    -0.051 A 
ATOM     40  C   UNL A   1      40.314 -18.280 -32.820  0.00  0.00    +0.021 A 
ATOM     41  C   UNL A   1      38.212 -21.866 -33.799  0.00  0.00    -0.010 C 
ATOM     42  C   UNL A   1      38.894 -23.166 -33.395  0.00  0.00    -0.047 C 
ATOM     43  C   UNL A   1      40.334 -23.165 -33.885  0.00  0.00    -0.049 C 
ATOM     44  C   UNL A   1      41.117 -22.021 -33.240  0.00  0.00    -0.024 C 
ENDBRANCH  29  31
ENDBRANCH  28  29
ENDBRANCH  27  28
ENDBRANCH  26  27
ENDBRANCH  25  26
ENDBRANCH  24  25
ENDBRANCH  23  24
ENDBRANCH   1  23
TORSDOF 13
ENDMDL
MODEL 17
REMARK VINA RESULT:    -6.594      2.312      4.818
REMARK INTER + INTRA:         -15.751
REMARK INTER:                  -9.555
REMARK INTRA:                  -6.196
REMARK UNBOUND:                -4.145
REMARK  Name = cpd25.pdb
REMARK  15 active torsions:
REMARK  status: ('A' for Active; 'I' for Inactive)
REMARK    1  A    between atoms: C_1  and  C_2
REMARK    2  A    between atoms: C_6  and  N_7
REMARK    3  A    between atoms: N_7  and  C_8
REMARK    4  A    between atoms: C_13  and  C_14
REMARK    5  A    between atoms: N_16  and  C_17
REMARK    6  A    between atoms: C_17  and  C_18
REMARK    7  A    between atoms: C_18  and  C_19
REMARK    8  A    between atoms: C_19  and  C_20
REMARK    9  A    between atoms: C_20  and  C_21
REMARK   10  A    between atoms: C_21  and  C_22
REMARK   11  A    between atoms: C_22  and  C_23
REMARK   12  A    between atoms: C_23  and  C_24
REMARK   13  A    between atoms: C_24  and  N_25
REMARK   14  A    between atoms: N_25  and  C_26
REMARK   15  A    between atoms: C_40  and  C_41
REMARK                            x       y       z     vdW  Elec       q    Type
REMARK                         _______ _______ _______ _____ _____    ______ ____
ROOT
ATOM      1  C   UNL A   1      42.793 -16.071 -36.539  0.00  0.00    -0.037 C 
ENDROOT
BRANCH   1   2
ATOM      2  C   UNL A   1      42.907 -16.836 -35.219  0.00  0.00    +0.012 C 
BRANCH   2   5
ATOM      3  C   UNL A   1      41.244 -18.413 -34.317  0.00  0.00    +0.246 C 
ATOM      4  O   UNL A   1      40.891 -17.630 -33.438  0.00  0.00    -0.270 OA
ATOM      5  N   UNL A   1      42.203 -18.103 -35.262  0.00  0.00    -0.311 N 
ATOM      6  H   UNL A   1      42.411 -18.750 -35.974  0.00  0.00    +0.000 HD
BRANCH   3  12
ATOM      7  C   UNL A   1      39.478 -20.027 -35.102  0.00  0.00    +0.044 A 
ATOM      8  C   UNL A   1      38.970 -21.336 -35.126  0.00  0.00    -0.040 A 
ATOM      9  C   UNL A   1      39.618 -22.380 -34.462  0.00  0.00    -0.060 A 
ATOM     10  C   UNL A   1      40.796 -22.138 -33.762  0.00  0.00    -0.061 A 
ATOM     11  C   UNL A   1      41.325 -20.849 -33.720  0.00  0.00    -0.048 A 
ATOM     12  C   UNL A   1      40.668 -19.791 -34.372  0.00  0.00    +0.058 A 
BRANCH   7  13
ATOM     13  N   UNL A   1      38.812 -18.975 -35.767  0.00  0.00    -0.314 N 
ATOM     14  H   UNL A   1      38.170 -18.495 -35.197  0.00  0.00    +0.000 HD
BRANCH  13  20
ATOM     15  C   UNL A   1      39.181 -15.093 -38.904  0.00  0.00    -0.039 C 
ATOM     16  C   UNL A   1      39.070 -16.567 -38.619  0.00  0.00    -0.046 A 
ATOM     17  C   UNL A   1      39.032 -17.456 -39.703  0.00  0.00    -0.058 A 
ATOM     18  C   UNL A   1      38.924 -18.826 -39.493  0.00  0.00    -0.060 A 
ATOM     19  C   UNL A   1      38.847 -19.325 -38.194  0.00  0.00    -0.040 A 
ATOM     20  C   UNL A   1      38.880 -18.472 -37.083  0.00  0.00    +0.035 A 
ATOM     21  C   UNL A   1      39.027 -17.076 -37.298  0.00  0.00    -0.026 A 
ATOM     22  C   UNL A   1      39.088 -16.140 -36.112  0.00  0.00    -0.038 C 
ENDBRANCH  13  20
ENDBRANCH   7  13
ENDBRANCH   3  12
ENDBRANCH   2   5
ENDBRANCH   1   2
BRANCH   1  23
ATOM     23  C   UNL A   1      43.511 -16.772 -37.695  0.00  0.00    -0.052 C 
BRANCH  23  24
ATOM     24  C   UNL A   1      42.569 -17.520 -38.640  0.00  0.00    -0.053 C 
BRANCH  24  25
ATOM     25  C   UNL A   1      42.643 -16.935 -40.054  0.00  0.00    -0.053 C 
BRANCH  25  26
ATOM     26  C   UNL A   1      44.066 -16.948 -40.625  0.00  0.00    -0.052 C 
BRANCH  26  27
ATOM     27  C   UNL A   1      44.466 -18.290 -41.248  0.00  0.00    -0.037 C 
BRANCH  27  28
ATOM     28  C   UNL A   1      45.824 -18.807 -40.771  0.00  0.00    +0.009 C 
BRANCH  28  29
ATOM     29  N   UNL A   1      45.731 -20.161 -40.201  0.00  0.00    -0.343 N 
ATOM     30  H   UNL A   1      46.106 -20.953 -40.651  0.00  0.00    +0.000 HD
BRANCH  29  31
ATOM     31  C   UNL A   1      45.061 -20.241 -38.952  0.00  0.00    +0.041 A 
ATOM     32  C   UNL A   1      45.714 -19.770 -37.792  0.00  0.00    -0.005 A 
ATOM     33  C   UNL A   1      45.055 -19.913 -36.569  0.00  0.00    +0.047 A 
ATOM     34  N   UNL A   1      43.848 -20.510 -36.444  0.00  0.00    -0.251 NA
ATOM     35  C   UNL A   1      43.221 -20.946 -37.544  0.00  0.00    +0.073 A 
ATOM     36  C   UNL A   1      41.971 -21.528 -37.380  0.00  0.00    -0.036 A 
ATOM     37  C   UNL A   1      41.229 -22.008 -38.459  0.00  0.00    -0.060 A 
ATOM     38  C   UNL A   1      41.745 -21.904 -39.740  0.00  0.00    -0.061 A 
ATOM     39  C   UNL A   1      43.000 -21.324 -39.928  0.00  0.00    -0.051 A 
ATOM     40  C   UNL A   1      43.770 -20.838 -38.838  0.00  0.00    +0.021 A 
ATOM     41  C   UNL A   1      45.672 -19.450 -35.275  0.00  0.00    -0.010 C 
ATOM     42  C   UNL A   1      46.735 -18.375 -35.465  0.00  0.00    -0.047 C 
ATOM     43  C   UNL A   1      47.720 -18.812 -36.538  0.00  0.00    -0.049 C 
ATOM     44  C   UNL A   1      47.008 -18.989 -37.878  0.00  0.00    -0.024 C 
ENDBRANCH  29  31
ENDBRANCH  28  29
ENDBRANCH  27  28
ENDBRANCH  26  27
ENDBRANCH  25  26
ENDBRANCH  24  25
ENDBRANCH  23  24
ENDBRANCH   1  23
TORSDOF 13
ENDMDL
MODEL 18
REMARK VINA RESULT:    -6.520      2.517      6.276
REMARK INTER + INTRA:         -15.621
REMARK INTER:                 -10.372
REMARK INTRA:                  -5.248
REMARK UNBOUND:                -4.145
REMARK  Name = cpd25.pdb
REMARK  15 active torsions:
REMARK  status: ('A' for Active; 'I' for Inactive)
REMARK    1  A    between atoms: C_1  and  C_2
REMARK    2  A    between atoms: C_6  and  N_7
REMARK    3  A    between atoms: N_7  and  C_8
REMARK    4  A    between atoms: C_13  and  C_14
REMARK    5  A    between atoms: N_16  and  C_17
REMARK    6  A    between atoms: C_17  and  C_18
REMARK    7  A    between atoms: C_18  and  C_19
REMARK    8  A    between atoms: C_19  and  C_20
REMARK    9  A    between atoms: C_20  and  C_21
REMARK   10  A    between atoms: C_21  and  C_22
REMARK   11  A    between atoms: C_22  and  C_23
REMARK   12  A    between atoms: C_23  and  C_24
REMARK   13  A    between atoms: C_24  and  N_25
REMARK   14  A    between atoms: N_25  and  C_26
REMARK   15  A    between atoms: C_40  and  C_41
REMARK                            x       y       z     vdW  Elec       q    Type
REMARK                         _______ _______ _______ _____ _____    ______ ____
ROOT
ATOM      1  C   UNL A   1      43.369 -13.304 -32.878  0.00  0.00    -0.037 C 
ENDROOT
BRANCH   1   2
ATOM      2  C   UNL A   1      43.787 -14.624 -32.226  0.00  0.00    +0.012 C 
BRANCH   2   5
ATOM      3  C   UNL A   1      44.310 -16.959 -32.814  0.00  0.00    +0.246 C 
ATOM      4  O   UNL A   1      44.595 -17.249 -31.654  0.00  0.00    -0.270 OA
ATOM      5  N   UNL A   1      43.868 -15.704 -33.190  0.00  0.00    -0.311 N 
ATOM      6  H   UNL A   1      43.605 -15.542 -34.124  0.00  0.00    +0.000 HD
BRANCH   3  12
ATOM      7  C   UNL A   1      43.763 -19.189 -33.849  0.00  0.00    +0.044 A 
ATOM      8  C   UNL A   1      43.951 -20.108 -34.893  0.00  0.00    -0.040 A 
ATOM      9  C   UNL A   1      44.807 -19.831 -35.961  0.00  0.00    -0.060 A 
ATOM     10  C   UNL A   1      45.490 -18.619 -36.013  0.00  0.00    -0.061 A 
ATOM     11  C   UNL A   1      45.323 -17.686 -34.991  0.00  0.00    -0.048 A 
ATOM     12  C   UNL A   1      44.478 -17.967 -33.903  0.00  0.00    +0.058 A 
BRANCH   7  13
ATOM     13  N   UNL A   1      42.905 -19.480 -32.767  0.00  0.00    -0.314 N 
ATOM     14  H   UNL A   1      43.303 -19.288 -31.888  0.00  0.00    +0.000 HD
BRANCH  13  20
ATOM     15  C   UNL A   1      37.960 -18.717 -32.663  0.00  0.00    -0.039 C 
ATOM     16  C   UNL A   1      39.168 -19.615 -32.647  0.00  0.00    -0.046 A 
ATOM     17  C   UNL A   1      38.969 -21.000 -32.548  0.00  0.00    -0.058 A 
ATOM     18  C   UNL A   1      40.052 -21.871 -32.524  0.00  0.00    -0.060 A 
ATOM     19  C   UNL A   1      41.350 -21.368 -32.591  0.00  0.00    -0.040 A 
ATOM     20  C   UNL A   1      41.593 -19.991 -32.688  0.00  0.00    +0.035 A 
ATOM     21  C   UNL A   1      40.485 -19.105 -32.751  0.00  0.00    -0.026 A 
ATOM     22  C   UNL A   1      40.724 -17.618 -32.879  0.00  0.00    -0.038 C 
ENDBRANCH  13  20
ENDBRANCH   7  13
ENDBRANCH   3  12
ENDBRANCH   2   5
ENDBRANCH   1   2
BRANCH   1  23
ATOM     23  C   UNL A   1      43.069 -13.449 -34.371  0.00  0.00    -0.052 C 
BRANCH  23  24
ATOM     24  C   UNL A   1      41.592 -13.258 -34.722  0.00  0.00    -0.053 C 
BRANCH  24  25
ATOM     25  C   UNL A   1      40.905 -14.612 -34.928  0.00  0.00    -0.053 C 
BRANCH  25  26
ATOM     26  C   UNL A   1      41.192 -15.217 -36.307  0.00  0.00    -0.052 C 
BRANCH  26  27
ATOM     27  C   UNL A   1      42.049 -16.486 -36.256  0.00  0.00    -0.037 C 
BRANCH  27  28
ATOM     28  C   UNL A   1      42.814 -16.764 -37.550  0.00  0.00    +0.009 C 
BRANCH  28  29
ATOM     29  N   UNL A   1      41.993 -17.492 -38.532  0.00  0.00    -0.343 N 
ATOM     30  H   UNL A   1      41.261 -17.064 -39.033  0.00  0.00    +0.000 HD
BRANCH  29  31
ATOM     31  C   UNL A   1      42.337 -18.859 -38.704  0.00  0.00    +0.041 A 
ATOM     32  C   UNL A   1      43.235 -19.215 -39.734  0.00  0.00    -0.005 A 
ATOM     33  C   UNL A   1      43.511 -20.573 -39.917  0.00  0.00    +0.047 A 
ATOM     34  N   UNL A   1      42.933 -21.551 -39.183  0.00  0.00    -0.251 NA
ATOM     35  C   UNL A   1      42.091 -21.214 -38.198  0.00  0.00    +0.073 A 
ATOM     36  C   UNL A   1      41.540 -22.244 -37.447  0.00  0.00    -0.036 A 
ATOM     37  C   UNL A   1      40.657 -22.004 -36.393  0.00  0.00    -0.060 A 
ATOM     38  C   UNL A   1      40.316 -20.700 -36.076  0.00  0.00    -0.061 A 
ATOM     39  C   UNL A   1      40.857 -19.649 -36.817  0.00  0.00    -0.051 A 
ATOM     40  C   UNL A   1      41.751 -19.880 -37.897  0.00  0.00    +0.021 A 
ATOM     41  C   UNL A   1      44.448 -21.055 -40.993  0.00  0.00    -0.010 C 
ATOM     42  C   UNL A   1      45.438 -19.991 -41.450  0.00  0.00    -0.047 C 
ATOM     43  C   UNL A   1      44.696 -18.700 -41.761  0.00  0.00    -0.049 C 
ATOM     44  C   UNL A   1      44.002 -18.167 -40.509  0.00  0.00    -0.024 C 
ENDBRANCH  29  31
ENDBRANCH  28  29
ENDBRANCH  27  28
ENDBRANCH  26  27
ENDBRANCH  25  26
ENDBRANCH  24  25
ENDBRANCH  23  24
ENDBRANCH   1  23
TORSDOF 13
ENDMDL
MODEL 19
REMARK VINA RESULT:    -6.515      2.048      6.822
REMARK INTER + INTRA:         -15.611
REMARK INTER:                  -9.414
REMARK INTRA:                  -6.196
REMARK UNBOUND:                -4.145
REMARK  Name = cpd25.pdb
REMARK  15 active torsions:
REMARK  status: ('A' for Active; 'I' for Inactive)
REMARK    1  A    between atoms: C_1  and  C_2
REMARK    2  A    between atoms: C_6  and  N_7
REMARK    3  A    between atoms: N_7  and  C_8
REMARK    4  A    between atoms: C_13  and  C_14
REMARK    5  A    between atoms: N_16  and  C_17
REMARK    6  A    between atoms: C_17  and  C_18
REMARK    7  A    between atoms: C_18  and  C_19
REMARK    8  A    between atoms: C_19  and  C_20
REMARK    9  A    between atoms: C_20  and  C_21
REMARK   10  A    between atoms: C_21  and  C_22
REMARK   11  A    between atoms: C_22  and  C_23
REMARK   12  A    between atoms: C_23  and  C_24
REMARK   13  A    between atoms: C_24  and  N_25
REMARK   14  A    between atoms: N_25  and  C_26
REMARK   15  A    between atoms: C_40  and  C_41
REMARK                            x       y       z     vdW  Elec       q    Type
REMARK                         _______ _______ _______ _____ _____    ______ ____
ROOT
ATOM      1  C   UNL A   1      39.243 -20.491 -38.626  0.00  0.00    -0.037 C 
ENDROOT
BRANCH   1   2
ATOM      2  C   UNL A   1      40.209 -21.669 -38.763  0.00  0.00    +0.012 C 
BRANCH   2   5
ATOM      3  C   UNL A   1      42.538 -21.144 -39.372  0.00  0.00    +0.246 C 
ATOM      4  O   UNL A   1      42.910 -21.160 -38.200  0.00  0.00    -0.270 OA
ATOM      5  N   UNL A   1      41.238 -21.417 -39.753  0.00  0.00    -0.311 N 
ATOM      6  H   UNL A   1      41.007 -21.440 -40.710  0.00  0.00    +0.000 HD
BRANCH   3  12
ATOM      7  C   UNL A   1      44.379 -19.683 -40.277  0.00  0.00    +0.044 A 
ATOM      8  C   UNL A   1      45.260 -19.369 -41.323  0.00  0.00    -0.040 A 
ATOM      9  C   UNL A   1      45.276 -20.110 -42.507  0.00  0.00    -0.060 A 
ATOM     10  C   UNL A   1      44.414 -21.190 -42.667  0.00  0.00    -0.061 A 
ATOM     11  C   UNL A   1      43.529 -21.527 -41.645  0.00  0.00    -0.048 A 
ATOM     12  C   UNL A   1      43.494 -20.774 -40.458  0.00  0.00    +0.058 A 
BRANCH   7  13
ATOM     13  N   UNL A   1      44.361 -18.924 -39.087  0.00  0.00    -0.314 N 
ATOM     14  H   UNL A   1      44.401 -19.473 -38.271  0.00  0.00    +0.000 HD
BRANCH  13  20
ATOM     15  C   UNL A   1      41.664 -14.812 -38.155  0.00  0.00    -0.039 C 
ATOM     16  C   UNL A   1      42.973 -15.526 -38.361  0.00  0.00    -0.046 A 
ATOM     17  C   UNL A   1      44.159 -14.780 -38.292  0.00  0.00    -0.058 A 
ATOM     18  C   UNL A   1      45.393 -15.391 -38.481  0.00  0.00    -0.060 A 
ATOM     19  C   UNL A   1      45.458 -16.757 -38.748  0.00  0.00    -0.040 A 
ATOM     20  C   UNL A   1      44.297 -17.539 -38.827  0.00  0.00    +0.035 A 
ATOM     21  C   UNL A   1      43.040 -16.921 -38.597  0.00  0.00    -0.026 A 
ATOM     22  C   UNL A   1      41.777 -17.751 -38.655  0.00  0.00    -0.038 C 
ENDBRANCH  13  20
ENDBRANCH   7  13
ENDBRANCH   3  12
ENDBRANCH   2   5
ENDBRANCH   1   2
BRANCH   1  23
ATOM     23  C   UNL A   1      39.016 -20.077 -37.171  0.00  0.00    -0.052 C 
BRANCH  23  24
ATOM     24  C   UNL A   1      39.239 -21.211 -36.168  0.00  0.00    -0.053 C 
BRANCH  24  25
ATOM     25  C   UNL A   1      38.692 -20.829 -34.789  0.00  0.00    -0.053 C 
BRANCH  25  26
ATOM     26  C   UNL A   1      39.749 -20.933 -33.683  0.00  0.00    -0.052 C 
BRANCH  26  27
ATOM     27  C   UNL A   1      41.024 -21.666 -34.117  0.00  0.00    -0.037 C 
BRANCH  27  28
ATOM     28  C   UNL A   1      42.282 -20.799 -34.055  0.00  0.00    +0.009 C 
BRANCH  28  29
ATOM     29  N   UNL A   1      42.580 -20.162 -35.349  0.00  0.00    -0.343 N 
ATOM     30  H   UNL A   1      42.355 -20.583 -36.211  0.00  0.00    +0.000 HD
BRANCH  29  31
ATOM     31  C   UNL A   1      43.216 -18.896 -35.261  0.00  0.00    +0.041 A 
ATOM     32  C   UNL A   1      44.623 -18.829 -35.346  0.00  0.00    -0.005 A 
ATOM     33  C   UNL A   1      45.225 -17.577 -35.199  0.00  0.00    +0.047 A 
ATOM     34  N   UNL A   1      44.529 -16.446 -34.946  0.00  0.00    -0.251 NA
ATOM     35  C   UNL A   1      43.193 -16.505 -34.878  0.00  0.00    +0.073 A 
ATOM     36  C   UNL A   1      42.511 -15.319 -34.645  0.00  0.00    -0.036 A 
ATOM     37  C   UNL A   1      41.118 -15.267 -34.564  0.00  0.00    -0.060 A 
ATOM     38  C   UNL A   1      40.384 -16.431 -34.722  0.00  0.00    -0.061 A 
ATOM     39  C   UNL A   1      41.049 -17.635 -34.956  0.00  0.00    -0.051 A 
ATOM     40  C   UNL A   1      42.467 -17.703 -35.033  0.00  0.00    +0.021 A 
ATOM     41  C   UNL A   1      46.721 -17.402 -35.264  0.00  0.00    -0.010 C 
ATOM     42  C   UNL A   1      47.425 -18.521 -36.021  0.00  0.00    -0.047 C 
ATOM     43  C   UNL A   1      46.948 -19.869 -35.504  0.00  0.00    -0.049 C 
ATOM     44  C   UNL A   1      45.448 -20.033 -35.743  0.00  0.00    -0.024 C 
ENDBRANCH  29  31
ENDBRANCH  28  29
ENDBRANCH  27  28
ENDBRANCH  26  27
ENDBRANCH  25  26
ENDBRANCH  24  25
ENDBRANCH  23  24
ENDBRANCH   1  23
TORSDOF 13
ENDMDL
MODEL 20
REMARK VINA RESULT:    -6.239      2.545      6.425
REMARK INTER + INTRA:         -15.125
REMARK INTER:                  -9.775
REMARK INTRA:                  -5.350
REMARK UNBOUND:                -4.145
REMARK  Name = cpd25.pdb
REMARK  15 active torsions:
REMARK  status: ('A' for Active; 'I' for Inactive)
REMARK    1  A    between atoms: C_1  and  C_2
REMARK    2  A    between atoms: C_6  and  N_7
REMARK    3  A    between atoms: N_7  and  C_8
REMARK    4  A    between atoms: C_13  and  C_14
REMARK    5  A    between atoms: N_16  and  C_17
REMARK    6  A    between atoms: C_17  and  C_18
REMARK    7  A    between atoms: C_18  and  C_19
REMARK    8  A    between atoms: C_19  and  C_20
REMARK    9  A    between atoms: C_20  and  C_21
REMARK   10  A    between atoms: C_21  and  C_22
REMARK   11  A    between atoms: C_22  and  C_23
REMARK   12  A    between atoms: C_23  and  C_24
REMARK   13  A    between atoms: C_24  and  N_25
REMARK   14  A    between atoms: N_25  and  C_26
REMARK   15  A    between atoms: C_40  and  C_41
REMARK                            x       y       z     vdW  Elec       q    Type
REMARK                         _______ _______ _______ _____ _____    ______ ____
ROOT
ATOM      1  C   UNL A   1      42.670 -13.568 -32.653  0.00  0.00    -0.037 C 
ENDROOT
BRANCH   1   2
ATOM      2  C   UNL A   1      43.794 -14.559 -32.347  0.00  0.00    +0.012 C 
BRANCH   2   5
ATOM      3  C   UNL A   1      44.187 -16.928 -32.897  0.00  0.00    +0.246 C 
ATOM      4  O   UNL A   1      44.438 -17.219 -31.729  0.00  0.00    -0.270 OA
ATOM      5  N   UNL A   1      43.826 -15.655 -33.296  0.00  0.00    -0.311 N 
ATOM      6  H   UNL A   1      43.587 -15.490 -34.236  0.00  0.00    +0.000 HD
BRANCH   3  12
ATOM      7  C   UNL A   1      43.547 -19.149 -33.896  0.00  0.00    +0.044 A 
ATOM      8  C   UNL A   1      43.695 -20.092 -34.926  0.00  0.00    -0.040 A 
ATOM      9  C   UNL A   1      44.560 -19.866 -36.000  0.00  0.00    -0.060 A 
ATOM     10  C   UNL A   1      45.292 -18.685 -36.071  0.00  0.00    -0.061 A 
ATOM     11  C   UNL A   1      45.165 -17.730 -35.064  0.00  0.00    -0.048 A 
ATOM     12  C   UNL A   1      44.311 -17.959 -33.971  0.00  0.00    +0.058 A 
BRANCH   7  13
ATOM     13  N   UNL A   1      42.679 -19.389 -32.809  0.00  0.00    -0.314 N 
ATOM     14  H   UNL A   1      43.146 -19.678 -31.993  0.00  0.00    +0.000 HD
BRANCH  13  20
ATOM     15  C   UNL A   1      38.209 -21.610 -32.447  0.00  0.00    -0.039 C 
ATOM     16  C   UNL A   1      39.091 -20.391 -32.467  0.00  0.00    -0.046 A 
ATOM     17  C   UNL A   1      38.490 -19.130 -32.328  0.00  0.00    -0.058 A 
ATOM     18  C   UNL A   1      39.259 -17.973 -32.346  0.00  0.00    -0.060 A 
ATOM     19  C   UNL A   1      40.641 -18.059 -32.509  0.00  0.00    -0.040 A 
ATOM     20  C   UNL A   1      41.281 -19.298 -32.654  0.00  0.00    +0.035 A 
ATOM     21  C   UNL A   1      40.498 -20.481 -32.599  0.00  0.00    -0.026 A 
ATOM     22  C   UNL A   1      41.171 -21.829 -32.729  0.00  0.00    -0.038 C 
ENDBRANCH  13  20
ENDBRANCH   7  13
ENDBRANCH   3  12
ENDBRANCH   2   5
ENDBRANCH   1   2
BRANCH   1  23
ATOM     23  C   UNL A   1      42.122 -13.713 -34.074  0.00  0.00    -0.052 C 
BRANCH  23  24
ATOM     24  C   UNL A   1      40.615 -13.976 -34.127  0.00  0.00    -0.053 C 
BRANCH  24  25
ATOM     25  C   UNL A   1      40.325 -15.324 -34.795  0.00  0.00    -0.053 C 
BRANCH  25  26
ATOM     26  C   UNL A   1      40.950 -15.440 -36.190  0.00  0.00    -0.052 C 
BRANCH  26  27
ATOM     27  C   UNL A   1      41.891 -16.640 -36.345  0.00  0.00    -0.037 C 
BRANCH  27  28
ATOM     28  C   UNL A   1      42.439 -16.811 -37.762  0.00  0.00    +0.009 C 
BRANCH  28  29
ATOM     29  N   UNL A   1      41.559 -17.644 -38.599  0.00  0.00    -0.343 N 
ATOM     30  H   UNL A   1      40.808 -17.270 -39.113  0.00  0.00    +0.000 HD
BRANCH  29  31
ATOM     31  C   UNL A   1      41.875 -19.028 -38.608  0.00  0.00    +0.041 A 
ATOM     32  C   UNL A   1      41.140 -19.905 -37.782  0.00  0.00    -0.005 A 
ATOM     33  C   UNL A   1      41.511 -21.252 -37.768  0.00  0.00    +0.047 A 
ATOM     34  N   UNL A   1      42.555 -21.739 -38.477  0.00  0.00    -0.251 NA
ATOM     35  C   UNL A   1      43.245 -20.912 -39.271  0.00  0.00    +0.073 A 
ATOM     36  C   UNL A   1      44.292 -21.454 -40.005  0.00  0.00    -0.036 A 
ATOM     37  C   UNL A   1      45.070 -20.683 -40.869  0.00  0.00    -0.060 A 
ATOM     38  C   UNL A   1      44.797 -19.332 -41.008  0.00  0.00    -0.061 A 
ATOM     39  C   UNL A   1      43.751 -18.766 -40.279  0.00  0.00    -0.051 A 
ATOM     40  C   UNL A   1      42.954 -19.538 -39.391  0.00  0.00    +0.021 A 
ATOM     41  C   UNL A   1      40.794 -22.265 -36.913  0.00  0.00    -0.010 C 
ATOM     42  C   UNL A   1      39.379 -21.843 -36.539  0.00  0.00    -0.047 C 
ATOM     43  C   UNL A   1      39.394 -20.423 -35.994  0.00  0.00    -0.049 C 
ATOM     44  C   UNL A   1      39.893 -19.447 -37.059  0.00  0.00    -0.024 C 
ENDBRANCH  29  31
ENDBRANCH  28  29
ENDBRANCH  27  28
ENDBRANCH  26  27
ENDBRANCH  25  26
ENDBRANCH  24  25
ENDBRANCH  23  24
ENDBRANCH   1  23
TORSDOF 13
ENDMDL
