REMARK  Name = cpd25.pdb
REMARK  15 active torsions:
REMARK  status: ('A' for Active; 'I' for Inactive)
REMARK    1  A    between atoms: C_1  and  C_2
REMARK    2  A    between atoms: C_6  and  N_7
REMARK    3  A    between atoms: N_7  and  C_8
REMARK    4  A    between atoms: C_13  and  C_14
REMARK    5  A    between atoms: N_16  and  C_17
REMARK    6  A    between atoms: C_17  and  C_18
REMARK    7  A    between atoms: C_18  and  C_19
REMARK    8  A    between atoms: C_19  and  C_20
REMARK    9  A    between atoms: C_20  and  C_21
REMARK   10  A    between atoms: C_21  and  C_22
REMARK   11  A    between atoms: C_22  and  C_23
REMARK   12  A    between atoms: C_23  and  C_24
REMARK   13  A    between atoms: C_24  and  N_25
REMARK   14  A    between atoms: N_25  and  C_26
REMARK   15  A    between atoms: C_40  and  C_41
REMARK                            x       y       z     vdW  Elec       q    Type
REMARK                         _______ _______ _______ _____ _____    ______ ____
ROOT
ATOM      1  C   UNL A   1      -5.159  -2.611   0.789  0.00  0.00    -0.037 C 
ENDROOT
BRANCH   1   2
ATOM      2  C   UNL A   1      -4.323  -2.613  -0.492  0.00  0.00    +0.012 C 
BRANCH   2   5
ATOM      3  C   UNL A   1      -2.007  -2.911   0.294  0.00  0.00    +0.246 C 
ATOM      4  O   UNL A   1      -1.987  -1.809   0.838  0.00  0.00    -0.270 OA
ATOM      5  N   UNL A   1      -3.120  -3.411  -0.355  0.00  0.00    -0.311 N 
ATOM      6  H   UNL A   1      -3.096  -4.321  -0.729  0.00  0.00    +0.000 HD
BRANCH   3  12
ATOM      7  C   UNL A   1       0.500  -3.150   0.285  0.00  0.00    +0.044 A 
ATOM      8  C   UNL A   1       1.628  -3.985   0.263  0.00  0.00    -0.040 A 
ATOM      9  C   UNL A   1       1.503  -5.376   0.238  0.00  0.00    -0.060 A 
ATOM     10  C   UNL A   1       0.242  -5.964   0.243  0.00  0.00    -0.061 A 
ATOM     11  C   UNL A   1      -0.897  -5.161   0.266  0.00  0.00    -0.048 A 
ATOM     12  C   UNL A   1      -0.778  -3.760   0.272  0.00  0.00    +0.058 A 
BRANCH   7  13
ATOM     13  N   UNL A   1       0.634  -1.745   0.300  0.00  0.00    -0.314 N 
ATOM     14  H   UNL A   1      -0.090  -1.288   0.785  0.00  0.00    +0.000 HD
BRANCH  13  20
ATOM     15  C   UNL A   1       2.863   2.736   0.276  0.00  0.00    -0.039 C 
ATOM     16  C   UNL A   1       2.691   1.333  -0.241  0.00  0.00    -0.046 A 
ATOM     17  C   UNL A   1       3.515   0.903  -1.292  0.00  0.00    -0.058 A 
ATOM     18  C   UNL A   1       3.392  -0.381  -1.809  0.00  0.00    -0.060 A 
ATOM     19  C   UNL A   1       2.438  -1.252  -1.286  0.00  0.00    -0.040 A 
ATOM     20  C   UNL A   1       1.593  -0.862  -0.238  0.00  0.00    +0.035 A 
ATOM     21  C   UNL A   1       1.745   0.437   0.314  0.00  0.00    -0.026 A 
ATOM     22  C   UNL A   1       0.860   0.870   1.461  0.00  0.00    -0.038 C 
ENDBRANCH  13  20
ENDBRANCH   7  13
ENDBRANCH   3  12
ENDBRANCH   2   5
ENDBRANCH   1   2
BRANCH   1  23
ATOM     23  C   UNL A   1      -6.277  -1.567   0.766  0.00  0.00    -0.052 C 
BRANCH  23  24
ATOM     24  C   UNL A   1      -7.395  -1.886  -0.229  0.00  0.00    -0.053 C 
BRANCH  24  25
ATOM     25  C   UNL A   1      -8.430  -0.757  -0.260  0.00  0.00    -0.053 C 
BRANCH  25  26
ATOM     26  C   UNL A   1      -9.630  -1.079  -1.158  0.00  0.00    -0.052 C 
BRANCH  26  27
ATOM     27  C   UNL A   1     -10.916  -1.382  -0.381  0.00  0.00    -0.037 C 
BRANCH  27  28
ATOM     28  C   UNL A   1     -10.856  -2.681   0.423  0.00  0.00    +0.009 C 
BRANCH  28  29
ATOM     29  N   UNL A   1     -12.056  -2.874   1.254  0.00  0.00    -0.343 N 
ATOM     30  H   UNL A   1     -12.093  -2.606   2.201  0.00  0.00    +0.000 HD
BRANCH  29  31
ATOM     31  C   UNL A   1     -13.156  -3.475   0.588  0.00  0.00    +0.041 A 
ATOM     32  C   UNL A   1     -13.158  -4.873   0.392  0.00  0.00    -0.005 A 
ATOM     33  C   UNL A   1     -14.225  -5.430  -0.317  0.00  0.00    +0.047 A 
ATOM     34  N   UNL A   1     -15.226  -4.692  -0.849  0.00  0.00    -0.251 NA
ATOM     35  C   UNL A   1     -15.233  -3.368  -0.653  0.00  0.00    +0.073 A 
ATOM     36  C   UNL A   1     -16.291  -2.647  -1.190  0.00  0.00    -0.036 A 
ATOM     37  C   UNL A   1     -16.400  -1.264  -1.038  0.00  0.00    -0.060 A 
ATOM     38  C   UNL A   1     -15.427  -0.579  -0.329  0.00  0.00    -0.061 A 
ATOM     39  C   UNL A   1     -14.354  -1.283   0.218  0.00  0.00    -0.051 A 
ATOM     40  C   UNL A   1     -14.227  -2.690   0.065  0.00  0.00    +0.021 A 
ATOM     41  C   UNL A   1     -14.314  -6.910  -0.586  0.00  0.00    -0.010 C 
ATOM     42  C   UNL A   1     -13.510  -7.750   0.398  0.00  0.00    -0.047 C 
ATOM     43  C   UNL A   1     -12.100  -7.192   0.517  0.00  0.00    -0.049 C 
ATOM     44  C   UNL A   1     -12.134  -5.764   1.060  0.00  0.00    -0.024 C 
ENDBRANCH  29  31
ENDBRANCH  28  29
ENDBRANCH  27  28
ENDBRANCH  26  27
ENDBRANCH  25  26
ENDBRANCH  24  25
ENDBRANCH  23  24
ENDBRANCH   1  23
TORSDOF 13
