MODEL 1
REMARK VINA RESULT:    -3.888      0.000      0.000
REMARK INTER + INTRA:          -2.389
REMARK INTER:                  -4.002
REMARK INTRA:                   1.613
REMARK UNBOUND:                 1.613
REMARK  Name = cpd230.pdb
REMARK  6 active torsions:
REMARK  status: ('A' for Active; 'I' for Inactive)
REMARK    1  A    between atoms: C_1  and  N_2
REMARK    2  A    between atoms: N_2  and  C_3
REMARK    3  A    between atoms: N_2  and  C_4
REMARK    4  A    between atoms: N_2  and  C_5
REMARK    5  A    between atoms: C_5  and  C_6
REMARK    6  A    between atoms: C_6  and  O_7
REMARK                            x       y       z     vdW  Elec       q    Type
REMARK                         _______ _______ _______ _____ _____    ______ ____
ROOT
ATOM      1  C   UNL     1      57.122 -23.161 -47.206  0.00  0.00    -0.101 C 
ATOM      2  N   UNL     1      56.704 -23.199 -48.114  0.00  0.00    +0.376 N 
ATOM      3  C   UNL     1      56.136 -22.408 -47.885  0.00  0.00    -0.101 C 
ATOM      4  C   UNL     1      56.286 -23.236 -49.022  0.00  0.00    -0.101 C 
ENDROOT
BRANCH   2   5
ATOM      5  C   UNL     1      57.272 -23.990 -48.343  0.00  0.00    -0.065 C 
BRANCH   5   6
ATOM      6  C   UNL     1      57.124 -25.763 -48.434  0.00  0.00    +0.030 C 
BRANCH   6   7
ATOM      7  O   UNL     1      58.444 -26.297 -48.401  0.00  0.00    -0.397 OA
ATOM      8  H   UNL     1      58.629 -26.754 -49.237  0.00  0.00    +0.000 HD
ENDBRANCH   6   7
ENDBRANCH   5   6
ENDBRANCH   2   5
TORSDOF 3
ENDMDL
MODEL 2
REMARK VINA RESULT:    -3.832     23.940     24.171
REMARK INTER + INTRA:          -2.331
REMARK INTER:                  -3.940
REMARK INTRA:                   1.609
REMARK UNBOUND:                 1.613
REMARK  Name = cpd230.pdb
REMARK  6 active torsions:
REMARK  status: ('A' for Active; 'I' for Inactive)
REMARK    1  A    between atoms: C_1  and  N_2
REMARK    2  A    between atoms: N_2  and  C_3
REMARK    3  A    between atoms: N_2  and  C_4
REMARK    4  A    between atoms: N_2  and  C_5
REMARK    5  A    between atoms: C_5  and  C_6
REMARK    6  A    between atoms: C_6  and  O_7
REMARK                            x       y       z     vdW  Elec       q    Type
REMARK                         _______ _______ _______ _____ _____    ______ ____
ROOT
ATOM      1  C   UNL     1      50.694 -38.958 -30.678  0.00  0.00    -0.101 C 
ATOM      2  N   UNL     1      50.038 -38.276 -30.353  0.00  0.00    +0.376 N 
ATOM      3  C   UNL     1      49.311 -38.731 -30.867  0.00  0.00    -0.101 C 
ATOM      4  C   UNL     1      49.383 -37.595 -30.027  0.00  0.00    -0.101 C 
ENDROOT
BRANCH   2   5
ATOM      5  C   UNL     1      50.766 -37.822 -29.839  0.00  0.00    -0.065 C 
BRANCH   5   6
ATOM      6  C   UNL     1      51.386 -37.755 -28.171  0.00  0.00    +0.030 C 
BRANCH   6   7
ATOM      7  O   UNL     1      52.651 -37.100 -28.217  0.00  0.00    -0.397 OA
ATOM      8  H   UNL     1      52.522 -36.165 -28.441  0.00  0.00    +0.000 HD
ENDBRANCH   6   7
ENDBRANCH   5   6
ENDBRANCH   2   5
TORSDOF 3
ENDMDL
MODEL 3
REMARK VINA RESULT:    -3.806     41.391     41.928
REMARK INTER + INTRA:          -2.305
REMARK INTER:                  -3.958
REMARK INTRA:                   1.653
REMARK UNBOUND:                 1.613
REMARK  Name = cpd230.pdb
REMARK  6 active torsions:
REMARK  status: ('A' for Active; 'I' for Inactive)
REMARK    1  A    between atoms: C_1  and  N_2
REMARK    2  A    between atoms: N_2  and  C_3
REMARK    3  A    between atoms: N_2  and  C_4
REMARK    4  A    between atoms: N_2  and  C_5
REMARK    5  A    between atoms: C_5  and  C_6
REMARK    6  A    between atoms: C_6  and  O_7
REMARK                            x       y       z     vdW  Elec       q    Type
REMARK                         _______ _______ _______ _____ _____    ______ ____
ROOT
ATOM      1  C   UNL     1      62.435 -26.200  -7.517  0.00  0.00    -0.101 C 
ATOM      2  N   UNL     1      62.805 -25.525  -6.878  0.00  0.00    +0.376 N 
ATOM      3  C   UNL     1      62.079 -24.887  -7.133  0.00  0.00    -0.101 C 
ATOM      4  C   UNL     1      63.175 -24.850  -6.240  0.00  0.00    -0.101 C 
ENDROOT
BRANCH   2   5
ATOM      5  C   UNL     1      63.531 -26.164  -6.623  0.00  0.00    -0.065 C 
BRANCH   5   6
ATOM      6  C   UNL     1      65.296 -26.326  -6.804  0.00  0.00    +0.030 C 
BRANCH   6   7
ATOM      7  O   UNL     1      65.593 -27.719  -6.811  0.00  0.00    -0.397 OA
ATOM      8  H   UNL     1      64.791 -28.219  -7.031  0.00  0.00    +0.000 HD
ENDBRANCH   6   7
ENDBRANCH   5   6
ENDBRANCH   2   5
TORSDOF 3
ENDMDL
MODEL 4
REMARK VINA RESULT:    -3.801      1.486      2.078
REMARK INTER + INTRA:          -2.299
REMARK INTER:                  -3.896
REMARK INTRA:                   1.597
REMARK UNBOUND:                 1.613
REMARK  Name = cpd230.pdb
REMARK  6 active torsions:
REMARK  status: ('A' for Active; 'I' for Inactive)
REMARK    1  A    between atoms: C_1  and  N_2
REMARK    2  A    between atoms: N_2  and  C_3
REMARK    3  A    between atoms: N_2  and  C_4
REMARK    4  A    between atoms: N_2  and  C_5
REMARK    5  A    between atoms: C_5  and  C_6
REMARK    6  A    between atoms: C_6  and  O_7
REMARK                            x       y       z     vdW  Elec       q    Type
REMARK                         _______ _______ _______ _____ _____    ______ ____
ROOT
ATOM      1  C   UNL     1      56.172 -22.337 -46.506  0.00  0.00    -0.101 C 
ATOM      2  N   UNL     1      57.146 -22.120 -46.572  0.00  0.00    +0.376 N 
ATOM      3  C   UNL     1      56.974 -21.223 -46.166  0.00  0.00    -0.101 C 
ATOM      4  C   UNL     1      58.120 -21.903 -46.637  0.00  0.00    -0.101 C 
ENDROOT
BRANCH   2   5
ATOM      5  C   UNL     1      57.319 -23.018 -46.978  0.00  0.00    -0.065 C 
BRANCH   5   6
ATOM      6  C   UNL     1      57.224 -23.806 -48.572  0.00  0.00    +0.030 C 
BRANCH   6   7
ATOM      7  O   UNL     1      57.942 -25.033 -48.479  0.00  0.00    -0.397 OA
ATOM      8  H   UNL     1      57.388 -25.758 -48.810  0.00  0.00    +0.000 HD
ENDBRANCH   6   7
ENDBRANCH   5   6
ENDBRANCH   2   5
TORSDOF 3
ENDMDL
MODEL 5
REMARK VINA RESULT:    -3.776     11.046     11.651
REMARK INTER + INTRA:          -2.273
REMARK INTER:                  -3.886
REMARK INTRA:                   1.613
REMARK UNBOUND:                 1.613
REMARK  Name = cpd230.pdb
REMARK  6 active torsions:
REMARK  status: ('A' for Active; 'I' for Inactive)
REMARK    1  A    between atoms: C_1  and  N_2
REMARK    2  A    between atoms: N_2  and  C_3
REMARK    3  A    between atoms: N_2  and  C_4
REMARK    4  A    between atoms: N_2  and  C_5
REMARK    5  A    between atoms: C_5  and  C_6
REMARK    6  A    between atoms: C_6  and  O_7
REMARK                            x       y       z     vdW  Elec       q    Type
REMARK                         _______ _______ _______ _____ _____    ______ ____
ROOT
ATOM      1  C   UNL     1      46.808 -22.826 -42.175  0.00  0.00    -0.101 C 
ATOM      2  N   UNL     1      46.925 -21.848 -42.004  0.00  0.00    +0.376 N 
ATOM      3  C   UNL     1      45.934 -21.723 -42.041  0.00  0.00    -0.101 C 
ATOM      4  C   UNL     1      47.042 -20.870 -41.832  0.00  0.00    -0.101 C 
ENDROOT
BRANCH   2   5
ATOM      5  C   UNL     1      47.917 -21.973 -41.967  0.00  0.00    -0.065 C 
BRANCH   5   6
ATOM      6  C   UNL     1      49.160 -22.481 -40.797  0.00  0.00    +0.030 C 
BRANCH   6   7
ATOM      7  O   UNL     1      50.374 -21.833 -41.164  0.00  0.00    -0.397 OA
ATOM      8  H   UNL     1      50.857 -21.573 -40.364  0.00  0.00    +0.000 HD
ENDBRANCH   6   7
ENDBRANCH   5   6
ENDBRANCH   2   5
TORSDOF 3
ENDMDL
MODEL 6
REMARK VINA RESULT:    -3.774     25.494     25.894
REMARK INTER + INTRA:          -2.271
REMARK INTER:                  -3.876
REMARK INTRA:                   1.605
REMARK UNBOUND:                 1.613
REMARK  Name = cpd230.pdb
REMARK  6 active torsions:
REMARK  status: ('A' for Active; 'I' for Inactive)
REMARK    1  A    between atoms: C_1  and  N_2
REMARK    2  A    between atoms: N_2  and  C_3
REMARK    3  A    between atoms: N_2  and  C_4
REMARK    4  A    between atoms: N_2  and  C_5
REMARK    5  A    between atoms: C_5  and  C_6
REMARK    6  A    between atoms: C_6  and  O_7
REMARK                            x       y       z     vdW  Elec       q    Type
REMARK                         _______ _______ _______ _____ _____    ______ ____
ROOT
ATOM      1  C   UNL     1      41.276 -35.818 -30.825  0.00  0.00    -0.101 C 
ATOM      2  N   UNL     1      41.205 -35.936 -31.816  0.00  0.00    +0.376 N 
ATOM      3  C   UNL     1      41.654 -36.827 -31.742  0.00  0.00    -0.101 C 
ATOM      4  C   UNL     1      41.134 -36.054 -32.806  0.00  0.00    -0.101 C 
ENDROOT
BRANCH   2   5
ATOM      5  C   UNL     1      40.756 -35.046 -31.890  0.00  0.00    -0.065 C 
BRANCH   5   6
ATOM      6  C   UNL     1      39.105 -34.383 -31.988  0.00  0.00    +0.030 C 
BRANCH   6   7
ATOM      7  O   UNL     1      39.227 -32.984 -32.223  0.00  0.00    -0.397 OA
ATOM      8  H   UNL     1      39.991 -32.639 -31.735  0.00  0.00    +0.000 HD
ENDBRANCH   6   7
ENDBRANCH   5   6
ENDBRANCH   2   5
TORSDOF 3
ENDMDL
MODEL 7
REMARK VINA RESULT:    -3.713      2.820      3.315
REMARK INTER + INTRA:          -2.208
REMARK INTER:                  -3.903
REMARK INTRA:                   1.694
REMARK UNBOUND:                 1.613
REMARK  Name = cpd230.pdb
REMARK  6 active torsions:
REMARK  status: ('A' for Active; 'I' for Inactive)
REMARK    1  A    between atoms: C_1  and  N_2
REMARK    2  A    between atoms: N_2  and  C_3
REMARK    3  A    between atoms: N_2  and  C_4
REMARK    4  A    between atoms: N_2  and  C_5
REMARK    5  A    between atoms: C_5  and  C_6
REMARK    6  A    between atoms: C_6  and  O_7
REMARK                            x       y       z     vdW  Elec       q    Type
REMARK                         _______ _______ _______ _____ _____    ______ ____
ROOT
ATOM      1  C   UNL     1      57.009 -23.575 -47.119  0.00  0.00    -0.101 C 
ATOM      2  N   UNL     1      56.871 -22.646 -46.776  0.00  0.00    +0.376 N 
ATOM      3  C   UNL     1      57.849 -22.572 -46.580  0.00  0.00    -0.101 C 
ATOM      4  C   UNL     1      56.733 -21.716 -46.434  0.00  0.00    -0.101 C 
ENDROOT
BRANCH   2   5
ATOM      5  C   UNL     1      55.893 -22.719 -46.973  0.00  0.00    -0.065 C 
BRANCH   5   6
ATOM      6  C   UNL     1      54.816 -22.826 -48.388  0.00  0.00    +0.030 C 
BRANCH   6   7
ATOM      7  O   UNL     1      53.952 -21.695 -48.346  0.00  0.00    -0.397 OA
ATOM      8  H   UNL     1      53.164 -21.869 -48.884  0.00  0.00    +0.000 HD
ENDBRANCH   6   7
ENDBRANCH   5   6
ENDBRANCH   2   5
TORSDOF 3
ENDMDL
MODEL 8
REMARK VINA RESULT:    -3.671     41.647     42.081
REMARK INTER + INTRA:          -2.165
REMARK INTER:                  -3.767
REMARK INTRA:                   1.602
REMARK UNBOUND:                 1.613
REMARK  Name = cpd230.pdb
REMARK  6 active torsions:
REMARK  status: ('A' for Active; 'I' for Inactive)
REMARK    1  A    between atoms: C_1  and  N_2
REMARK    2  A    between atoms: N_2  and  C_3
REMARK    3  A    between atoms: N_2  and  C_4
REMARK    4  A    between atoms: N_2  and  C_5
REMARK    5  A    between atoms: C_5  and  C_6
REMARK    6  A    between atoms: C_6  and  O_7
REMARK                            x       y       z     vdW  Elec       q    Type
REMARK                         _______ _______ _______ _____ _____    ______ ____
ROOT
ATOM      1  C   UNL     1      64.108 -25.588  -6.462  0.00  0.00    -0.101 C 
ATOM      2  N   UNL     1      63.157 -25.607  -6.771  0.00  0.00    +0.376 N 
ATOM      3  C   UNL     1      63.094 -24.618  -6.639  0.00  0.00    -0.101 C 
ATOM      4  C   UNL     1      62.206 -25.626  -7.081  0.00  0.00    -0.101 C 
ENDROOT
BRANCH   2   5
ATOM      5  C   UNL     1      63.219 -26.596  -6.903  0.00  0.00    -0.065 C 
BRANCH   5   6
ATOM      6  C   UNL     1      63.032 -28.089  -5.949  0.00  0.00    +0.030 C 
BRANCH   6   7
ATOM      7  O   UNL     1      63.435 -29.174  -6.781  0.00  0.00    -0.397 OA
ATOM      8  H   UNL     1      63.221 -30.013  -6.343  0.00  0.00    +0.000 HD
ENDBRANCH   6   7
ENDBRANCH   5   6
ENDBRANCH   2   5
TORSDOF 3
ENDMDL
MODEL 9
REMARK VINA RESULT:    -3.643     40.844     41.558
REMARK INTER + INTRA:          -2.137
REMARK INTER:                  -3.777
REMARK INTRA:                   1.641
REMARK UNBOUND:                 1.613
REMARK  Name = cpd230.pdb
REMARK  6 active torsions:
REMARK  status: ('A' for Active; 'I' for Inactive)
REMARK    1  A    between atoms: C_1  and  N_2
REMARK    2  A    between atoms: N_2  and  C_3
REMARK    3  A    between atoms: N_2  and  C_4
REMARK    4  A    between atoms: N_2  and  C_5
REMARK    5  A    between atoms: C_5  and  C_6
REMARK    6  A    between atoms: C_6  and  O_7
REMARK                            x       y       z     vdW  Elec       q    Type
REMARK                         _______ _______ _______ _____ _____    ______ ____
ROOT
ATOM      1  C   UNL     1      63.825 -26.979  -6.614  0.00  0.00    -0.101 C 
ATOM      2  N   UNL     1      63.116 -26.343  -6.920  0.00  0.00    +0.376 N 
ATOM      3  C   UNL     1      62.420 -27.043  -6.763  0.00  0.00    -0.101 C 
ATOM      4  C   UNL     1      62.408 -25.707  -7.227  0.00  0.00    -0.101 C 
ENDROOT
BRANCH   2   5
ATOM      5  C   UNL     1      63.813 -25.643  -7.077  0.00  0.00    -0.065 C 
BRANCH   5   6
ATOM      6  C   UNL     1      64.687 -24.906  -8.444  0.00  0.00    +0.030 C 
BRANCH   6   7
ATOM      7  O   UNL     1      66.059 -24.824  -8.071  0.00  0.00    -0.397 OA
ATOM      8  H   UNL     1      66.453 -24.029  -8.462  0.00  0.00    +0.000 HD
ENDBRANCH   6   7
ENDBRANCH   5   6
ENDBRANCH   2   5
TORSDOF 3
ENDMDL
MODEL 10
REMARK VINA RESULT:    -3.559     40.931     41.653
REMARK INTER + INTRA:          -2.050
REMARK INTER:                  -3.679
REMARK INTRA:                   1.629
REMARK UNBOUND:                 1.613
REMARK  Name = cpd230.pdb
REMARK  6 active torsions:
REMARK  status: ('A' for Active; 'I' for Inactive)
REMARK    1  A    between atoms: C_1  and  N_2
REMARK    2  A    between atoms: N_2  and  C_3
REMARK    3  A    between atoms: N_2  and  C_4
REMARK    4  A    between atoms: N_2  and  C_5
REMARK    5  A    between atoms: C_5  and  C_6
REMARK    6  A    between atoms: C_6  and  O_7
REMARK                            x       y       z     vdW  Elec       q    Type
REMARK                         _______ _______ _______ _____ _____    ______ ____
ROOT
ATOM      1  C   UNL     1      63.597 -25.916  -6.089  0.00  0.00    -0.101 C 
ATOM      2  N   UNL     1      63.028 -26.646  -6.468  0.00  0.00    +0.376 N 
ATOM      3  C   UNL     1      63.590 -27.327  -5.999  0.00  0.00    -0.101 C 
ATOM      4  C   UNL     1      62.459 -27.376  -6.846  0.00  0.00    -0.101 C 
ENDROOT
BRANCH   2   5
ATOM      5  C   UNL     1      62.465 -25.965  -6.937  0.00  0.00    -0.065 C 
BRANCH   5   6
ATOM      6  C   UNL     1      62.548 -24.925  -8.381  0.00  0.00    +0.030 C 
BRANCH   6   7
ATOM      7  O   UNL     1      61.224 -24.813  -8.895  0.00  0.00    -0.397 OA
ATOM      8  H   UNL     1      60.586 -24.964  -8.179  0.00  0.00    +0.000 HD
ENDBRANCH   6   7
ENDBRANCH   5   6
ENDBRANCH   2   5
TORSDOF 3
ENDMDL
MODEL 11
REMARK VINA RESULT:    -3.534      3.293      4.052
REMARK INTER + INTRA:          -2.024
REMARK INTER:                  -3.629
REMARK INTRA:                   1.604
REMARK UNBOUND:                 1.613
REMARK  Name = cpd230.pdb
REMARK  6 active torsions:
REMARK  status: ('A' for Active; 'I' for Inactive)
REMARK    1  A    between atoms: C_1  and  N_2
REMARK    2  A    between atoms: N_2  and  C_3
REMARK    3  A    between atoms: N_2  and  C_4
REMARK    4  A    between atoms: N_2  and  C_5
REMARK    5  A    between atoms: C_5  and  C_6
REMARK    6  A    between atoms: C_6  and  O_7
REMARK                            x       y       z     vdW  Elec       q    Type
REMARK                         _______ _______ _______ _____ _____    ______ ____
ROOT
ATOM      1  C   UNL     1      56.856 -22.743 -46.686  0.00  0.00    -0.101 C 
ATOM      2  N   UNL     1      57.578 -22.320 -47.234  0.00  0.00    +0.376 N 
ATOM      3  C   UNL     1      57.380 -22.953 -47.983  0.00  0.00    -0.101 C 
ATOM      4  C   UNL     1      58.300 -21.898 -47.782  0.00  0.00    -0.101 C 
ENDROOT
BRANCH   2   5
ATOM      5  C   UNL     1      57.776 -21.688 -46.485  0.00  0.00    -0.065 C 
BRANCH   5   6
ATOM      6  C   UNL     1      57.181 -20.132 -45.854  0.00  0.00    +0.030 C 
BRANCH   6   7
ATOM      7  O   UNL     1      57.790 -19.933 -44.582  0.00  0.00    -0.397 OA
ATOM      8  H   UNL     1      57.826 -20.778 -44.105  0.00  0.00    +0.000 HD
ENDBRANCH   6   7
ENDBRANCH   5   6
ENDBRANCH   2   5
TORSDOF 3
ENDMDL
MODEL 12
REMARK VINA RESULT:    -3.487     40.502     41.231
REMARK INTER + INTRA:          -1.976
REMARK INTER:                  -3.567
REMARK INTRA:                   1.592
REMARK UNBOUND:                 1.613
REMARK  Name = cpd230.pdb
REMARK  6 active torsions:
REMARK  status: ('A' for Active; 'I' for Inactive)
REMARK    1  A    between atoms: C_1  and  N_2
REMARK    2  A    between atoms: N_2  and  C_3
REMARK    3  A    between atoms: N_2  and  C_4
REMARK    4  A    between atoms: N_2  and  C_5
REMARK    5  A    between atoms: C_5  and  C_6
REMARK    6  A    between atoms: C_6  and  O_7
REMARK                            x       y       z     vdW  Elec       q    Type
REMARK                         _______ _______ _______ _____ _____    ______ ____
ROOT
ATOM      1  C   UNL     1      62.166 -25.734  -7.395  0.00  0.00    -0.101 C 
ATOM      2  N   UNL     1      63.061 -26.067  -7.099  0.00  0.00    +0.376 N 
ATOM      3  C   UNL     1      62.641 -26.918  -6.786  0.00  0.00    -0.101 C 
ATOM      4  C   UNL     1      63.957 -26.399  -6.804  0.00  0.00    -0.101 C 
ENDROOT
BRANCH   2   5
ATOM      5  C   UNL     1      63.481 -25.215  -7.413  0.00  0.00    -0.065 C 
BRANCH   5   6
ATOM      6  C   UNL     1      64.259 -24.566  -8.879  0.00  0.00    +0.030 C 
BRANCH   6   7
ATOM      7  O   UNL     1      64.300 -23.149  -8.741  0.00  0.00    -0.397 OA
ATOM      8  H   UNL     1      65.022 -22.793  -9.283  0.00  0.00    +0.000 HD
ENDBRANCH   6   7
ENDBRANCH   5   6
ENDBRANCH   2   5
TORSDOF 3
ENDMDL
MODEL 13
REMARK VINA RESULT:    -3.462     10.383     11.047
REMARK INTER + INTRA:          -1.950
REMARK INTER:                  -3.552
REMARK INTRA:                   1.602
REMARK UNBOUND:                 1.613
REMARK  Name = cpd230.pdb
REMARK  6 active torsions:
REMARK  status: ('A' for Active; 'I' for Inactive)
REMARK    1  A    between atoms: C_1  and  N_2
REMARK    2  A    between atoms: N_2  and  C_3
REMARK    3  A    between atoms: N_2  and  C_4
REMARK    4  A    between atoms: N_2  and  C_5
REMARK    5  A    between atoms: C_5  and  C_6
REMARK    6  A    between atoms: C_6  and  O_7
REMARK                            x       y       z     vdW  Elec       q    Type
REMARK                         _______ _______ _______ _____ _____    ______ ____
ROOT
ATOM      1  C   UNL     1      55.479 -34.996 -47.923  0.00  0.00    -0.101 C 
ATOM      2  N   UNL     1      55.810 -34.267 -47.324  0.00  0.00    +0.376 N 
ATOM      3  C   UNL     1      56.257 -33.829 -48.104  0.00  0.00    -0.101 C 
ATOM      4  C   UNL     1      56.140 -33.537 -46.726  0.00  0.00    -0.101 C 
ENDROOT
BRANCH   2   5
ATOM      5  C   UNL     1      55.362 -34.704 -46.544  0.00  0.00    -0.065 C 
BRANCH   5   6
ATOM      6  C   UNL     1      53.795 -34.652 -45.698  0.00  0.00    +0.030 C 
BRANCH   6   7
ATOM      7  O   UNL     1      53.687 -35.853 -44.939  0.00  0.00    -0.397 OA
ATOM      8  H   UNL     1      52.760 -35.996 -44.692  0.00  0.00    +0.000 HD
ENDBRANCH   6   7
ENDBRANCH   5   6
ENDBRANCH   2   5
TORSDOF 3
ENDMDL
MODEL 14
REMARK VINA RESULT:    -3.457     24.445     25.011
REMARK INTER + INTRA:          -1.946
REMARK INTER:                  -3.562
REMARK INTRA:                   1.616
REMARK UNBOUND:                 1.613
REMARK  Name = cpd230.pdb
REMARK  6 active torsions:
REMARK  status: ('A' for Active; 'I' for Inactive)
REMARK    1  A    between atoms: C_1  and  N_2
REMARK    2  A    between atoms: N_2  and  C_3
REMARK    3  A    between atoms: N_2  and  C_4
REMARK    4  A    between atoms: N_2  and  C_5
REMARK    5  A    between atoms: C_5  and  C_6
REMARK    6  A    between atoms: C_6  and  O_7
REMARK                            x       y       z     vdW  Elec       q    Type
REMARK                         _______ _______ _______ _____ _____    ______ ____
ROOT
ATOM      1  C   UNL     1      49.634 -38.018 -28.704  0.00  0.00    -0.101 C 
ATOM      2  N   UNL     1      50.062 -38.356 -29.542  0.00  0.00    +0.376 N 
ATOM      3  C   UNL     1      50.962 -38.116 -29.179  0.00  0.00    -0.101 C 
ATOM      4  C   UNL     1      50.490 -38.693 -30.381  0.00  0.00    -0.101 C 
ENDROOT
BRANCH   2   5
ATOM      5  C   UNL     1      49.161 -38.595 -29.905  0.00  0.00    -0.065 C 
BRANCH   5   6
ATOM      6  C   UNL     1      48.044 -39.983 -29.908  0.00  0.00    +0.030 C 
BRANCH   6   7
ATOM      7  O   UNL     1      46.721 -39.458 -29.965  0.00  0.00    -0.397 OA
ATOM      8  H   UNL     1      46.153 -39.946 -29.347  0.00  0.00    +0.000 HD
ENDBRANCH   6   7
ENDBRANCH   5   6
ENDBRANCH   2   5
TORSDOF 3
ENDMDL
MODEL 15
REMARK VINA RESULT:    -3.416     11.910     12.513
REMARK INTER + INTRA:          -1.903
REMARK INTER:                  -3.505
REMARK INTRA:                   1.602
REMARK UNBOUND:                 1.613
REMARK  Name = cpd230.pdb
REMARK  6 active torsions:
REMARK  status: ('A' for Active; 'I' for Inactive)
REMARK    1  A    between atoms: C_1  and  N_2
REMARK    2  A    between atoms: N_2  and  C_3
REMARK    3  A    between atoms: N_2  and  C_4
REMARK    4  A    between atoms: N_2  and  C_5
REMARK    5  A    between atoms: C_5  and  C_6
REMARK    6  A    between atoms: C_6  and  O_7
REMARK                            x       y       z     vdW  Elec       q    Type
REMARK                         _______ _______ _______ _____ _____    ______ ____
ROOT
ATOM      1  C   UNL     1      46.982 -22.065 -40.472  0.00  0.00    -0.101 C 
ATOM      2  N   UNL     1      47.391 -22.434 -41.307  0.00  0.00    +0.376 N 
ATOM      3  C   UNL     1      47.976 -23.030 -40.758  0.00  0.00    -0.101 C 
ATOM      4  C   UNL     1      47.800 -22.802 -42.142  0.00  0.00    -0.101 C 
ENDROOT
BRANCH   2   5
ATOM      5  C   UNL     1      46.806 -21.837 -41.857  0.00  0.00    -0.065 C 
BRANCH   5   6
ATOM      6  C   UNL     1      45.230 -21.902 -42.685  0.00  0.00    +0.030 C 
BRANCH   6   7
ATOM      7  O   UNL     1      45.169 -20.781 -43.562  0.00  0.00    -0.397 OA
ATOM      8  H   UNL     1      44.364 -20.271 -43.380  0.00  0.00    +0.000 HD
ENDBRANCH   6   7
ENDBRANCH   5   6
ENDBRANCH   2   5
TORSDOF 3
ENDMDL
MODEL 16
REMARK VINA RESULT:    -3.359      3.497      4.306
REMARK INTER + INTRA:          -1.844
REMARK INTER:                  -3.443
REMARK INTRA:                   1.599
REMARK UNBOUND:                 1.613
REMARK  Name = cpd230.pdb
REMARK  6 active torsions:
REMARK  status: ('A' for Active; 'I' for Inactive)
REMARK    1  A    between atoms: C_1  and  N_2
REMARK    2  A    between atoms: N_2  and  C_3
REMARK    3  A    between atoms: N_2  and  C_4
REMARK    4  A    between atoms: N_2  and  C_5
REMARK    5  A    between atoms: C_5  and  C_6
REMARK    6  A    between atoms: C_6  and  O_7
REMARK                            x       y       z     vdW  Elec       q    Type
REMARK                         _______ _______ _______ _____ _____    ______ ____
ROOT
ATOM      1  C   UNL     1      55.869 -22.685 -46.881  0.00  0.00    -0.101 C 
ATOM      2  N   UNL     1      56.792 -22.301 -46.905  0.00  0.00    +0.376 N 
ATOM      3  C   UNL     1      57.176 -23.222 -46.834  0.00  0.00    -0.101 C 
ATOM      4  C   UNL     1      57.715 -21.917 -46.928  0.00  0.00    -0.101 C 
ENDROOT
BRANCH   2   5
ATOM      5  C   UNL     1      56.407 -21.381 -46.975  0.00  0.00    -0.065 C 
BRANCH   5   6
ATOM      6  C   UNL     1      55.727 -20.128 -45.906  0.00  0.00    +0.030 C 
BRANCH   6   7
ATOM      7  O   UNL     1      55.235 -19.084 -46.741  0.00  0.00    -0.397 OA
ATOM      8  H   UNL     1      55.794 -19.011 -47.531  0.00  0.00    +0.000 HD
ENDBRANCH   6   7
ENDBRANCH   5   6
ENDBRANCH   2   5
TORSDOF 3
ENDMDL
MODEL 17
REMARK VINA RESULT:    -3.348     41.321     41.670
REMARK INTER + INTRA:          -1.833
REMARK INTER:                  -3.489
REMARK INTRA:                   1.656
REMARK UNBOUND:                 1.613
REMARK  Name = cpd230.pdb
REMARK  6 active torsions:
REMARK  status: ('A' for Active; 'I' for Inactive)
REMARK    1  A    between atoms: C_1  and  N_2
REMARK    2  A    between atoms: N_2  and  C_3
REMARK    3  A    between atoms: N_2  and  C_4
REMARK    4  A    between atoms: N_2  and  C_5
REMARK    5  A    between atoms: C_5  and  C_6
REMARK    6  A    between atoms: C_6  and  O_7
REMARK                            x       y       z     vdW  Elec       q    Type
REMARK                         _______ _______ _______ _____ _____    ______ ____
ROOT
ATOM      1  C   UNL     1      64.961 -25.374  -7.032  0.00  0.00    -0.101 C 
ATOM      2  N   UNL     1      64.428 -24.528  -7.064  0.00  0.00    +0.376 N 
ATOM      3  C   UNL     1      65.187 -24.034  -6.640  0.00  0.00    -0.101 C 
ATOM      4  C   UNL     1      63.894 -23.683  -7.095  0.00  0.00    -0.101 C 
ENDROOT
BRANCH   2   5
ATOM      5  C   UNL     1      63.669 -25.023  -7.487  0.00  0.00    -0.065 C 
BRANCH   5   6
ATOM      6  C   UNL     1      62.369 -26.144  -7.011  0.00  0.00    +0.030 C 
BRANCH   6   7
ATOM      7  O   UNL     1      61.166 -25.673  -7.609  0.00  0.00    -0.397 OA
ATOM      8  H   UNL     1      61.259 -24.731  -7.824  0.00  0.00    +0.000 HD
ENDBRANCH   6   7
ENDBRANCH   5   6
ENDBRANCH   2   5
TORSDOF 3
ENDMDL
MODEL 18
REMARK VINA RESULT:    -3.323     25.599     25.985
REMARK INTER + INTRA:          -1.807
REMARK INTER:                  -3.397
REMARK INTRA:                   1.590
REMARK UNBOUND:                 1.613
REMARK  Name = cpd230.pdb
REMARK  6 active torsions:
REMARK  status: ('A' for Active; 'I' for Inactive)
REMARK    1  A    between atoms: C_1  and  N_2
REMARK    2  A    between atoms: N_2  and  C_3
REMARK    3  A    between atoms: N_2  and  C_4
REMARK    4  A    between atoms: N_2  and  C_5
REMARK    5  A    between atoms: C_5  and  C_6
REMARK    6  A    between atoms: C_6  and  O_7
REMARK                            x       y       z     vdW  Elec       q    Type
REMARK                         _______ _______ _______ _____ _____    ______ ____
ROOT
ATOM      1  C   UNL     1      39.999 -36.182 -31.205  0.00  0.00    -0.101 C 
ATOM      2  N   UNL     1      40.327 -36.081 -32.144  0.00  0.00    +0.376 N 
ATOM      3  C   UNL     1      39.401 -35.851 -32.443  0.00  0.00    -0.101 C 
ATOM      4  C   UNL     1      40.656 -35.980 -33.083  0.00  0.00    -0.101 C 
ENDROOT
BRANCH   2   5
ATOM      5  C   UNL     1      41.253 -36.311 -31.844  0.00  0.00    -0.065 C 
BRANCH   5   6
ATOM      6  C   UNL     1      42.269 -37.758 -31.626  0.00  0.00    +0.030 C 
BRANCH   6   7
ATOM      7  O   UNL     1      43.600 -37.306 -31.391  0.00  0.00    -0.397 OA
ATOM      8  H   UNL     1      43.772 -37.290 -30.436  0.00  0.00    +0.000 HD
ENDBRANCH   6   7
ENDBRANCH   5   6
ENDBRANCH   2   5
TORSDOF 3
ENDMDL
MODEL 19
REMARK VINA RESULT:    -3.304      2.598      2.991
REMARK INTER + INTRA:          -1.787
REMARK INTER:                  -3.443
REMARK INTRA:                   1.655
REMARK UNBOUND:                 1.613
REMARK  Name = cpd230.pdb
REMARK  6 active torsions:
REMARK  status: ('A' for Active; 'I' for Inactive)
REMARK    1  A    between atoms: C_1  and  N_2
REMARK    2  A    between atoms: N_2  and  C_3
REMARK    3  A    between atoms: N_2  and  C_4
REMARK    4  A    between atoms: N_2  and  C_5
REMARK    5  A    between atoms: C_5  and  C_6
REMARK    6  A    between atoms: C_6  and  O_7
REMARK                            x       y       z     vdW  Elec       q    Type
REMARK                         _______ _______ _______ _____ _____    ______ ____
ROOT
ATOM      1  C   UNL     1      55.228 -22.269 -47.602  0.00  0.00    -0.101 C 
ATOM      2  N   UNL     1      55.595 -23.198 -47.657  0.00  0.00    +0.376 N 
ATOM      3  C   UNL     1      55.953 -23.112 -46.727  0.00  0.00    -0.101 C 
ATOM      4  C   UNL     1      55.961 -24.127 -47.711  0.00  0.00    -0.101 C 
ENDROOT
BRANCH   2   5
ATOM      5  C   UNL     1      55.237 -23.284 -48.587  0.00  0.00    -0.065 C 
BRANCH   5   6
ATOM      6  C   UNL     1      55.809 -23.101 -50.264  0.00  0.00    +0.030 C 
BRANCH   6   7
ATOM      7  O   UNL     1      54.835 -22.328 -50.959  0.00  0.00    -0.397 OA
ATOM      8  H   UNL     1      55.196 -22.047 -51.814  0.00  0.00    +0.000 HD
ENDBRANCH   6   7
ENDBRANCH   5   6
ENDBRANCH   2   5
TORSDOF 3
ENDMDL
MODEL 20
REMARK VINA RESULT:    -3.087     12.341     12.951
REMARK INTER + INTRA:          -1.564
REMARK INTER:                  -3.159
REMARK INTRA:                   1.594
REMARK UNBOUND:                 1.613
REMARK  Name = cpd230.pdb
REMARK  6 active torsions:
REMARK  status: ('A' for Active; 'I' for Inactive)
REMARK    1  A    between atoms: C_1  and  N_2
REMARK    2  A    between atoms: N_2  and  C_3
REMARK    3  A    between atoms: N_2  and  C_4
REMARK    4  A    between atoms: N_2  and  C_5
REMARK    5  A    between atoms: C_5  and  C_6
REMARK    6  A    between atoms: C_6  and  O_7
REMARK                            x       y       z     vdW  Elec       q    Type
REMARK                         _______ _______ _______ _____ _____    ______ ____
ROOT
ATOM      1  C   UNL     1      46.178 -21.872 -39.864  0.00  0.00    -0.101 C 
ATOM      2  N   UNL     1      45.906 -21.242 -40.591  0.00  0.00    +0.376 N 
ATOM      3  C   UNL     1      45.319 -20.752 -39.946  0.00  0.00    -0.101 C 
ATOM      4  C   UNL     1      45.633 -20.612 -41.318  0.00  0.00    -0.101 C 
ENDROOT
BRANCH   2   5
ATOM      5  C   UNL     1      46.493 -21.732 -41.235  0.00  0.00    -0.065 C 
BRANCH   5   6
ATOM      6  C   UNL     1      48.203 -21.763 -41.731  0.00  0.00    +0.030 C 
BRANCH   6   7
ATOM      7  O   UNL     1      48.309 -22.671 -42.824  0.00  0.00    -0.397 OA
ATOM      8  H   UNL     1      49.244 -22.804 -43.045  0.00  0.00    +0.000 HD
ENDBRANCH   6   7
ENDBRANCH   5   6
ENDBRANCH   2   5
TORSDOF 3
ENDMDL
