@<TRIPOS>MOLECULE
*****
 7 6 0 0 0
SMALL
GASTEIGER

@<TRIPOS>ATOM
      1 C           1.0000   -1.0000    0.0000 C.3     1  UNL1        0.1711
      2 N           1.0000   -0.0000    0.0000 N.4     1  UNL1        0.3126
      3 C           2.0000    0.0000    0.0000 C.3     1  UNL1        0.1711
      4 C           1.0000    1.0000    0.0000 C.3     1  UNL1        0.1711
      5 C           0.0000    0.0000    0.0000 C.3     1  UNL1        0.1454
      6 C          -0.5000    0.8660    0.0000 C.3     1  UNL1        0.2426
      7 O          -1.5000    0.8660    0.0000 O.3     1  UNL1       -0.2138
@<TRIPOS>UNITY_ATOM_ATTR
2 1
charge 1
@<TRIPOS>BOND
     1     1     2    1
     2     2     3    1
     3     2     4    1
     4     2     5    1
     5     5     6    1
     6     6     7    1
