REMARK  Name = cpd230.pdb
REMARK  6 active torsions:
REMARK  status: ('A' for Active; 'I' for Inactive)
REMARK    1  A    between atoms: C_1  and  N_2
REMARK    2  A    between atoms: N_2  and  C_3
REMARK    3  A    between atoms: N_2  and  C_4
REMARK    4  A    between atoms: N_2  and  C_5
REMARK    5  A    between atoms: C_5  and  C_6
REMARK    6  A    between atoms: C_6  and  O_7
REMARK                            x       y       z     vdW  Elec       q    Type
REMARK                         _______ _______ _______ _____ _____    ______ ____
ROOT
ATOM      1  C   UNL     1       1.000  -1.000   0.000  0.00  0.00    -0.101 C 
ATOM      2  N   UNL     1       1.000   0.000   0.000  0.00  0.00    +0.376 N 
ATOM      3  C   UNL     1       2.000   0.000   0.000  0.00  0.00    -0.101 C 
ATOM      4  C   UNL     1       1.000   1.000   0.000  0.00  0.00    -0.101 C 
ENDROOT
BRANCH   2   5
ATOM      5  C   UNL     1       0.000   0.000   0.000  0.00  0.00    -0.065 C 
BRANCH   5   6
ATOM      6  C   UNL     1      -1.339   1.175   0.008  0.00  0.00    +0.030 C 
BRANCH   6   7
ATOM      7  O   UNL     1      -2.553   0.430   0.000  0.00  0.00    -0.397 OA
ATOM      8  H   UNL     1      -2.581  -0.134  -0.789  0.00  0.00    +0.000 HD
ENDBRANCH   6   7
ENDBRANCH   5   6
ENDBRANCH   2   5
TORSDOF 3
