MODEL 1
REMARK VINA RESULT:    -8.268      0.000      0.000
REMARK INTER + INTRA:         -11.535
REMARK INTER:                 -10.684
REMARK INTRA:                  -0.851
REMARK UNBOUND:                -0.851
REMARK  Name = cpd131.pdb
REMARK  5 active torsions:
REMARK  status: ('A' for Active; 'I' for Inactive)
REMARK    1  A    between atoms: C_2  and  C_3
REMARK    2  A    between atoms: C_2  and  C_18
REMARK    3  A    between atoms: C_4  and  C_5
REMARK    4  A    between atoms: N_9  and  C_10
REMARK    5  A    between atoms: C_10  and  C_11
REMARK                            x       y       z     vdW  Elec       q    Type
REMARK                         _______ _______ _______ _____ _____    ______ ____
ROOT
ATOM      1  C   UNL A   1      37.165 -35.270 -31.361  0.00  0.00    -0.011 C 
ATOM      2  C   UNL A   1      36.251 -34.514 -30.733  0.00  0.00    -0.049 C 
ENDROOT
BRANCH   2   3
ATOM      3  C   UNL A   1      34.894 -34.976 -30.413  0.00  0.00    -0.009 A 
ATOM      4  C   UNL A   1      34.001 -34.213 -29.658  0.00  0.00    -0.052 A 
ATOM      5  C   UNL A   1      32.720 -34.692 -29.407  0.00  0.00    -0.045 A 
ATOM      6  C   UNL A   1      32.339 -35.923 -29.923  0.00  0.00    +0.005 A 
ATOM      7  N   UNL A   1      33.199 -36.651 -30.674  0.00  0.00    -0.348 N 
ATOM      8  C   UNL A   1      34.451 -36.199 -30.924  0.00  0.00    +0.012 A 
BRANCH   7   9
ATOM      9  C   UNL A   1      32.765 -37.965 -31.213  0.00  0.00    +0.048 C 
BRANCH   9  10
ATOM     10  C   UNL A   1      33.791 -39.034 -30.939  0.00  0.00    -0.028 A 
ATOM     11  C   UNL A   1      34.507 -39.633 -31.989  0.00  0.00    -0.057 A 
ATOM     12  C   UNL A   1      35.448 -40.628 -31.723  0.00  0.00    -0.061 A 
ATOM     13  C   UNL A   1      35.689 -41.032 -30.412  0.00  0.00    -0.062 A 
ATOM     14  C   UNL A   1      34.994 -40.437 -29.362  0.00  0.00    -0.061 A 
ATOM     15  C   UNL A   1      34.051 -39.442 -29.621  0.00  0.00    -0.057 A 
ENDBRANCH   9  10
ENDBRANCH   7   9
ENDBRANCH   2   3
BRANCH   1  17
ATOM     16  O   UNL A   1      38.696 -33.703 -32.116  0.00  0.00    -0.284 OA
ATOM     17  C   UNL A   1      38.564 -34.851 -31.688  0.00  0.00    +0.221 C 
BRANCH  17  18
ATOM     18  C   UNL A   1      39.686 -35.745 -31.491  0.00  0.00    +0.176 A 
ATOM     19  C   UNL A   1      40.901 -35.801 -32.152  0.00  0.00    -0.005 A 
ATOM     20  C   UNL A   1      41.661 -36.833 -31.545  0.00  0.00    +0.021 A 
ATOM     21  C   UNL A   1      42.938 -37.387 -31.736  0.00  0.00    -0.051 A 
ATOM     22  C   UNL A   1      43.350 -38.430 -30.895  0.00  0.00    -0.061 A 
ATOM     23  C   UNL A   1      42.516 -38.914 -29.885  0.00  0.00    -0.058 A 
ATOM     24  C   UNL A   1      41.241 -38.375 -29.679  0.00  0.00    -0.019 A 
ATOM     25  C   UNL A   1      40.860 -37.342 -30.531  0.00  0.00    +0.136 A 
ATOM     26  O   UNL A   1      39.666 -36.686 -30.495  0.00  0.00    -0.452 OA
ENDBRANCH  17  18
ENDBRANCH   1  17
TORSDOF 5
ENDMDL
MODEL 2
REMARK VINA RESULT:    -8.207      2.462      4.811
REMARK INTER + INTRA:         -11.456
REMARK INTER:                 -10.743
REMARK INTRA:                  -0.713
REMARK UNBOUND:                -0.851
REMARK  Name = cpd131.pdb
REMARK  5 active torsions:
REMARK  status: ('A' for Active; 'I' for Inactive)
REMARK    1  A    between atoms: C_2  and  C_3
REMARK    2  A    between atoms: C_2  and  C_18
REMARK    3  A    between atoms: C_4  and  C_5
REMARK    4  A    between atoms: N_9  and  C_10
REMARK    5  A    between atoms: C_10  and  C_11
REMARK                            x       y       z     vdW  Elec       q    Type
REMARK                         _______ _______ _______ _____ _____    ______ ____
ROOT
ATOM      1  C   UNL A   1      36.535 -38.390 -28.271  0.00  0.00    -0.011 C 
ATOM      2  C   UNL A   1      36.165 -37.219 -27.729  0.00  0.00    -0.049 C 
ENDROOT
BRANCH   2   3
ATOM      3  C   UNL A   1      34.766 -36.828 -27.512  0.00  0.00    -0.009 A 
ATOM      4  C   UNL A   1      34.119 -37.006 -26.289  0.00  0.00    -0.052 A 
ATOM      5  C   UNL A   1      32.799 -36.596 -26.135  0.00  0.00    -0.045 A 
ATOM      6  C   UNL A   1      32.143 -35.999 -27.203  0.00  0.00    +0.005 A 
ATOM      7  N   UNL A   1      32.779 -35.808 -28.383  0.00  0.00    -0.348 N 
ATOM      8  C   UNL A   1      34.064 -36.205 -28.547  0.00  0.00    +0.012 A 
BRANCH   7   9
ATOM      9  C   UNL A   1      32.053 -35.167 -29.509  0.00  0.00    +0.048 C 
BRANCH   9  10
ATOM     10  C   UNL A   1      32.849 -34.033 -30.100  0.00  0.00    -0.028 A 
ATOM     11  C   UNL A   1      33.636 -34.225 -31.248  0.00  0.00    -0.057 A 
ATOM     12  C   UNL A   1      34.376 -33.169 -31.780  0.00  0.00    -0.061 A 
ATOM     13  C   UNL A   1      34.336 -31.913 -31.179  0.00  0.00    -0.062 A 
ATOM     14  C   UNL A   1      33.550 -31.707 -30.047  0.00  0.00    -0.061 A 
ATOM     15  C   UNL A   1      32.808 -32.759 -29.510  0.00  0.00    -0.057 A 
ENDBRANCH   9  10
ENDBRANCH   7   9
ENDBRANCH   2   3
BRANCH   1  17
ATOM     16  O   UNL A   1      38.233 -39.949 -28.039  0.00  0.00    -0.284 OA
ATOM     17  C   UNL A   1      37.945 -38.840 -28.491  0.00  0.00    +0.221 C 
BRANCH  17  18
ATOM     18  C   UNL A   1      38.897 -38.019 -29.210  0.00  0.00    +0.176 A 
ATOM     19  C   UNL A   1      40.280 -38.035 -29.182  0.00  0.00    -0.005 A 
ATOM     20  C   UNL A   1      40.730 -37.056 -30.103  0.00  0.00    +0.021 A 
ATOM     21  C   UNL A   1      41.979 -36.581 -30.537  0.00  0.00    -0.051 A 
ATOM     22  C   UNL A   1      42.014 -35.570 -31.507  0.00  0.00    -0.061 A 
ATOM     23  C   UNL A   1      40.835 -35.041 -32.039  0.00  0.00    -0.058 A 
ATOM     24  C   UNL A   1      39.582 -35.500 -31.620  0.00  0.00    -0.019 A 
ATOM     25  C   UNL A   1      39.580 -36.503 -30.654  0.00  0.00    +0.136 A 
ATOM     26  O   UNL A   1      38.471 -37.083 -30.117  0.00  0.00    -0.452 OA
ENDBRANCH  17  18
ENDBRANCH   1  17
TORSDOF 5
ENDMDL
MODEL 3
REMARK VINA RESULT:    -7.950      3.200      6.010
REMARK INTER + INTRA:         -11.124
REMARK INTER:                 -10.462
REMARK INTRA:                  -0.663
REMARK UNBOUND:                -0.851
REMARK  Name = cpd131.pdb
REMARK  5 active torsions:
REMARK  status: ('A' for Active; 'I' for Inactive)
REMARK    1  A    between atoms: C_2  and  C_3
REMARK    2  A    between atoms: C_2  and  C_18
REMARK    3  A    between atoms: C_4  and  C_5
REMARK    4  A    between atoms: N_9  and  C_10
REMARK    5  A    between atoms: C_10  and  C_11
REMARK                            x       y       z     vdW  Elec       q    Type
REMARK                         _______ _______ _______ _____ _____    ______ ____
ROOT
ATOM      1  C   UNL A   1      35.556 -36.043 -29.604  0.00  0.00    -0.011 C 
ATOM      2  C   UNL A   1      35.442 -34.725 -29.827  0.00  0.00    -0.049 C 
ENDROOT
BRANCH   2   3
ATOM      3  C   UNL A   1      34.264 -34.104 -30.447  0.00  0.00    -0.009 A 
ATOM      4  C   UNL A   1      33.433 -34.792 -31.334  0.00  0.00    -0.052 A 
ATOM      5  C   UNL A   1      32.318 -34.159 -31.873  0.00  0.00    -0.045 A 
ATOM      6  C   UNL A   1      32.037 -32.849 -31.511  0.00  0.00    +0.005 A 
ATOM      7  N   UNL A   1      32.831 -32.191 -30.634  0.00  0.00    -0.348 N 
ATOM      8  C   UNL A   1      33.922 -32.794 -30.103  0.00  0.00    +0.012 A 
BRANCH   7   9
ATOM      9  C   UNL A   1      32.507 -30.789 -30.264  0.00  0.00    +0.048 C 
BRANCH   9  10
ATOM     10  C   UNL A   1      31.095 -30.672 -29.751  0.00  0.00    -0.028 A 
ATOM     11  C   UNL A   1      30.730 -31.224 -28.513  0.00  0.00    -0.057 A 
ATOM     12  C   UNL A   1      29.417 -31.116 -28.052  0.00  0.00    -0.061 A 
ATOM     13  C   UNL A   1      28.459 -30.454 -28.816  0.00  0.00    -0.062 A 
ATOM     14  C   UNL A   1      28.812 -29.892 -30.040  0.00  0.00    -0.061 A 
ATOM     15  C   UNL A   1      30.123 -29.996 -30.507  0.00  0.00    -0.057 A 
ENDBRANCH   9  10
ENDBRANCH   7   9
ENDBRANCH   2   3
BRANCH   1  17
ATOM     16  O   UNL A   1      36.542 -37.132 -27.812  0.00  0.00    -0.284 OA
ATOM     17  C   UNL A   1      36.725 -36.718 -28.958  0.00  0.00    +0.221 C 
BRANCH  17  18
ATOM     18  C   UNL A   1      37.984 -36.883 -29.656  0.00  0.00    +0.176 A 
ATOM     19  C   UNL A   1      38.416 -36.328 -30.847  0.00  0.00    -0.005 A 
ATOM     20  C   UNL A   1      39.741 -36.781 -31.064  0.00  0.00    +0.021 A 
ATOM     21  C   UNL A   1      40.718 -36.594 -32.057  0.00  0.00    -0.051 A 
ATOM     22  C   UNL A   1      41.960 -37.227 -31.905  0.00  0.00    -0.061 A 
ATOM     23  C   UNL A   1      42.229 -38.027 -30.792  0.00  0.00    -0.058 A 
ATOM     24  C   UNL A   1      41.270 -38.224 -29.793  0.00  0.00    -0.019 A 
ATOM     25  C   UNL A   1      40.047 -37.584 -29.973  0.00  0.00    +0.136 A 
ATOM     26  O   UNL A   1      38.987 -37.648 -29.119  0.00  0.00    -0.452 OA
ENDBRANCH  17  18
ENDBRANCH   1  17
TORSDOF 5
ENDMDL
MODEL 4
REMARK VINA RESULT:    -7.919      4.757      5.934
REMARK INTER + INTRA:         -11.084
REMARK INTER:                 -10.902
REMARK INTRA:                  -0.182
REMARK UNBOUND:                -0.851
REMARK  Name = cpd131.pdb
REMARK  5 active torsions:
REMARK  status: ('A' for Active; 'I' for Inactive)
REMARK    1  A    between atoms: C_2  and  C_3
REMARK    2  A    between atoms: C_2  and  C_18
REMARK    3  A    between atoms: C_4  and  C_5
REMARK    4  A    between atoms: N_9  and  C_10
REMARK    5  A    between atoms: C_10  and  C_11
REMARK                            x       y       z     vdW  Elec       q    Type
REMARK                         _______ _______ _______ _____ _____    ______ ____
ROOT
ATOM      1  C   UNL A   1      36.001 -37.715 -28.212  0.00  0.00    -0.011 C 
ATOM      2  C   UNL A   1      35.454 -37.666 -26.988  0.00  0.00    -0.049 C 
ENDROOT
BRANCH   2   3
ATOM      3  C   UNL A   1      34.200 -36.964 -26.685  0.00  0.00    -0.009 A 
ATOM      4  C   UNL A   1      33.567 -36.129 -27.607  0.00  0.00    -0.052 A 
ATOM      5  C   UNL A   1      32.368 -35.509 -27.274  0.00  0.00    -0.045 A 
ATOM      6  C   UNL A   1      31.806 -35.740 -26.025  0.00  0.00    +0.005 A 
ATOM      7  N   UNL A   1      32.410 -36.567 -25.141  0.00  0.00    -0.348 N 
ATOM      8  C   UNL A   1      33.580 -37.176 -25.451  0.00  0.00    +0.012 A 
BRANCH   7   9
ATOM      9  C   UNL A   1      31.787 -36.796 -23.811  0.00  0.00    +0.048 C 
BRANCH   9  10
ATOM     10  C   UNL A   1      32.828 -37.091 -22.763  0.00  0.00    -0.028 A 
ATOM     11  C   UNL A   1      32.653 -38.143 -21.849  0.00  0.00    -0.057 A 
ATOM     12  C   UNL A   1      33.620 -38.402 -20.877  0.00  0.00    -0.061 A 
ATOM     13  C   UNL A   1      34.771 -37.620 -20.810  0.00  0.00    -0.062 A 
ATOM     14  C   UNL A   1      34.962 -36.582 -21.718  0.00  0.00    -0.061 A 
ATOM     15  C   UNL A   1      33.998 -36.318 -22.692  0.00  0.00    -0.057 A 
ENDBRANCH   9  10
ENDBRANCH   7   9
ENDBRANCH   2   3
BRANCH   1  17
ATOM     16  O   UNL A   1      37.366 -39.587 -28.151  0.00  0.00    -0.284 OA
ATOM     17  C   UNL A   1      37.264 -38.434 -28.572  0.00  0.00    +0.221 C 
BRANCH  17  18
ATOM     18  C   UNL A   1      38.287 -37.805 -29.381  0.00  0.00    +0.176 A 
ATOM     19  C   UNL A   1      39.661 -37.790 -29.219  0.00  0.00    -0.005 A 
ATOM     20  C   UNL A   1      40.205 -37.068 -30.311  0.00  0.00    +0.021 A 
ATOM     21  C   UNL A   1      41.494 -36.697 -30.730  0.00  0.00    -0.051 A 
ATOM     22  C   UNL A   1      41.629 -35.964 -31.916  0.00  0.00    -0.061 A 
ATOM     23  C   UNL A   1      40.512 -35.605 -32.674  0.00  0.00    -0.058 A 
ATOM     24  C   UNL A   1      39.220 -35.965 -32.273  0.00  0.00    -0.019 A 
ATOM     25  C   UNL A   1      39.118 -36.691 -31.090  0.00  0.00    +0.136 A 
ATOM     26  O   UNL A   1      37.957 -37.136 -30.532  0.00  0.00    -0.452 OA
ENDBRANCH  17  18
ENDBRANCH   1  17
TORSDOF 5
ENDMDL
MODEL 5
REMARK VINA RESULT:    -7.880      3.251      8.540
REMARK INTER + INTRA:         -11.034
REMARK INTER:                 -10.725
REMARK INTRA:                  -0.309
REMARK UNBOUND:                -0.851
REMARK  Name = cpd131.pdb
REMARK  5 active torsions:
REMARK  status: ('A' for Active; 'I' for Inactive)
REMARK    1  A    between atoms: C_2  and  C_3
REMARK    2  A    between atoms: C_2  and  C_18
REMARK    3  A    between atoms: C_4  and  C_5
REMARK    4  A    between atoms: N_9  and  C_10
REMARK    5  A    between atoms: C_10  and  C_11
REMARK                            x       y       z     vdW  Elec       q    Type
REMARK                         _______ _______ _______ _____ _____    ______ ____
ROOT
ATOM      1  C   UNL A   1      34.482 -33.832 -31.232  0.00  0.00    -0.011 C 
ATOM      2  C   UNL A   1      35.087 -34.371 -30.162  0.00  0.00    -0.049 C 
ENDROOT
BRANCH   2   3
ATOM      3  C   UNL A   1      35.578 -35.754 -30.116  0.00  0.00    -0.009 A 
ATOM      4  C   UNL A   1      34.758 -36.850 -30.390  0.00  0.00    -0.052 A 
ATOM      5  C   UNL A   1      35.285 -38.137 -30.354  0.00  0.00    -0.045 A 
ATOM      6  C   UNL A   1      36.629 -38.315 -30.055  0.00  0.00    +0.005 A 
ATOM      7  N   UNL A   1      37.427 -37.249 -29.811  0.00  0.00    -0.348 N 
ATOM      8  C   UNL A   1      36.927 -35.990 -29.840  0.00  0.00    +0.012 A 
BRANCH   7   9
ATOM      9  C   UNL A   1      38.862 -37.469 -29.493  0.00  0.00    +0.048 C 
BRANCH   9  10
ATOM     10  C   UNL A   1      39.740 -37.130 -30.669  0.00  0.00    -0.028 A 
ATOM     11  C   UNL A   1      39.290 -36.264 -31.680  0.00  0.00    -0.057 A 
ATOM     12  C   UNL A   1      40.109 -35.965 -32.769  0.00  0.00    -0.061 A 
ATOM     13  C   UNL A   1      41.384 -36.518 -32.858  0.00  0.00    -0.062 A 
ATOM     14  C   UNL A   1      41.847 -37.367 -31.856  0.00  0.00    -0.061 A 
ATOM     15  C   UNL A   1      41.032 -37.672 -30.765  0.00  0.00    -0.057 A 
ENDBRANCH   9  10
ENDBRANCH   7   9
ENDBRANCH   2   3
BRANCH   1  17
ATOM     16  O   UNL A   1      34.625 -31.679 -32.075  0.00  0.00    -0.284 OA
ATOM     17  C   UNL A   1      33.984 -32.425 -31.333  0.00  0.00    +0.221 C 
BRANCH  17  18
ATOM     18  C   UNL A   1      32.808 -31.985 -30.610  0.00  0.00    +0.176 A 
ATOM     19  C   UNL A   1      32.491 -30.734 -30.112  0.00  0.00    -0.005 A 
ATOM     20  C   UNL A   1      31.205 -30.830 -29.525  0.00  0.00    +0.021 A 
ATOM     21  C   UNL A   1      30.332 -29.950 -28.863  0.00  0.00    -0.051 A 
ATOM     22  C   UNL A   1      29.094 -30.436 -28.421  0.00  0.00    -0.061 A 
ATOM     23  C   UNL A   1      28.726 -31.767 -28.631  0.00  0.00    -0.058 A 
ATOM     24  C   UNL A   1      29.581 -32.659 -29.289  0.00  0.00    -0.019 A 
ATOM     25  C   UNL A   1      30.804 -32.147 -29.714  0.00  0.00    +0.136 A 
ATOM     26  O   UNL A   1      31.770 -32.847 -30.371  0.00  0.00    -0.452 OA
ENDBRANCH  17  18
ENDBRANCH   1  17
TORSDOF 5
ENDMDL
MODEL 6
REMARK VINA RESULT:    -7.683      4.495      5.572
REMARK INTER + INTRA:         -10.779
REMARK INTER:                 -10.502
REMARK INTRA:                  -0.276
REMARK UNBOUND:                -0.851
REMARK  Name = cpd131.pdb
REMARK  5 active torsions:
REMARK  status: ('A' for Active; 'I' for Inactive)
REMARK    1  A    between atoms: C_2  and  C_3
REMARK    2  A    between atoms: C_2  and  C_18
REMARK    3  A    between atoms: C_4  and  C_5
REMARK    4  A    between atoms: N_9  and  C_10
REMARK    5  A    between atoms: C_10  and  C_11
REMARK                            x       y       z     vdW  Elec       q    Type
REMARK                         _______ _______ _______ _____ _____    ______ ____
ROOT
ATOM      1  C   UNL A   1      35.605 -36.345 -29.530  0.00  0.00    -0.011 C 
ATOM      2  C   UNL A   1      35.900 -36.943 -28.364  0.00  0.00    -0.049 C 
ENDROOT
BRANCH   2   3
ATOM      3  C   UNL A   1      34.892 -37.540 -27.478  0.00  0.00    -0.009 A 
ATOM      4  C   UNL A   1      34.558 -38.894 -27.528  0.00  0.00    -0.052 A 
ATOM      5  C   UNL A   1      33.612 -39.409 -26.649  0.00  0.00    -0.045 A 
ATOM      6  C   UNL A   1      33.017 -38.567 -25.719  0.00  0.00    +0.005 A 
ATOM      7  N   UNL A   1      33.358 -37.258 -25.658  0.00  0.00    -0.348 N 
ATOM      8  C   UNL A   1      34.276 -36.742 -26.510  0.00  0.00    +0.012 A 
BRANCH   7   9
ATOM      9  C   UNL A   1      32.705 -36.379 -24.653  0.00  0.00    +0.048 C 
BRANCH   9  10
ATOM     10  C   UNL A   1      32.794 -36.970 -23.270  0.00  0.00    -0.028 A 
ATOM     11  C   UNL A   1      31.656 -37.490 -22.633  0.00  0.00    -0.057 A 
ATOM     12  C   UNL A   1      31.749 -38.027 -21.348  0.00  0.00    -0.061 A 
ATOM     13  C   UNL A   1      32.975 -38.055 -20.690  0.00  0.00    -0.062 A 
ATOM     14  C   UNL A   1      34.114 -37.553 -21.315  0.00  0.00    -0.061 A 
ATOM     15  C   UNL A   1      34.027 -37.015 -22.600  0.00  0.00    -0.057 A 
ENDBRANCH   9  10
ENDBRANCH   7   9
ENDBRANCH   2   3
BRANCH   1  17
ATOM     16  O   UNL A   1      36.192 -34.796 -31.150  0.00  0.00    -0.284 OA
ATOM     17  C   UNL A   1      36.598 -35.743 -30.473  0.00  0.00    +0.221 C 
BRANCH  17  18
ATOM     18  C   UNL A   1      37.955 -36.240 -30.561  0.00  0.00    +0.176 A 
ATOM     19  C   UNL A   1      38.645 -37.089 -29.714  0.00  0.00    -0.005 A 
ATOM     20  C   UNL A   1      39.929 -37.292 -30.278  0.00  0.00    +0.021 A 
ATOM     21  C   UNL A   1      41.078 -38.021 -29.928  0.00  0.00    -0.051 A 
ATOM     22  C   UNL A   1      42.189 -37.975 -30.781  0.00  0.00    -0.061 A 
ATOM     23  C   UNL A   1      42.163 -37.224 -31.959  0.00  0.00    -0.058 A 
ATOM     24  C   UNL A   1      41.029 -36.492 -32.325  0.00  0.00    -0.019 A 
ATOM     25  C   UNL A   1      39.942 -36.556 -31.456  0.00  0.00    +0.136 A 
ATOM     26  O   UNL A   1      38.751 -35.919 -31.631  0.00  0.00    -0.452 OA
ENDBRANCH  17  18
ENDBRANCH   1  17
TORSDOF 5
ENDMDL
MODEL 7
REMARK VINA RESULT:    -7.656     16.210     18.357
REMARK INTER + INTRA:         -10.744
REMARK INTER:                 -10.099
REMARK INTRA:                  -0.646
REMARK UNBOUND:                -0.851
REMARK  Name = cpd131.pdb
REMARK  5 active torsions:
REMARK  status: ('A' for Active; 'I' for Inactive)
REMARK    1  A    between atoms: C_2  and  C_3
REMARK    2  A    between atoms: C_2  and  C_18
REMARK    3  A    between atoms: C_4  and  C_5
REMARK    4  A    between atoms: N_9  and  C_10
REMARK    5  A    between atoms: C_10  and  C_11
REMARK                            x       y       z     vdW  Elec       q    Type
REMARK                         _______ _______ _______ _____ _____    ______ ____
ROOT
ATOM      1  C   UNL A   1      43.227 -20.638 -37.657  0.00  0.00    -0.011 C 
ATOM      2  C   UNL A   1      42.846 -20.840 -36.386  0.00  0.00    -0.049 C 
ENDROOT
BRANCH   2   3
ATOM      3  C   UNL A   1      41.557 -21.434 -36.009  0.00  0.00    -0.009 A 
ATOM      4  C   UNL A   1      40.767 -22.147 -36.912  0.00  0.00    -0.052 A 
ATOM      5  C   UNL A   1      39.566 -22.709 -36.491  0.00  0.00    -0.045 A 
ATOM      6  C   UNL A   1      39.172 -22.562 -35.168  0.00  0.00    +0.005 A 
ATOM      7  N   UNL A   1      39.951 -21.889 -34.289  0.00  0.00    -0.348 N 
ATOM      8  C   UNL A   1      41.121 -21.335 -34.685  0.00  0.00    +0.012 A 
BRANCH   7   9
ATOM      9  C   UNL A   1      39.504 -21.748 -32.879  0.00  0.00    +0.048 C 
BRANCH   9  10
ATOM     10  C   UNL A   1      38.433 -20.697 -32.748  0.00  0.00    -0.028 A 
ATOM     11  C   UNL A   1      37.072 -21.046 -32.777  0.00  0.00    -0.057 A 
ATOM     12  C   UNL A   1      36.089 -20.063 -32.664  0.00  0.00    -0.061 A 
ATOM     13  C   UNL A   1      36.450 -18.727 -32.514  0.00  0.00    -0.062 A 
ATOM     14  C   UNL A   1      37.795 -18.368 -32.471  0.00  0.00    -0.061 A 
ATOM     15  C   UNL A   1      38.783 -19.347 -32.585  0.00  0.00    -0.057 A 
ENDBRANCH   9  10
ENDBRANCH   7   9
ENDBRANCH   2   3
BRANCH   1  17
ATOM     16  O   UNL A   1      44.786 -18.923 -37.674  0.00  0.00    -0.284 OA
ATOM     17  C   UNL A   1      44.536 -20.056 -38.090  0.00  0.00    +0.221 C 
BRANCH  17  18
ATOM     18  C   UNL A   1      45.452 -20.797 -38.932  0.00  0.00    +0.176 A 
ATOM     19  C   UNL A   1      46.764 -21.171 -38.700  0.00  0.00    -0.005 A 
ATOM     20  C   UNL A   1      47.192 -21.918 -39.826  0.00  0.00    +0.021 A 
ATOM     21  C   UNL A   1      48.379 -22.565 -40.212  0.00  0.00    -0.051 A 
ATOM     22  C   UNL A   1      48.410 -23.231 -41.444  0.00  0.00    -0.061 A 
ATOM     23  C   UNL A   1      47.289 -23.258 -42.278  0.00  0.00    -0.058 A 
ATOM     24  C   UNL A   1      46.099 -22.621 -41.911  0.00  0.00    -0.019 A 
ATOM     25  C   UNL A   1      46.099 -21.967 -40.682  0.00  0.00    +0.136 A 
ATOM     26  O   UNL A   1      45.045 -21.291 -40.145  0.00  0.00    -0.452 OA
ENDBRANCH  17  18
ENDBRANCH   1  17
TORSDOF 5
ENDMDL
MODEL 8
REMARK VINA RESULT:    -7.634      4.502      8.594
REMARK INTER + INTRA:         -10.716
REMARK INTER:                 -10.039
REMARK INTRA:                  -0.677
REMARK UNBOUND:                -0.851
REMARK  Name = cpd131.pdb
REMARK  5 active torsions:
REMARK  status: ('A' for Active; 'I' for Inactive)
REMARK    1  A    between atoms: C_2  and  C_3
REMARK    2  A    between atoms: C_2  and  C_18
REMARK    3  A    between atoms: C_4  and  C_5
REMARK    4  A    between atoms: N_9  and  C_10
REMARK    5  A    between atoms: C_10  and  C_11
REMARK                            x       y       z     vdW  Elec       q    Type
REMARK                         _______ _______ _______ _____ _____    ______ ____
ROOT
ATOM      1  C   UNL A   1      34.864 -40.883 -32.759  0.00  0.00    -0.011 C 
ATOM      2  C   UNL A   1      34.572 -40.404 -31.540  0.00  0.00    -0.049 C 
ENDROOT
BRANCH   2   3
ATOM      3  C   UNL A   1      35.566 -40.237 -30.472  0.00  0.00    -0.009 A 
ATOM      4  C   UNL A   1      36.041 -41.310 -29.716  0.00  0.00    -0.052 A 
ATOM      5  C   UNL A   1      37.001 -41.095 -28.733  0.00  0.00    -0.045 A 
ATOM      6  C   UNL A   1      37.485 -39.811 -28.522  0.00  0.00    +0.005 A 
ATOM      7  N   UNL A   1      37.038 -38.776 -29.271  0.00  0.00    -0.348 N 
ATOM      8  C   UNL A   1      36.102 -38.969 -30.230  0.00  0.00    +0.012 A 
BRANCH   7   9
ATOM      9  C   UNL A   1      37.573 -37.412 -29.023  0.00  0.00    +0.048 C 
BRANCH   9  10
ATOM     10  C   UNL A   1      38.639 -37.053 -30.025  0.00  0.00    -0.028 A 
ATOM     11  C   UNL A   1      38.367 -36.171 -31.084  0.00  0.00    -0.057 A 
ATOM     12  C   UNL A   1      39.360 -35.852 -32.011  0.00  0.00    -0.061 A 
ATOM     13  C   UNL A   1      40.633 -36.403 -31.889  0.00  0.00    -0.062 A 
ATOM     14  C   UNL A   1      40.920 -37.270 -30.837  0.00  0.00    -0.061 A 
ATOM     15  C   UNL A   1      39.930 -37.593 -29.907  0.00  0.00    -0.057 A 
ENDBRANCH   9  10
ENDBRANCH   7   9
ENDBRANCH   2   3
BRANCH   1  17
ATOM     16  O   UNL A   1      33.243 -40.048 -34.189  0.00  0.00    -0.284 OA
ATOM     17  C   UNL A   1      33.891 -41.051 -33.884  0.00  0.00    +0.221 C 
BRANCH  17  18
ATOM     18  C   UNL A   1      33.744 -42.316 -34.574  0.00  0.00    +0.176 A 
ATOM     19  C   UNL A   1      32.930 -42.653 -35.641  0.00  0.00    -0.005 A 
ATOM     20  C   UNL A   1      33.199 -44.008 -35.961  0.00  0.00    +0.021 A 
ATOM     21  C   UNL A   1      32.728 -44.930 -36.911  0.00  0.00    -0.051 A 
ATOM     22  C   UNL A   1      33.268 -46.223 -36.917  0.00  0.00    -0.061 A 
ATOM     23  C   UNL A   1      34.256 -46.596 -36.003  0.00  0.00    -0.058 A 
ATOM     24  C   UNL A   1      34.739 -45.692 -35.050  0.00  0.00    -0.019 A 
ATOM     25  C   UNL A   1      34.182 -44.416 -35.068  0.00  0.00    +0.136 A 
ATOM     26  O   UNL A   1      34.514 -43.396 -34.229  0.00  0.00    -0.452 OA
ENDBRANCH  17  18
ENDBRANCH   1  17
TORSDOF 5
ENDMDL
MODEL 9
REMARK VINA RESULT:    -7.497      3.701      6.563
REMARK INTER + INTRA:         -10.540
REMARK INTER:                  -9.908
REMARK INTRA:                  -0.631
REMARK UNBOUND:                -0.851
REMARK  Name = cpd131.pdb
REMARK  5 active torsions:
REMARK  status: ('A' for Active; 'I' for Inactive)
REMARK    1  A    between atoms: C_2  and  C_3
REMARK    2  A    between atoms: C_2  and  C_18
REMARK    3  A    between atoms: C_4  and  C_5
REMARK    4  A    between atoms: N_9  and  C_10
REMARK    5  A    between atoms: C_10  and  C_11
REMARK                            x       y       z     vdW  Elec       q    Type
REMARK                         _______ _______ _______ _____ _____    ______ ____
ROOT
ATOM      1  C   UNL A   1      35.171 -34.897 -30.055  0.00  0.00    -0.011 C 
ATOM      2  C   UNL A   1      33.853 -34.729 -29.864  0.00  0.00    -0.049 C 
ENDROOT
BRANCH   2   3
ATOM      3  C   UNL A   1      33.158 -33.450 -30.061  0.00  0.00    -0.009 A 
ATOM      4  C   UNL A   1      33.841 -32.243 -30.219  0.00  0.00    -0.052 A 
ATOM      5  C   UNL A   1      33.130 -31.066 -30.426  0.00  0.00    -0.045 A 
ATOM      6  C   UNL A   1      31.744 -31.108 -30.486  0.00  0.00    +0.005 A 
ATOM      7  N   UNL A   1      31.085 -32.283 -30.354  0.00  0.00    -0.348 N 
ATOM      8  C   UNL A   1      31.764 -33.438 -30.149  0.00  0.00    +0.012 A 
BRANCH   7   9
ATOM      9  C   UNL A   1      29.601 -32.299 -30.421  0.00  0.00    +0.048 C 
BRANCH   9  10
ATOM     10  C   UNL A   1      28.999 -31.310 -29.458  0.00  0.00    -0.028 A 
ATOM     11  C   UNL A   1      28.301 -30.183 -29.924  0.00  0.00    -0.057 A 
ATOM     12  C   UNL A   1      27.756 -29.269 -29.022  0.00  0.00    -0.061 A 
ATOM     13  C   UNL A   1      27.895 -29.470 -27.651  0.00  0.00    -0.062 A 
ATOM     14  C   UNL A   1      28.575 -30.589 -27.177  0.00  0.00    -0.061 A 
ATOM     15  C   UNL A   1      29.123 -31.507 -28.073  0.00  0.00    -0.057 A 
ENDBRANCH   9  10
ENDBRANCH   7   9
ENDBRANCH   2   3
BRANCH   1  17
ATOM     16  O   UNL A   1      35.300 -37.096 -29.337  0.00  0.00    -0.284 OA
ATOM     17  C   UNL A   1      35.917 -36.183 -29.887  0.00  0.00    +0.221 C 
BRANCH  17  18
ATOM     18  C   UNL A   1      37.277 -36.336 -30.364  0.00  0.00    +0.176 A 
ATOM     19  C   UNL A   1      38.354 -36.975 -29.778  0.00  0.00    -0.005 A 
ATOM     20  C   UNL A   1      39.444 -36.870 -30.677  0.00  0.00    +0.021 A 
ATOM     21  C   UNL A   1      40.785 -37.291 -30.687  0.00  0.00    -0.051 A 
ATOM     22  C   UNL A   1      41.575 -36.992 -31.806  0.00  0.00    -0.061 A 
ATOM     23  C   UNL A   1      41.048 -36.291 -32.894  0.00  0.00    -0.058 A 
ATOM     24  C   UNL A   1      39.715 -35.864 -32.903  0.00  0.00    -0.019 A 
ATOM     25  C   UNL A   1      38.957 -36.175 -31.777  0.00  0.00    +0.136 A 
ATOM     26  O   UNL A   1      37.647 -35.851 -31.591  0.00  0.00    -0.452 OA
ENDBRANCH  17  18
ENDBRANCH   1  17
TORSDOF 5
ENDMDL
MODEL 10
REMARK VINA RESULT:    -7.494      2.935      5.246
REMARK INTER + INTRA:         -10.535
REMARK INTER:                  -9.793
REMARK INTRA:                  -0.742
REMARK UNBOUND:                -0.851
REMARK  Name = cpd131.pdb
REMARK  5 active torsions:
REMARK  status: ('A' for Active; 'I' for Inactive)
REMARK    1  A    between atoms: C_2  and  C_3
REMARK    2  A    between atoms: C_2  and  C_18
REMARK    3  A    between atoms: C_4  and  C_5
REMARK    4  A    between atoms: N_9  and  C_10
REMARK    5  A    between atoms: C_10  and  C_11
REMARK                            x       y       z     vdW  Elec       q    Type
REMARK                         _______ _______ _______ _____ _____    ______ ____
ROOT
ATOM      1  C   UNL A   1      35.051 -36.039 -30.206  0.00  0.00    -0.011 C 
ATOM      2  C   UNL A   1      35.195 -34.793 -29.729  0.00  0.00    -0.049 C 
ENDROOT
BRANCH   2   3
ATOM      3  C   UNL A   1      34.171 -33.748 -29.860  0.00  0.00    -0.009 A 
ATOM      4  C   UNL A   1      34.488 -32.422 -30.162  0.00  0.00    -0.052 A 
ATOM      5  C   UNL A   1      33.474 -31.480 -30.297  0.00  0.00    -0.045 A 
ATOM      6  C   UNL A   1      32.152 -31.875 -30.140  0.00  0.00    +0.005 A 
ATOM      7  N   UNL A   1      31.846 -33.165 -29.869  0.00  0.00    -0.348 N 
ATOM      8  C   UNL A   1      32.823 -34.093 -29.732  0.00  0.00    +0.012 A 
BRANCH   7   9
ATOM      9  C   UNL A   1      30.423 -33.560 -29.706  0.00  0.00    +0.048 C 
BRANCH   9  10
ATOM     10  C   UNL A   1      29.709 -33.592 -31.032  0.00  0.00    -0.028 A 
ATOM     11  C   UNL A   1      28.897 -32.521 -31.440  0.00  0.00    -0.057 A 
ATOM     12  C   UNL A   1      28.233 -32.566 -32.667  0.00  0.00    -0.061 A 
ATOM     13  C   UNL A   1      28.377 -33.673 -33.500  0.00  0.00    -0.062 A 
ATOM     14  C   UNL A   1      29.189 -34.736 -33.112  0.00  0.00    -0.061 A 
ATOM     15  C   UNL A   1      29.855 -34.697 -31.886  0.00  0.00    -0.057 A 
ENDBRANCH   9  10
ENDBRANCH   7   9
ENDBRANCH   2   3
BRANCH   1  17
ATOM     16  O   UNL A   1      35.618 -38.227 -29.695  0.00  0.00    -0.284 OA
ATOM     17  C   UNL A   1      36.055 -37.141 -30.079  0.00  0.00    +0.221 C 
BRANCH  17  18
ATOM     18  C   UNL A   1      37.451 -36.934 -30.407  0.00  0.00    +0.176 A 
ATOM     19  C   UNL A   1      38.589 -37.398 -29.772  0.00  0.00    -0.005 A 
ATOM     20  C   UNL A   1      39.702 -36.943 -30.522  0.00  0.00    +0.021 A 
ATOM     21  C   UNL A   1      41.099 -37.060 -30.421  0.00  0.00    -0.051 A 
ATOM     22  C   UNL A   1      41.897 -36.454 -31.401  0.00  0.00    -0.061 A 
ATOM     23  C   UNL A   1      41.324 -35.746 -32.460  0.00  0.00    -0.058 A 
ATOM     24  C   UNL A   1      39.935 -35.618 -32.578  0.00  0.00    -0.019 A 
ATOM     25  C   UNL A   1      39.170 -36.230 -31.589  0.00  0.00    +0.136 A 
ATOM     26  O   UNL A   1      37.809 -36.223 -31.524  0.00  0.00    -0.452 OA
ENDBRANCH  17  18
ENDBRANCH   1  17
TORSDOF 5
ENDMDL
MODEL 11
REMARK VINA RESULT:    -7.382      3.574      8.382
REMARK INTER + INTRA:         -10.391
REMARK INTER:                  -9.599
REMARK INTRA:                  -0.792
REMARK UNBOUND:                -0.851
REMARK  Name = cpd131.pdb
REMARK  5 active torsions:
REMARK  status: ('A' for Active; 'I' for Inactive)
REMARK    1  A    between atoms: C_2  and  C_3
REMARK    2  A    between atoms: C_2  and  C_18
REMARK    3  A    between atoms: C_4  and  C_5
REMARK    4  A    between atoms: N_9  and  C_10
REMARK    5  A    between atoms: C_10  and  C_11
REMARK                            x       y       z     vdW  Elec       q    Type
REMARK                         _______ _______ _______ _____ _____    ______ ____
ROOT
ATOM      1  C   UNL A   1      34.437 -33.714 -30.483  0.00  0.00    -0.011 C 
ATOM      2  C   UNL A   1      33.778 -34.402 -29.537  0.00  0.00    -0.049 C 
ENDROOT
BRANCH   2   3
ATOM      3  C   UNL A   1      34.290 -35.633 -28.922  0.00  0.00    -0.009 A 
ATOM      4  C   UNL A   1      33.938 -36.028 -27.630  0.00  0.00    -0.052 A 
ATOM      5  C   UNL A   1      34.436 -37.217 -27.108  0.00  0.00    -0.045 A 
ATOM      6  C   UNL A   1      35.272 -38.006 -27.886  0.00  0.00    +0.005 A 
ATOM      7  N   UNL A   1      35.595 -37.632 -29.147  0.00  0.00    -0.348 N 
ATOM      8  C   UNL A   1      35.120 -36.475 -29.668  0.00  0.00    +0.012 A 
BRANCH   7   9
ATOM      9  C   UNL A   1      36.492 -38.495 -29.957  0.00  0.00    +0.048 C 
BRANCH   9  10
ATOM     10  C   UNL A   1      37.886 -37.929 -30.019  0.00  0.00    -0.028 A 
ATOM     11  C   UNL A   1      38.262 -37.049 -31.047  0.00  0.00    -0.057 A 
ATOM     12  C   UNL A   1      39.560 -36.537 -31.099  0.00  0.00    -0.061 A 
ATOM     13  C   UNL A   1      40.491 -36.892 -30.126  0.00  0.00    -0.062 A 
ATOM     14  C   UNL A   1      40.127 -37.754 -29.095  0.00  0.00    -0.061 A 
ATOM     15  C   UNL A   1      38.831 -38.269 -29.037  0.00  0.00    -0.057 A 
ENDBRANCH   9  10
ENDBRANCH   7   9
ENDBRANCH   2   3
BRANCH   1  17
ATOM     16  O   UNL A   1      34.780 -31.875 -31.850  0.00  0.00    -0.284 OA
ATOM     17  C   UNL A   1      33.966 -32.446 -31.123  0.00  0.00    +0.221 C 
BRANCH  17  18
ATOM     18  C   UNL A   1      32.625 -31.942 -30.906  0.00  0.00    +0.176 A 
ATOM     19  C   UNL A   1      31.464 -32.179 -31.620  0.00  0.00    -0.005 A 
ATOM     20  C   UNL A   1      30.420 -31.478 -30.966  0.00  0.00    +0.021 A 
ATOM     21  C   UNL A   1      29.041 -31.305 -31.172  0.00  0.00    -0.051 A 
ATOM     22  C   UNL A   1      28.320 -30.515 -30.267  0.00  0.00    -0.061 A 
ATOM     23  C   UNL A   1      28.951 -29.910 -29.177  0.00  0.00    -0.058 A 
ATOM     24  C   UNL A   1      30.323 -30.070 -28.954  0.00  0.00    -0.019 A 
ATOM     25  C   UNL A   1      31.012 -30.859 -29.872  0.00  0.00    +0.136 A 
ATOM     26  O   UNL A   1      32.344 -31.138 -29.832  0.00  0.00    -0.452 OA
ENDBRANCH  17  18
ENDBRANCH   1  17
TORSDOF 5
ENDMDL
MODEL 12
REMARK VINA RESULT:    -7.292     16.320     19.883
REMARK INTER + INTRA:         -10.274
REMARK INTER:                  -9.848
REMARK INTRA:                  -0.426
REMARK UNBOUND:                -0.851
REMARK  Name = cpd131.pdb
REMARK  5 active torsions:
REMARK  status: ('A' for Active; 'I' for Inactive)
REMARK    1  A    between atoms: C_2  and  C_3
REMARK    2  A    between atoms: C_2  and  C_18
REMARK    3  A    between atoms: C_4  and  C_5
REMARK    4  A    between atoms: N_9  and  C_10
REMARK    5  A    between atoms: C_10  and  C_11
REMARK                            x       y       z     vdW  Elec       q    Type
REMARK                         _______ _______ _______ _____ _____    ______ ____
ROOT
ATOM      1  C   UNL A   1      42.078 -21.806 -39.112  0.00  0.00    -0.011 C 
ATOM      2  C   UNL A   1      42.172 -20.471 -39.205  0.00  0.00    -0.049 C 
ENDROOT
BRANCH   2   3
ATOM      3  C   UNL A   1      43.370 -19.772 -39.690  0.00  0.00    -0.009 A 
ATOM      4  C   UNL A   1      43.312 -18.509 -40.281  0.00  0.00    -0.052 A 
ATOM      5  C   UNL A   1      44.483 -17.885 -40.701  0.00  0.00    -0.045 A 
ATOM      6  C   UNL A   1      45.700 -18.525 -40.515  0.00  0.00    +0.005 A 
ATOM      7  N   UNL A   1      45.755 -19.741 -39.921  0.00  0.00    -0.348 N 
ATOM      8  C   UNL A   1      44.624 -20.361 -39.510  0.00  0.00    +0.012 A 
BRANCH   7   9
ATOM      9  C   UNL A   1      47.072 -20.403 -39.735  0.00  0.00    +0.048 C 
BRANCH   9  10
ATOM     10  C   UNL A   1      47.233 -21.572 -40.671  0.00  0.00    -0.028 A 
ATOM     11  C   UNL A   1      48.336 -22.436 -40.565  0.00  0.00    -0.057 A 
ATOM     12  C   UNL A   1      48.479 -23.510 -41.444  0.00  0.00    -0.061 A 
ATOM     13  C   UNL A   1      47.523 -23.738 -42.431  0.00  0.00    -0.062 A 
ATOM     14  C   UNL A   1      46.419 -22.897 -42.539  0.00  0.00    -0.061 A 
ATOM     15  C   UNL A   1      46.271 -21.820 -41.664  0.00  0.00    -0.057 A 
ENDBRANCH   9  10
ENDBRANCH   7   9
ENDBRANCH   2   3
BRANCH   1  17
ATOM     16  O   UNL A   1      40.423 -23.397 -39.431  0.00  0.00    -0.284 OA
ATOM     17  C   UNL A   1      40.874 -22.562 -38.645  0.00  0.00    +0.221 C 
BRANCH  17  18
ATOM     18  C   UNL A   1      40.295 -22.329 -37.338  0.00  0.00    +0.176 A 
ATOM     19  C   UNL A   1      39.070 -21.784 -36.995  0.00  0.00    -0.005 A 
ATOM     20  C   UNL A   1      38.977 -21.818 -35.581  0.00  0.00    +0.021 A 
ATOM     21  C   UNL A   1      38.022 -21.429 -34.626  0.00  0.00    -0.051 A 
ATOM     22  C   UNL A   1      38.302 -21.645 -33.270  0.00  0.00    -0.061 A 
ATOM     23  C   UNL A   1      39.502 -22.235 -32.867  0.00  0.00    -0.058 A 
ATOM     24  C   UNL A   1      40.465 -22.630 -33.802  0.00  0.00    -0.019 A 
ATOM     25  C   UNL A   1      40.158 -22.401 -35.141  0.00  0.00    +0.136 A 
ATOM     26  O   UNL A   1      40.957 -22.712 -36.200  0.00  0.00    -0.452 OA
ENDBRANCH  17  18
ENDBRANCH   1  17
TORSDOF 5
ENDMDL
MODEL 13
REMARK VINA RESULT:    -7.259     16.140     18.669
REMARK INTER + INTRA:         -10.232
REMARK INTER:                  -9.424
REMARK INTRA:                  -0.808
REMARK UNBOUND:                -0.851
REMARK  Name = cpd131.pdb
REMARK  5 active torsions:
REMARK  status: ('A' for Active; 'I' for Inactive)
REMARK    1  A    between atoms: C_2  and  C_3
REMARK    2  A    between atoms: C_2  and  C_18
REMARK    3  A    between atoms: C_4  and  C_5
REMARK    4  A    between atoms: N_9  and  C_10
REMARK    5  A    between atoms: C_10  and  C_11
REMARK                            x       y       z     vdW  Elec       q    Type
REMARK                         _______ _______ _______ _____ _____    ______ ____
ROOT
ATOM      1  C   UNL A   1      43.468 -19.532 -39.395  0.00  0.00    -0.011 C 
ATOM      2  C   UNL A   1      43.074 -20.691 -38.844  0.00  0.00    -0.049 C 
ENDROOT
BRANCH   2   3
ATOM      3  C   UNL A   1      41.702 -20.950 -38.388  0.00  0.00    -0.009 A 
ATOM      4  C   UNL A   1      40.585 -20.421 -39.037  0.00  0.00    -0.052 A 
ATOM      5  C   UNL A   1      39.308 -20.719 -38.574  0.00  0.00    -0.045 A 
ATOM      6  C   UNL A   1      39.159 -21.552 -37.474  0.00  0.00    +0.005 A 
ATOM      7  N   UNL A   1      40.244 -22.081 -36.859  0.00  0.00    -0.348 N 
ATOM      8  C   UNL A   1      41.494 -21.797 -37.297  0.00  0.00    +0.012 A 
BRANCH   7   9
ATOM      9  C   UNL A   1      40.056 -22.969 -35.683  0.00  0.00    +0.048 C 
BRANCH   9  10
ATOM     10  C   UNL A   1      39.376 -22.242 -34.552  0.00  0.00    -0.028 A 
ATOM     11  C   UNL A   1      38.095 -22.620 -34.118  0.00  0.00    -0.057 A 
ATOM     12  C   UNL A   1      37.472 -21.933 -33.076  0.00  0.00    -0.061 A 
ATOM     13  C   UNL A   1      38.120 -20.870 -32.453  0.00  0.00    -0.062 A 
ATOM     14  C   UNL A   1      39.395 -20.493 -32.865  0.00  0.00    -0.061 A 
ATOM     15  C   UNL A   1      40.024 -21.175 -33.908  0.00  0.00    -0.057 A 
ENDBRANCH   9  10
ENDBRANCH   7   9
ENDBRANCH   2   3
BRANCH   1  17
ATOM     16  O   UNL A   1      45.175 -18.043 -39.886  0.00  0.00    -0.284 OA
ATOM     17  C   UNL A   1      44.847 -19.231 -39.893  0.00  0.00    +0.221 C 
BRANCH  17  18
ATOM     18  C   UNL A   1      45.739 -20.284 -40.335  0.00  0.00    +0.176 A 
ATOM     19  C   UNL A   1      46.949 -20.698 -39.809  0.00  0.00    -0.005 A 
ATOM     20  C   UNL A   1      47.393 -21.794 -40.591  0.00  0.00    +0.021 A 
ATOM     21  C   UNL A   1      48.512 -22.644 -40.589  0.00  0.00    -0.051 A 
ATOM     22  C   UNL A   1      48.588 -23.656 -41.556  0.00  0.00    -0.061 A 
ATOM     23  C   UNL A   1      47.577 -23.825 -42.504  0.00  0.00    -0.058 A 
ATOM     24  C   UNL A   1      46.454 -22.989 -42.522  0.00  0.00    -0.019 A 
ATOM     25  C   UNL A   1      46.408 -21.993 -41.551  0.00  0.00    +0.136 A 
ATOM     26  O   UNL A   1      45.406 -21.082 -41.398  0.00  0.00    -0.452 OA
ENDBRANCH  17  18
ENDBRANCH   1  17
TORSDOF 5
ENDMDL
MODEL 14
REMARK VINA RESULT:    -7.227     33.570     36.300
REMARK INTER + INTRA:         -10.190
REMARK INTER:                  -9.443
REMARK INTRA:                  -0.747
REMARK UNBOUND:                -0.851
REMARK  Name = cpd131.pdb
REMARK  5 active torsions:
REMARK  status: ('A' for Active; 'I' for Inactive)
REMARK    1  A    between atoms: C_2  and  C_3
REMARK    2  A    between atoms: C_2  and  C_18
REMARK    3  A    between atoms: C_4  and  C_5
REMARK    4  A    between atoms: N_9  and  C_10
REMARK    5  A    between atoms: C_10  and  C_11
REMARK                            x       y       z     vdW  Elec       q    Type
REMARK                         _______ _______ _______ _____ _____    ______ ____
ROOT
ATOM      1  C   UNL A   1      62.375 -21.290  -9.905  0.00  0.00    -0.011 C 
ATOM      2  C   UNL A   1      62.735 -20.100 -10.409  0.00  0.00    -0.049 C 
ENDROOT
BRANCH   2   3
ATOM      3  C   UNL A   1      61.777 -19.050 -10.779  0.00  0.00    -0.009 A 
ATOM      4  C   UNL A   1      62.163 -17.883 -11.441  0.00  0.00    -0.052 A 
ATOM      5  C   UNL A   1      61.207 -16.933 -11.786  0.00  0.00    -0.045 A 
ATOM      6  C   UNL A   1      59.874 -17.165 -11.478  0.00  0.00    +0.005 A 
ATOM      7  N   UNL A   1      59.499 -18.307 -10.856  0.00  0.00    -0.348 N 
ATOM      8  C   UNL A   1      60.419 -19.240 -10.510  0.00  0.00    +0.012 A 
BRANCH   7   9
ATOM      9  C   UNL A   1      58.065 -18.529 -10.537  0.00  0.00    +0.048 C 
BRANCH   9  10
ATOM     10  C   UNL A   1      57.294 -18.961 -11.757  0.00  0.00    -0.028 A 
ATOM     11  C   UNL A   1      57.439 -20.256 -12.281  0.00  0.00    -0.057 A 
ATOM     12  C   UNL A   1      56.726 -20.642 -13.417  0.00  0.00    -0.061 A 
ATOM     13  C   UNL A   1      55.860 -19.744 -14.038  0.00  0.00    -0.062 A 
ATOM     14  C   UNL A   1      55.699 -18.461 -13.521  0.00  0.00    -0.061 A 
ATOM     15  C   UNL A   1      56.409 -18.069 -12.385  0.00  0.00    -0.057 A 
ENDBRANCH   9  10
ENDBRANCH   7   9
ENDBRANCH   2   3
BRANCH   1  17
ATOM     16  O   UNL A   1      63.909 -22.952 -10.410  0.00  0.00    -0.284 OA
ATOM     17  C   UNL A   1      63.315 -22.381  -9.495  0.00  0.00    +0.221 C 
BRANCH  17  18
ATOM     18  C   UNL A   1      63.517 -22.720  -8.101  0.00  0.00    +0.176 A 
ATOM     19  C   UNL A   1      63.152 -22.030  -6.959  0.00  0.00    -0.005 A 
ATOM     20  C   UNL A   1      63.548 -22.818  -5.849  0.00  0.00    +0.021 A 
ATOM     21  C   UNL A   1      63.474 -22.695  -4.451  0.00  0.00    -0.051 A 
ATOM     22  C   UNL A   1      63.988 -23.730  -3.658  0.00  0.00    -0.061 A 
ATOM     23  C   UNL A   1      64.561 -24.865  -4.237  0.00  0.00    -0.058 A 
ATOM     24  C   UNL A   1      64.643 -25.006  -5.626  0.00  0.00    -0.019 A 
ATOM     25  C   UNL A   1      64.126 -23.961  -6.387  0.00  0.00    +0.136 A 
ATOM     26  O   UNL A   1      64.108 -23.906  -7.748  0.00  0.00    -0.452 OA
ENDBRANCH  17  18
ENDBRANCH   1  17
TORSDOF 5
ENDMDL
MODEL 15
REMARK VINA RESULT:    -7.190     24.272     27.703
REMARK INTER + INTRA:         -10.142
REMARK INTER:                  -9.563
REMARK INTRA:                  -0.579
REMARK UNBOUND:                -0.851
REMARK  Name = cpd131.pdb
REMARK  5 active torsions:
REMARK  status: ('A' for Active; 'I' for Inactive)
REMARK    1  A    between atoms: C_2  and  C_3
REMARK    2  A    between atoms: C_2  and  C_18
REMARK    3  A    between atoms: C_4  and  C_5
REMARK    4  A    between atoms: N_9  and  C_10
REMARK    5  A    between atoms: C_10  and  C_11
REMARK                            x       y       z     vdW  Elec       q    Type
REMARK                         _______ _______ _______ _____ _____    ______ ____
ROOT
ATOM      1  C   UNL A   1      54.569 -32.171 -53.043  0.00  0.00    -0.011 C 
ATOM      2  C   UNL A   1      54.189 -33.205 -52.276  0.00  0.00    -0.049 C 
ENDROOT
BRANCH   2   3
ATOM      3  C   UNL A   1      55.085 -34.302 -51.888  0.00  0.00    -0.009 A 
ATOM      4  C   UNL A   1      56.079 -34.794 -52.736  0.00  0.00    -0.052 A 
ATOM      5  C   UNL A   1      56.914 -35.820 -52.306  0.00  0.00    -0.045 A 
ATOM      6  C   UNL A   1      56.756 -36.335 -51.026  0.00  0.00    +0.005 A 
ATOM      7  N   UNL A   1      55.807 -35.841 -50.197  0.00  0.00    -0.348 N 
ATOM      8  C   UNL A   1      54.984 -34.844 -50.604  0.00  0.00    +0.012 A 
BRANCH   7   9
ATOM      9  C   UNL A   1      55.660 -36.411 -48.833  0.00  0.00    +0.048 C 
BRANCH   9  10
ATOM     10  C   UNL A   1      55.695 -35.332 -47.783  0.00  0.00    -0.028 A 
ATOM     11  C   UNL A   1      54.869 -35.401 -46.649  0.00  0.00    -0.057 A 
ATOM     12  C   UNL A   1      54.905 -34.391 -45.687  0.00  0.00    -0.061 A 
ATOM     13  C   UNL A   1      55.766 -33.308 -45.842  0.00  0.00    -0.062 A 
ATOM     14  C   UNL A   1      56.599 -33.233 -46.955  0.00  0.00    -0.061 A 
ATOM     15  C   UNL A   1      56.568 -34.240 -47.921  0.00  0.00    -0.057 A 
ENDBRANCH   9  10
ENDBRANCH   7   9
ENDBRANCH   2   3
BRANCH   1  17
ATOM     16  O   UNL A   1      54.273 -29.946 -53.619  0.00  0.00    -0.284 OA
ATOM     17  C   UNL A   1      53.699 -31.022 -53.446  0.00  0.00    +0.221 C 
BRANCH  17  18
ATOM     18  C   UNL A   1      52.272 -31.185 -53.636  0.00  0.00    +0.176 A 
ATOM     19  C   UNL A   1      51.219 -30.766 -52.843  0.00  0.00    -0.005 A 
ATOM     20  C   UNL A   1      50.022 -31.141 -53.502  0.00  0.00    +0.021 A 
ATOM     21  C   UNL A   1      48.647 -31.018 -53.239  0.00  0.00    -0.051 A 
ATOM     22  C   UNL A   1      47.736 -31.528 -54.174  0.00  0.00    -0.061 A 
ATOM     23  C   UNL A   1      48.176 -32.145 -55.347  0.00  0.00    -0.058 A 
ATOM     24  C   UNL A   1      49.541 -32.277 -55.628  0.00  0.00    -0.019 A 
ATOM     25  C   UNL A   1      50.421 -31.763 -54.679  0.00  0.00    +0.136 A 
ATOM     26  O   UNL A   1      51.780 -31.790 -54.764  0.00  0.00    -0.452 OA
ENDBRANCH  17  18
ENDBRANCH   1  17
TORSDOF 5
ENDMDL
MODEL 16
REMARK VINA RESULT:    -7.185     16.557     19.814
REMARK INTER + INTRA:         -10.135
REMARK INTER:                  -9.355
REMARK INTRA:                  -0.780
REMARK UNBOUND:                -0.851
REMARK  Name = cpd131.pdb
REMARK  5 active torsions:
REMARK  status: ('A' for Active; 'I' for Inactive)
REMARK    1  A    between atoms: C_2  and  C_3
REMARK    2  A    between atoms: C_2  and  C_18
REMARK    3  A    between atoms: C_4  and  C_5
REMARK    4  A    between atoms: N_9  and  C_10
REMARK    5  A    between atoms: C_10  and  C_11
REMARK                            x       y       z     vdW  Elec       q    Type
REMARK                         _______ _______ _______ _____ _____    ______ ____
ROOT
ATOM      1  C   UNL A   1      43.056 -20.323 -37.083  0.00  0.00    -0.011 C 
ATOM      2  C   UNL A   1      42.351 -21.192 -37.825  0.00  0.00    -0.049 C 
ENDROOT
BRANCH   2   3
ATOM      3  C   UNL A   1      42.529 -21.356 -39.274  0.00  0.00    -0.009 A 
ATOM      4  C   UNL A   1      41.537 -21.897 -40.094  0.00  0.00    -0.052 A 
ATOM      5  C   UNL A   1      41.753 -22.007 -41.463  0.00  0.00    -0.045 A 
ATOM      6  C   UNL A   1      42.953 -21.564 -42.002  0.00  0.00    +0.005 A 
ATOM      7  N   UNL A   1      43.905 -21.019 -41.207  0.00  0.00    -0.348 N 
ATOM      8  C   UNL A   1      43.710 -20.909 -39.871  0.00  0.00    +0.012 A 
BRANCH   7   9
ATOM      9  C   UNL A   1      45.181 -20.554 -41.810  0.00  0.00    +0.048 C 
BRANCH   9  10
ATOM     10  C   UNL A   1      46.248 -21.613 -41.717  0.00  0.00    -0.028 A 
ATOM     11  C   UNL A   1      46.287 -22.681 -42.628  0.00  0.00    -0.057 A 
ATOM     12  C   UNL A   1      47.275 -23.660 -42.526  0.00  0.00    -0.061 A 
ATOM     13  C   UNL A   1      48.236 -23.582 -41.520  0.00  0.00    -0.062 A 
ATOM     14  C   UNL A   1      48.216 -22.522 -40.618  0.00  0.00    -0.061 A 
ATOM     15  C   UNL A   1      47.229 -21.539 -40.714  0.00  0.00    -0.057 A 
ENDBRANCH   9  10
ENDBRANCH   7   9
ENDBRANCH   2   3
BRANCH   1  17
ATOM     16  O   UNL A   1      43.980 -19.985 -34.985  0.00  0.00    -0.284 OA
ATOM     17  C   UNL A   1      42.925 -20.136 -35.605  0.00  0.00    +0.221 C 
BRANCH  17  18
ATOM     18  C   UNL A   1      41.630 -20.117 -34.957  0.00  0.00    +0.176 A 
ATOM     19  C   UNL A   1      40.590 -19.214 -35.081  0.00  0.00    -0.005 A 
ATOM     20  C   UNL A   1      39.531 -19.677 -34.261  0.00  0.00    +0.021 A 
ATOM     21  C   UNL A   1      38.235 -19.234 -33.945  0.00  0.00    -0.051 A 
ATOM     22  C   UNL A   1      37.459 -20.001 -33.066  0.00  0.00    -0.061 A 
ATOM     23  C   UNL A   1      37.955 -21.184 -32.511  0.00  0.00    -0.058 A 
ATOM     24  C   UNL A   1      39.243 -21.641 -32.813  0.00  0.00    -0.019 A 
ATOM     25  C   UNL A   1      39.989 -20.856 -33.688  0.00  0.00    +0.136 A 
ATOM     26  O   UNL A   1      41.257 -21.126 -34.107  0.00  0.00    -0.452 OA
ENDBRANCH  17  18
ENDBRANCH   1  17
TORSDOF 5
ENDMDL
MODEL 17
REMARK VINA RESULT:    -7.183      3.196      4.880
REMARK INTER + INTRA:         -10.133
REMARK INTER:                  -9.531
REMARK INTRA:                  -0.602
REMARK UNBOUND:                -0.851
REMARK  Name = cpd131.pdb
REMARK  5 active torsions:
REMARK  status: ('A' for Active; 'I' for Inactive)
REMARK    1  A    between atoms: C_2  and  C_3
REMARK    2  A    between atoms: C_2  and  C_18
REMARK    3  A    between atoms: C_4  and  C_5
REMARK    4  A    between atoms: N_9  and  C_10
REMARK    5  A    between atoms: C_10  and  C_11
REMARK                            x       y       z     vdW  Elec       q    Type
REMARK                         _______ _______ _______ _____ _____    ______ ____
ROOT
ATOM      1  C   UNL A   1      35.975 -37.424 -29.802  0.00  0.00    -0.011 C 
ATOM      2  C   UNL A   1      36.042 -38.752 -29.985  0.00  0.00    -0.049 C 
ENDROOT
BRANCH   2   3
ATOM      3  C   UNL A   1      35.404 -39.730 -29.094  0.00  0.00    -0.009 A 
ATOM      4  C   UNL A   1      35.892 -41.028 -28.933  0.00  0.00    -0.052 A 
ATOM      5  C   UNL A   1      35.260 -41.903 -28.057  0.00  0.00    -0.045 A 
ATOM      6  C   UNL A   1      34.153 -41.469 -27.340  0.00  0.00    +0.005 A 
ATOM      7  N   UNL A   1      33.695 -40.203 -27.481  0.00  0.00    -0.348 N 
ATOM      8  C   UNL A   1      34.299 -39.340 -28.333  0.00  0.00    +0.012 A 
BRANCH   7   9
ATOM      9  C   UNL A   1      32.508 -39.765 -26.702  0.00  0.00    +0.048 C 
BRANCH   9  10
ATOM     10  C   UNL A   1      32.914 -38.977 -25.484  0.00  0.00    -0.028 A 
ATOM     11  C   UNL A   1      33.195 -39.622 -24.268  0.00  0.00    -0.057 A 
ATOM     12  C   UNL A   1      33.561 -38.880 -23.144  0.00  0.00    -0.061 A 
ATOM     13  C   UNL A   1      33.657 -37.493 -23.222  0.00  0.00    -0.062 A 
ATOM     14  C   UNL A   1      33.393 -36.843 -24.425  0.00  0.00    -0.061 A 
ATOM     15  C   UNL A   1      33.025 -37.579 -25.553  0.00  0.00    -0.057 A 
ENDBRANCH   9  10
ENDBRANCH   7   9
ENDBRANCH   2   3
BRANCH   1  17
ATOM     16  O   UNL A   1      35.816 -35.556 -31.164  0.00  0.00    -0.284 OA
ATOM     17  C   UNL A   1      36.590 -36.391 -30.693  0.00  0.00    +0.221 C 
BRANCH  17  18
ATOM     18  C   UNL A   1      38.013 -36.375 -30.962  0.00  0.00    +0.176 A 
ATOM     19  C   UNL A   1      38.749 -35.543 -31.787  0.00  0.00    -0.005 A 
ATOM     20  C   UNL A   1      40.109 -35.922 -31.658  0.00  0.00    +0.021 A 
ATOM     21  C   UNL A   1      41.329 -35.494 -32.209  0.00  0.00    -0.051 A 
ATOM     22  C   UNL A   1      42.508 -36.138 -31.810  0.00  0.00    -0.061 A 
ATOM     23  C   UNL A   1      42.481 -37.184 -30.885  0.00  0.00    -0.058 A 
ATOM     24  C   UNL A   1      41.277 -37.625 -30.326  0.00  0.00    -0.019 A 
ATOM     25  C   UNL A   1      40.122 -36.966 -30.742  0.00  0.00    +0.136 A 
ATOM     26  O   UNL A   1      38.858 -37.242 -30.318  0.00  0.00    -0.452 OA
ENDBRANCH  17  18
ENDBRANCH   1  17
TORSDOF 5
ENDMDL
MODEL 18
REMARK VINA RESULT:    -7.005     16.283     19.911
REMARK INTER + INTRA:          -9.904
REMARK INTER:                  -9.072
REMARK INTRA:                  -0.832
REMARK UNBOUND:                -0.851
REMARK  Name = cpd131.pdb
REMARK  5 active torsions:
REMARK  status: ('A' for Active; 'I' for Inactive)
REMARK    1  A    between atoms: C_2  and  C_3
REMARK    2  A    between atoms: C_2  and  C_18
REMARK    3  A    between atoms: C_4  and  C_5
REMARK    4  A    between atoms: N_9  and  C_10
REMARK    5  A    between atoms: C_10  and  C_11
REMARK                            x       y       z     vdW  Elec       q    Type
REMARK                         _______ _______ _______ _____ _____    ______ ____
ROOT
ATOM      1  C   UNL A   1      42.174 -21.398 -37.826  0.00  0.00    -0.011 C 
ATOM      2  C   UNL A   1      43.020 -20.979 -36.873  0.00  0.00    -0.049 C 
ENDROOT
BRANCH   2   3
ATOM      3  C   UNL A   1      44.276 -20.272 -37.154  0.00  0.00    -0.009 A 
ATOM      4  C   UNL A   1      45.156 -19.877 -36.144  0.00  0.00    -0.052 A 
ATOM      5  C   UNL A   1      46.343 -19.231 -36.472  0.00  0.00    -0.045 A 
ATOM      6  C   UNL A   1      46.646 -18.997 -37.806  0.00  0.00    +0.005 A 
ATOM      7  N   UNL A   1      45.802 -19.402 -38.785  0.00  0.00    -0.348 N 
ATOM      8  C   UNL A   1      44.641 -20.029 -38.480  0.00  0.00    +0.012 A 
BRANCH   7   9
ATOM      9  C   UNL A   1      46.151 -19.138 -40.205  0.00  0.00    +0.048 C 
BRANCH   9  10
ATOM     10  C   UNL A   1      46.183 -20.414 -41.005  0.00  0.00    -0.028 A 
ATOM     11  C   UNL A   1      45.223 -20.666 -42.000  0.00  0.00    -0.057 A 
ATOM     12  C   UNL A   1      45.257 -21.855 -42.729  0.00  0.00    -0.061 A 
ATOM     13  C   UNL A   1      46.249 -22.800 -42.479  0.00  0.00    -0.062 A 
ATOM     14  C   UNL A   1      47.214 -22.557 -41.504  0.00  0.00    -0.061 A 
ATOM     15  C   UNL A   1      47.184 -21.370 -40.771  0.00  0.00    -0.057 A 
ENDBRANCH   9  10
ENDBRANCH   7   9
ENDBRANCH   2   3
BRANCH   1  17
ATOM     16  O   UNL A   1      40.602 -23.011 -38.373  0.00  0.00    -0.284 OA
ATOM     17  C   UNL A   1      40.875 -22.102 -37.588  0.00  0.00    +0.221 C 
BRANCH  17  18
ATOM     18  C   UNL A   1      40.008 -21.738 -36.486  0.00  0.00    +0.176 A 
ATOM     19  C   UNL A   1      39.529 -20.496 -36.109  0.00  0.00    -0.005 A 
ATOM     20  C   UNL A   1      38.687 -20.695 -34.985  0.00  0.00    +0.021 A 
ATOM     21  C   UNL A   1      37.915 -19.872 -34.148  0.00  0.00    -0.051 A 
ATOM     22  C   UNL A   1      37.185 -20.466 -33.110  0.00  0.00    -0.061 A 
ATOM     23  C   UNL A   1      37.216 -21.848 -32.905  0.00  0.00    -0.058 A 
ATOM     24  C   UNL A   1      37.978 -22.684 -33.729  0.00  0.00    -0.019 A 
ATOM     25  C   UNL A   1      38.694 -22.064 -34.750  0.00  0.00    +0.136 A 
ATOM     26  O   UNL A   1      39.491 -22.698 -35.655  0.00  0.00    -0.452 OA
ENDBRANCH  17  18
ENDBRANCH   1  17
TORSDOF 5
ENDMDL
MODEL 19
REMARK VINA RESULT:    -6.774     16.602     20.258
REMARK INTER + INTRA:          -9.604
REMARK INTER:                  -8.741
REMARK INTRA:                  -0.863
REMARK UNBOUND:                -0.851
REMARK  Name = cpd131.pdb
REMARK  5 active torsions:
REMARK  status: ('A' for Active; 'I' for Inactive)
REMARK    1  A    between atoms: C_2  and  C_3
REMARK    2  A    between atoms: C_2  and  C_18
REMARK    3  A    between atoms: C_4  and  C_5
REMARK    4  A    between atoms: N_9  and  C_10
REMARK    5  A    between atoms: C_10  and  C_11
REMARK                            x       y       z     vdW  Elec       q    Type
REMARK                         _______ _______ _______ _____ _____    ______ ____
ROOT
ATOM      1  C   UNL A   1      42.371 -22.083 -38.909  0.00  0.00    -0.011 C 
ATOM      2  C   UNL A   1      42.552 -21.094 -39.797  0.00  0.00    -0.049 C 
ENDROOT
BRANCH   2   3
ATOM      3  C   UNL A   1      43.866 -20.709 -40.329  0.00  0.00    -0.009 A 
ATOM      4  C   UNL A   1      44.052 -20.317 -41.656  0.00  0.00    -0.052 A 
ATOM      5  C   UNL A   1      45.316 -19.941 -42.098  0.00  0.00    -0.045 A 
ATOM      6  C   UNL A   1      46.380 -19.949 -41.206  0.00  0.00    +0.005 A 
ATOM      7  N   UNL A   1      46.193 -20.308 -39.914  0.00  0.00    -0.348 N 
ATOM      8  C   UNL A   1      44.968 -20.679 -39.470  0.00  0.00    +0.012 A 
BRANCH   7   9
ATOM      9  C   UNL A   1      47.349 -20.307 -38.981  0.00  0.00    +0.048 C 
BRANCH   9  10
ATOM     10  C   UNL A   1      47.149 -19.317 -37.863  0.00  0.00    -0.028 A 
ATOM     11  C   UNL A   1      47.005 -19.749 -36.534  0.00  0.00    -0.057 A 
ATOM     12  C   UNL A   1      46.811 -18.823 -35.509  0.00  0.00    -0.061 A 
ATOM     13  C   UNL A   1      46.766 -17.460 -35.795  0.00  0.00    -0.062 A 
ATOM     14  C   UNL A   1      46.920 -17.019 -37.107  0.00  0.00    -0.061 A 
ATOM     15  C   UNL A   1      47.113 -17.940 -38.138  0.00  0.00    -0.057 A 
ENDBRANCH   9  10
ENDBRANCH   7   9
ENDBRANCH   2   3
BRANCH   1  17
ATOM     16  O   UNL A   1      40.334 -23.169 -39.122  0.00  0.00    -0.284 OA
ATOM     17  C   UNL A   1      41.052 -22.524 -38.356  0.00  0.00    +0.221 C 
BRANCH  17  18
ATOM     18  C   UNL A   1      40.664 -22.221 -36.994  0.00  0.00    +0.176 A 
ATOM     19  C   UNL A   1      40.145 -21.055 -36.459  0.00  0.00    -0.005 A 
ATOM     20  C   UNL A   1      39.899 -21.297 -35.084  0.00  0.00    +0.021 A 
ATOM     21  C   UNL A   1      39.394 -20.551 -34.006  0.00  0.00    -0.051 A 
ATOM     22  C   UNL A   1      39.291 -21.168 -32.752  0.00  0.00    -0.061 A 
ATOM     23  C   UNL A   1      39.678 -22.498 -32.569  0.00  0.00    -0.058 A 
ATOM     24  C   UNL A   1      40.183 -23.257 -33.630  0.00  0.00    -0.019 A 
ATOM     25  C   UNL A   1      40.275 -22.616 -34.863  0.00  0.00    +0.136 A 
ATOM     26  O   UNL A   1      40.737 -23.178 -36.015  0.00  0.00    -0.452 OA
ENDBRANCH  17  18
ENDBRANCH   1  17
TORSDOF 5
ENDMDL
MODEL 20
REMARK VINA RESULT:    -6.535     17.445     19.857
REMARK INTER + INTRA:          -9.296
REMARK INTER:                  -8.444
REMARK INTRA:                  -0.852
REMARK UNBOUND:                -0.851
REMARK  Name = cpd131.pdb
REMARK  5 active torsions:
REMARK  status: ('A' for Active; 'I' for Inactive)
REMARK    1  A    between atoms: C_2  and  C_3
REMARK    2  A    between atoms: C_2  and  C_18
REMARK    3  A    between atoms: C_4  and  C_5
REMARK    4  A    between atoms: N_9  and  C_10
REMARK    5  A    between atoms: C_10  and  C_11
REMARK                            x       y       z     vdW  Elec       q    Type
REMARK                         _______ _______ _______ _____ _____    ______ ____
ROOT
ATOM      1  C   UNL A   1      45.376 -18.736 -37.394  0.00  0.00    -0.011 C 
ATOM      2  C   UNL A   1      45.724 -18.535 -36.114  0.00  0.00    -0.049 C 
ENDROOT
BRANCH   2   3
ATOM      3  C   UNL A   1      44.780 -18.616 -34.992  0.00  0.00    -0.009 A 
ATOM      4  C   UNL A   1      44.735 -17.656 -33.979  0.00  0.00    -0.052 A 
ATOM      5  C   UNL A   1      43.803 -17.773 -32.953  0.00  0.00    -0.045 A 
ATOM      6  C   UNL A   1      42.917 -18.841 -32.956  0.00  0.00    +0.005 A 
ATOM      7  N   UNL A   1      42.948 -19.759 -33.951  0.00  0.00    -0.348 N 
ATOM      8  C   UNL A   1      43.852 -19.660 -34.955  0.00  0.00    +0.012 A 
BRANCH   7   9
ATOM      9  C   UNL A   1      41.988 -20.893 -33.928  0.00  0.00    +0.048 C 
BRANCH   9  10
ATOM     10  C   UNL A   1      41.131 -20.908 -35.167  0.00  0.00    -0.028 A 
ATOM     11  C   UNL A   1      40.248 -19.853 -35.448  0.00  0.00    -0.057 A 
ATOM     12  C   UNL A   1      39.454 -19.882 -36.594  0.00  0.00    -0.061 A 
ATOM     13  C   UNL A   1      39.535 -20.959 -37.474  0.00  0.00    -0.062 A 
ATOM     14  C   UNL A   1      40.415 -22.007 -37.214  0.00  0.00    -0.061 A 
ATOM     15  C   UNL A   1      41.212 -21.983 -36.068  0.00  0.00    -0.057 A 
ENDBRANCH   9  10
ENDBRANCH   7   9
ENDBRANCH   2   3
BRANCH   1  17
ATOM     16  O   UNL A   1      46.938 -17.636 -38.707  0.00  0.00    -0.284 OA
ATOM     17  C   UNL A   1      46.305 -18.684 -38.566  0.00  0.00    +0.221 C 
BRANCH  17  18
ATOM     18  C   UNL A   1      46.455 -19.813 -39.462  0.00  0.00    +0.176 A 
ATOM     19  C   UNL A   1      45.704 -20.173 -40.567  0.00  0.00    -0.005 A 
ATOM     20  C   UNL A   1      46.297 -21.338 -41.115  0.00  0.00    +0.021 A 
ATOM     21  C   UNL A   1      46.032 -22.183 -42.206  0.00  0.00    -0.051 A 
ATOM     22  C   UNL A   1      46.886 -23.270 -42.436  0.00  0.00    -0.061 A 
ATOM     23  C   UNL A   1      47.982 -23.515 -41.604  0.00  0.00    -0.058 A 
ATOM     24  C   UNL A   1      48.262 -22.684 -40.514  0.00  0.00    -0.019 A 
ATOM     25  C   UNL A   1      47.394 -21.614 -40.310  0.00  0.00    +0.136 A 
ATOM     26  O   UNL A   1      47.494 -20.694 -39.311  0.00  0.00    -0.452 OA
ENDBRANCH  17  18
ENDBRANCH   1  17
TORSDOF 5
ENDMDL
