REMARK  Name = cpd131.pdb
REMARK  5 active torsions:
REMARK  status: ('A' for Active; 'I' for Inactive)
REMARK    1  A    between atoms: C_2  and  C_3
REMARK    2  A    between atoms: C_2  and  C_18
REMARK    3  A    between atoms: C_4  and  C_5
REMARK    4  A    between atoms: N_9  and  C_10
REMARK    5  A    between atoms: C_10  and  C_11
REMARK                            x       y       z     vdW  Elec       q    Type
REMARK                         _______ _______ _______ _____ _____    ______ ____
ROOT
ATOM      1  C   UNL A   1      -1.749   1.848   0.700  0.00  0.00    -0.011 C 
ATOM      2  C   UNL A   1      -2.088   0.629   0.252  0.00  0.00    -0.049 C 
ENDROOT
BRANCH   2   3
ATOM      3  C   UNL A   1      -3.329  -0.060   0.629  0.00  0.00    -0.009 A 
ATOM      4  C   UNL A   1      -4.547   0.609   0.762  0.00  0.00    -0.052 A 
ATOM      5  C   UNL A   1      -5.695  -0.100   1.099  0.00  0.00    -0.045 A 
ATOM      6  C   UNL A   1      -5.617  -1.473   1.288  0.00  0.00    +0.005 A 
ATOM      7  N   UNL A   1      -4.439  -2.123   1.137  0.00  0.00    -0.348 N 
ATOM      8  C   UNL A   1      -3.312  -1.445   0.812  0.00  0.00    +0.012 A 
BRANCH   7   9
ATOM      9  C   UNL A   1      -4.384  -3.593   1.346  0.00  0.00    +0.048 C 
BRANCH   9  10
ATOM     10  C   UNL A   1      -5.170  -4.325   0.290  0.00  0.00    -0.028 A 
ATOM     11  C   UNL A   1      -4.834  -4.210  -1.069  0.00  0.00    -0.057 A 
ATOM     12  C   UNL A   1      -5.575  -4.886  -2.039  0.00  0.00    -0.061 A 
ATOM     13  C   UNL A   1      -6.652  -5.686  -1.665  0.00  0.00    -0.062 A 
ATOM     14  C   UNL A   1      -6.988  -5.818  -0.320  0.00  0.00    -0.061 A 
ATOM     15  C   UNL A   1      -6.251  -5.144   0.655  0.00  0.00    -0.057 A 
ENDBRANCH   9  10
ENDBRANCH   7   9
ENDBRANCH   2   3
BRANCH   1  17
ATOM     16  O   UNL A   1      -0.592   3.826   0.355  0.00  0.00    -0.284 OA
ATOM     17  C   UNL A   1      -0.508   2.597   0.328  0.00  0.00    +0.221 C 
BRANCH  17  18
ATOM     18  C   UNL A   1       0.716   1.906  -0.022  0.00  0.00    +0.176 A 
ATOM     19  C   UNL A   1       1.894   2.403  -0.550  0.00  0.00    -0.005 A 
ATOM     20  C   UNL A   1       2.794   1.314  -0.666  0.00  0.00    +0.021 A 
ATOM     21  C   UNL A   1       4.114   1.143  -1.117  0.00  0.00    -0.051 A 
ATOM     22  C   UNL A   1       4.682  -0.137  -1.062  0.00  0.00    -0.061 A 
ATOM     23  C   UNL A   1       3.959  -1.226  -0.569  0.00  0.00    -0.058 A 
ATOM     24  C   UNL A   1       2.644  -1.076  -0.115  0.00  0.00    -0.019 A 
ATOM     25  C   UNL A   1       2.107   0.207  -0.184  0.00  0.00    +0.136 A 
ATOM     26  O   UNL A   1       0.851   0.561   0.207  0.00  0.00    -0.452 OA
ENDBRANCH  17  18
ENDBRANCH   1  17
TORSDOF 5
