MODEL 1
REMARK VINA RESULT:    -3.795      0.000      0.000
REMARK INTER + INTRA:          -2.145
REMARK INTER:                  -3.906
REMARK INTRA:                   1.761
REMARK UNBOUND:                 1.761
REMARK  Name = cpd239.pdb
REMARK  5 active torsions:
REMARK  status: ('A' for Active; 'I' for Inactive)
REMARK    1  A    between atoms: C_2  and  C_3
REMARK    2  A    between atoms: C_3  and  N_4
REMARK    3  A    between atoms: N_4  and  C_5
REMARK    4  A    between atoms: N_4  and  C_6
REMARK    5  A    between atoms: N_4  and  C_7
REMARK                            x       y       z     vdW  Elec       q    Type
REMARK                         _______ _______ _______ _____ _____    ______ ____
ROOT
ATOM      1  N   UNL     1      57.087 -22.425 -46.670  0.00  0.00    +0.377 N 
ATOM      2  C   UNL     1      56.120 -22.606 -46.490  0.00  0.00    -0.101 C 
ATOM      3  C   UNL     1      56.961 -21.474 -46.390  0.00  0.00    -0.101 C 
ATOM      4  C   UNL     1      58.054 -22.244 -46.849  0.00  0.00    -0.101 C 
ENDROOT
BRANCH   1   5
ATOM      5  C   UNL     1      57.214 -23.377 -46.950  0.00  0.00    -0.070 C 
BRANCH   5   7
ATOM      6  C   UNL     1      57.017 -25.723 -48.498  0.00  0.00    -0.104 C 
ATOM      7  C   UNL     1      57.166 -24.397 -48.317  0.00  0.00    -0.107 C 
ENDBRANCH   5   7
ENDBRANCH   1   5
TORSDOF 2
ENDMDL
MODEL 2
REMARK VINA RESULT:    -3.680     25.905     26.529
REMARK INTER + INTRA:          -2.027
REMARK INTER:                  -3.799
REMARK INTRA:                   1.772
REMARK UNBOUND:                 1.761
REMARK  Name = cpd239.pdb
REMARK  5 active torsions:
REMARK  status: ('A' for Active; 'I' for Inactive)
REMARK    1  A    between atoms: C_2  and  C_3
REMARK    2  A    between atoms: C_3  and  N_4
REMARK    3  A    between atoms: N_4  and  C_5
REMARK    4  A    between atoms: N_4  and  C_6
REMARK    5  A    between atoms: N_4  and  C_7
REMARK                            x       y       z     vdW  Elec       q    Type
REMARK                         _______ _______ _______ _____ _____    ______ ____
ROOT
ATOM      1  N   UNL     1      42.273 -36.943 -31.277  0.00  0.00    +0.377 N 
ATOM      2  C   UNL     1      42.291 -36.034 -30.862  0.00  0.00    -0.101 C 
ATOM      3  C   UNL     1      43.273 -36.955 -31.293  0.00  0.00    -0.101 C 
ATOM      4  C   UNL     1      42.256 -37.853 -31.692  0.00  0.00    -0.101 C 
ENDROOT
BRANCH   1   5
ATOM      5  C   UNL     1      41.274 -36.931 -31.260  0.00  0.00    -0.070 C 
BRANCH   5   7
ATOM      6  C   UNL     1      38.624 -36.905 -30.304  0.00  0.00    -0.104 C 
ATOM      7  C   UNL     1      39.939 -37.178 -30.225  0.00  0.00    -0.107 C 
ENDBRANCH   5   7
ENDBRANCH   1   5
TORSDOF 2
ENDMDL
MODEL 3
REMARK VINA RESULT:    -3.665     39.580     40.185
REMARK INTER + INTRA:          -2.011
REMARK INTER:                  -3.881
REMARK INTRA:                   1.870
REMARK UNBOUND:                 1.761
REMARK  Name = cpd239.pdb
REMARK  5 active torsions:
REMARK  status: ('A' for Active; 'I' for Inactive)
REMARK    1  A    between atoms: C_2  and  C_3
REMARK    2  A    between atoms: C_3  and  N_4
REMARK    3  A    between atoms: N_4  and  C_5
REMARK    4  A    between atoms: N_4  and  C_6
REMARK    5  A    between atoms: N_4  and  C_7
REMARK                            x       y       z     vdW  Elec       q    Type
REMARK                         _______ _______ _______ _____ _____    ______ ____
ROOT
ATOM      1  N   UNL     1      62.932 -26.472  -6.848  0.00  0.00    +0.377 N 
ATOM      2  C   UNL     1      63.530 -25.685  -6.697  0.00  0.00    -0.101 C 
ATOM      3  C   UNL     1      63.615 -27.071  -6.429  0.00  0.00    -0.101 C 
ATOM      4  C   UNL     1      62.334 -27.260  -6.998  0.00  0.00    -0.101 C 
ENDROOT
BRANCH   1   5
ATOM      5  C   UNL     1      62.249 -25.874  -7.266  0.00  0.00    -0.070 C 
BRANCH   5   7
ATOM      6  C   UNL     1      62.084 -25.073  -9.962  0.00  0.00    -0.104 C 
ATOM      7  C   UNL     1      61.975 -24.889  -8.633  0.00  0.00    -0.107 C 
ENDBRANCH   5   7
ENDBRANCH   1   5
TORSDOF 2
ENDMDL
MODEL 4
REMARK VINA RESULT:    -3.634     24.291     24.770
REMARK INTER + INTRA:          -1.979
REMARK INTER:                  -3.750
REMARK INTRA:                   1.771
REMARK UNBOUND:                 1.761
REMARK  Name = cpd239.pdb
REMARK  5 active torsions:
REMARK  status: ('A' for Active; 'I' for Inactive)
REMARK    1  A    between atoms: C_2  and  C_3
REMARK    2  A    between atoms: C_3  and  N_4
REMARK    3  A    between atoms: N_4  and  C_5
REMARK    4  A    between atoms: N_4  and  C_6
REMARK    5  A    between atoms: N_4  and  C_7
REMARK                            x       y       z     vdW  Elec       q    Type
REMARK                         _______ _______ _______ _____ _____    ______ ____
ROOT
ATOM      1  N   UNL     1      50.081 -38.564 -29.886  0.00  0.00    +0.377 N 
ATOM      2  C   UNL     1      49.653 -38.076 -29.126  0.00  0.00    -0.101 C 
ATOM      3  C   UNL     1      50.978 -38.232 -29.595  0.00  0.00    -0.101 C 
ATOM      4  C   UNL     1      50.510 -39.052 -30.647  0.00  0.00    -0.101 C 
ENDROOT
BRANCH   1   5
ATOM      5  C   UNL     1      49.184 -38.897 -30.178  0.00  0.00    -0.070 C 
BRANCH   5   7
ATOM      6  C   UNL     1      46.730 -40.240 -29.852  0.00  0.00    -0.104 C 
ATOM      7  C   UNL     1      48.071 -40.166 -29.929  0.00  0.00    -0.107 C 
ENDBRANCH   5   7
ENDBRANCH   1   5
TORSDOF 2
ENDMDL
MODEL 5
REMARK VINA RESULT:    -3.612      1.130      3.415
REMARK INTER + INTRA:          -1.957
REMARK INTER:                  -3.721
REMARK INTRA:                   1.764
REMARK UNBOUND:                 1.761
REMARK  Name = cpd239.pdb
REMARK  5 active torsions:
REMARK  status: ('A' for Active; 'I' for Inactive)
REMARK    1  A    between atoms: C_2  and  C_3
REMARK    2  A    between atoms: C_3  and  N_4
REMARK    3  A    between atoms: N_4  and  C_5
REMARK    4  A    between atoms: N_4  and  C_6
REMARK    5  A    between atoms: N_4  and  C_7
REMARK                            x       y       z     vdW  Elec       q    Type
REMARK                         _______ _______ _______ _____ _____    ______ ____
ROOT
ATOM      1  N   UNL     1      57.078 -22.686 -47.018  0.00  0.00    +0.377 N 
ATOM      2  C   UNL     1      56.160 -22.810 -46.643  0.00  0.00    -0.101 C 
ATOM      3  C   UNL     1      57.104 -23.653 -47.274  0.00  0.00    -0.101 C 
ATOM      4  C   UNL     1      57.997 -22.563 -47.394  0.00  0.00    -0.101 C 
ENDROOT
BRANCH   1   5
ATOM      5  C   UNL     1      57.053 -21.720 -46.763  0.00  0.00    -0.070 C 
BRANCH   5   7
ATOM      6  C   UNL     1      57.828 -19.350 -45.451  0.00  0.00    -0.104 C 
ATOM      7  C   UNL     1      57.473 -20.647 -45.503  0.00  0.00    -0.107 C 
ENDBRANCH   5   7
ENDBRANCH   1   5
TORSDOF 2
ENDMDL
MODEL 6
REMARK VINA RESULT:    -3.602     25.602     26.087
REMARK INTER + INTRA:          -1.947
REMARK INTER:                  -3.710
REMARK INTRA:                   1.764
REMARK UNBOUND:                 1.761
REMARK  Name = cpd239.pdb
REMARK  5 active torsions:
REMARK  status: ('A' for Active; 'I' for Inactive)
REMARK    1  A    between atoms: C_2  and  C_3
REMARK    2  A    between atoms: C_3  and  N_4
REMARK    3  A    between atoms: N_4  and  C_5
REMARK    4  A    between atoms: N_4  and  C_6
REMARK    5  A    between atoms: N_4  and  C_7
REMARK                            x       y       z     vdW  Elec       q    Type
REMARK                         _______ _______ _______ _____ _____    ______ ____
ROOT
ATOM      1  N   UNL     1      39.620 -35.188 -31.947  0.00  0.00    +0.377 N 
ATOM      2  C   UNL     1      40.254 -34.439 -31.753  0.00  0.00    -0.101 C 
ATOM      3  C   UNL     1      38.847 -34.582 -31.759  0.00  0.00    -0.101 C 
ATOM      4  C   UNL     1      38.986 -35.936 -32.142  0.00  0.00    -0.101 C 
ENDROOT
BRANCH   1   5
ATOM      5  C   UNL     1      40.393 -35.793 -32.135  0.00  0.00    -0.070 C 
BRANCH   5   7
ATOM      6  C   UNL     1      42.249 -37.877 -31.747  0.00  0.00    -0.104 C 
ATOM      7  C   UNL     1      41.533 -36.804 -31.365  0.00  0.00    -0.107 C 
ENDBRANCH   5   7
ENDBRANCH   1   5
TORSDOF 2
ENDMDL
MODEL 7
REMARK VINA RESULT:    -3.580     38.954     39.604
REMARK INTER + INTRA:          -1.924
REMARK INTER:                  -3.688
REMARK INTRA:                   1.764
REMARK UNBOUND:                 1.761
REMARK  Name = cpd239.pdb
REMARK  5 active torsions:
REMARK  status: ('A' for Active; 'I' for Inactive)
REMARK    1  A    between atoms: C_2  and  C_3
REMARK    2  A    between atoms: C_3  and  N_4
REMARK    3  A    between atoms: N_4  and  C_5
REMARK    4  A    between atoms: N_4  and  C_6
REMARK    5  A    between atoms: N_4  and  C_7
REMARK                            x       y       z     vdW  Elec       q    Type
REMARK                         _______ _______ _______ _____ _____    ______ ____
ROOT
ATOM      1  N   UNL     1      63.091 -25.403  -7.449  0.00  0.00    +0.377 N 
ATOM      2  C   UNL     1      64.029 -25.667  -7.222  0.00  0.00    -0.101 C 
ATOM      3  C   UNL     1      62.744 -26.144  -6.874  0.00  0.00    -0.101 C 
ATOM      4  C   UNL     1      62.154 -25.139  -7.676  0.00  0.00    -0.101 C 
ENDROOT
BRANCH   1   5
ATOM      5  C   UNL     1      63.439 -24.662  -8.024  0.00  0.00    -0.070 C 
BRANCH   5   7
ATOM      6  C   UNL     1      63.943 -23.251 -10.409  0.00  0.00    -0.104 C 
ATOM      7  C   UNL     1      63.993 -24.327  -9.603  0.00  0.00    -0.107 C 
ENDBRANCH   5   7
ENDBRANCH   1   5
TORSDOF 2
ENDMDL
MODEL 8
REMARK VINA RESULT:    -3.532     26.565     27.127
REMARK INTER + INTRA:          -1.874
REMARK INTER:                  -3.737
REMARK INTRA:                   1.863
REMARK UNBOUND:                 1.761
REMARK  Name = cpd239.pdb
REMARK  5 active torsions:
REMARK  status: ('A' for Active; 'I' for Inactive)
REMARK    1  A    between atoms: C_2  and  C_3
REMARK    2  A    between atoms: C_3  and  N_4
REMARK    3  A    between atoms: N_4  and  C_5
REMARK    4  A    between atoms: N_4  and  C_6
REMARK    5  A    between atoms: N_4  and  C_7
REMARK                            x       y       z     vdW  Elec       q    Type
REMARK                         _______ _______ _______ _____ _____    ______ ____
ROOT
ATOM      1  N   UNL     1      40.099 -36.929 -30.730  0.00  0.00    +0.377 N 
ATOM      2  C   UNL     1      40.054 -37.394 -29.846  0.00  0.00    -0.101 C 
ATOM      3  C   UNL     1      39.100 -36.925 -30.779  0.00  0.00    -0.101 C 
ATOM      4  C   UNL     1      40.144 -36.465 -31.615  0.00  0.00    -0.101 C 
ENDROOT
BRANCH   1   5
ATOM      5  C   UNL     1      41.098 -36.933 -30.682  0.00  0.00    -0.070 C 
BRANCH   5   7
ATOM      6  C   UNL     1      43.035 -38.979 -30.702  0.00  0.00    -0.104 C 
ATOM      7  C   UNL     1      42.466 -37.842 -31.145  0.00  0.00    -0.107 C 
ENDBRANCH   5   7
ENDBRANCH   1   5
TORSDOF 2
ENDMDL
MODEL 9
REMARK VINA RESULT:    -3.502     39.670     40.246
REMARK INTER + INTRA:          -1.844
REMARK INTER:                  -3.620
REMARK INTRA:                   1.777
REMARK UNBOUND:                 1.761
REMARK  Name = cpd239.pdb
REMARK  5 active torsions:
REMARK  status: ('A' for Active; 'I' for Inactive)
REMARK    1  A    between atoms: C_2  and  C_3
REMARK    2  A    between atoms: C_3  and  N_4
REMARK    3  A    between atoms: N_4  and  C_5
REMARK    4  A    between atoms: N_4  and  C_6
REMARK    5  A    between atoms: N_4  and  C_7
REMARK                            x       y       z     vdW  Elec       q    Type
REMARK                         _______ _______ _______ _____ _____    ______ ____
ROOT
ATOM      1  N   UNL     1      63.295 -25.024  -7.985  0.00  0.00    +0.377 N 
ATOM      2  C   UNL     1      62.332 -24.927  -8.234  0.00  0.00    -0.101 C 
ATOM      3  C   UNL     1      63.555 -24.459  -8.768  0.00  0.00    -0.101 C 
ATOM      4  C   UNL     1      64.259 -25.122  -7.737  0.00  0.00    -0.101 C 
ENDROOT
BRANCH   1   5
ATOM      5  C   UNL     1      63.036 -25.590  -7.203  0.00  0.00    -0.070 C 
BRANCH   5   7
ATOM      6  C   UNL     1      63.067 -28.052  -5.833  0.00  0.00    -0.104 C 
ATOM      7  C   UNL     1      62.632 -27.192  -6.772  0.00  0.00    -0.107 C 
ENDBRANCH   5   7
ENDBRANCH   1   5
TORSDOF 2
ENDMDL
MODEL 10
REMARK VINA RESULT:    -3.496     10.885     12.123
REMARK INTER + INTRA:          -1.837
REMARK INTER:                  -3.604
REMARK INTRA:                   1.767
REMARK UNBOUND:                 1.761
REMARK  Name = cpd239.pdb
REMARK  5 active torsions:
REMARK  status: ('A' for Active; 'I' for Inactive)
REMARK    1  A    between atoms: C_2  and  C_3
REMARK    2  A    between atoms: C_3  and  N_4
REMARK    3  A    between atoms: N_4  and  C_5
REMARK    4  A    between atoms: N_4  and  C_6
REMARK    5  A    between atoms: N_4  and  C_7
REMARK                            x       y       z     vdW  Elec       q    Type
REMARK                         _______ _______ _______ _____ _____    ______ ____
ROOT
ATOM      1  N   UNL     1      47.219 -22.023 -41.753  0.00  0.00    +0.377 N 
ATOM      2  C   UNL     1      46.718 -22.888 -41.722  0.00  0.00    -0.101 C 
ATOM      3  C   UNL     1      48.085 -22.524 -41.740  0.00  0.00    -0.101 C 
ATOM      4  C   UNL     1      47.720 -21.158 -41.783  0.00  0.00    -0.101 C 
ENDROOT
BRANCH   1   5
ATOM      5  C   UNL     1      46.354 -21.522 -41.765  0.00  0.00    -0.070 C 
BRANCH   5   7
ATOM      6  C   UNL     1      44.367 -19.878 -42.898  0.00  0.00    -0.104 C 
ATOM      7  C   UNL     1      45.119 -20.991 -42.817  0.00  0.00    -0.107 C 
ENDBRANCH   5   7
ENDBRANCH   1   5
TORSDOF 2
ENDMDL
MODEL 11
REMARK VINA RESULT:    -3.483     26.483     27.115
REMARK INTER + INTRA:          -1.824
REMARK INTER:                  -3.600
REMARK INTRA:                   1.776
REMARK UNBOUND:                 1.761
REMARK  Name = cpd239.pdb
REMARK  5 active torsions:
REMARK  status: ('A' for Active; 'I' for Inactive)
REMARK    1  A    between atoms: C_2  and  C_3
REMARK    2  A    between atoms: C_3  and  N_4
REMARK    3  A    between atoms: N_4  and  C_5
REMARK    4  A    between atoms: N_4  and  C_6
REMARK    5  A    between atoms: N_4  and  C_7
REMARK                            x       y       z     vdW  Elec       q    Type
REMARK                         _______ _______ _______ _____ _____    ______ ____
ROOT
ATOM      1  N   UNL     1      41.608 -37.002 -31.012  0.00  0.00    +0.377 N 
ATOM      2  C   UNL     1      41.758 -37.973 -30.825  0.00  0.00    -0.101 C 
ATOM      3  C   UNL     1      42.424 -36.987 -31.590  0.00  0.00    -0.101 C 
ATOM      4  C   UNL     1      41.459 -36.031 -31.199  0.00  0.00    -0.101 C 
ENDROOT
BRANCH   1   5
ATOM      5  C   UNL     1      40.793 -37.017 -30.434  0.00  0.00    -0.070 C 
BRANCH   5   7
ATOM      6  C   UNL     1      38.111 -37.255 -29.605  0.00  0.00    -0.104 C 
ATOM      7  C   UNL     1      39.088 -37.059 -30.510  0.00  0.00    -0.107 C 
ENDBRANCH   5   7
ENDBRANCH   1   5
TORSDOF 2
ENDMDL
MODEL 12
REMARK VINA RESULT:    -3.473      1.392      3.486
REMARK INTER + INTRA:          -1.814
REMARK INTER:                  -3.607
REMARK INTRA:                   1.794
REMARK UNBOUND:                 1.761
REMARK  Name = cpd239.pdb
REMARK  5 active torsions:
REMARK  status: ('A' for Active; 'I' for Inactive)
REMARK    1  A    between atoms: C_2  and  C_3
REMARK    2  A    between atoms: C_3  and  N_4
REMARK    3  A    between atoms: N_4  and  C_5
REMARK    4  A    between atoms: N_4  and  C_6
REMARK    5  A    between atoms: N_4  and  C_7
REMARK                            x       y       z     vdW  Elec       q    Type
REMARK                         _______ _______ _______ _____ _____    ______ ____
ROOT
ATOM      1  N   UNL     1      56.387 -22.975 -47.349  0.00  0.00    +0.377 N 
ATOM      2  C   UNL     1      57.191 -22.874 -46.764  0.00  0.00    -0.101 C 
ATOM      3  C   UNL     1      56.901 -23.588 -47.949  0.00  0.00    -0.101 C 
ATOM      4  C   UNL     1      55.582 -23.077 -47.934  0.00  0.00    -0.101 C 
ENDROOT
BRANCH   1   5
ATOM      5  C   UNL     1      55.873 -22.362 -46.749  0.00  0.00    -0.070 C 
BRANCH   5   7
ATOM      6  C   UNL     1      55.647 -19.718 -45.805  0.00  0.00    -0.104 C 
ATOM      7  C   UNL     1      55.335 -20.748 -46.612  0.00  0.00    -0.107 C 
ENDBRANCH   5   7
ENDBRANCH   1   5
TORSDOF 2
ENDMDL
MODEL 13
REMARK VINA RESULT:    -3.431     26.382     27.071
REMARK INTER + INTRA:          -1.770
REMARK INTER:                  -3.594
REMARK INTRA:                   1.823
REMARK UNBOUND:                 1.761
REMARK  Name = cpd239.pdb
REMARK  5 active torsions:
REMARK  status: ('A' for Active; 'I' for Inactive)
REMARK    1  A    between atoms: C_2  and  C_3
REMARK    2  A    between atoms: C_3  and  N_4
REMARK    3  A    between atoms: N_4  and  C_5
REMARK    4  A    between atoms: N_4  and  C_6
REMARK    5  A    between atoms: N_4  and  C_7
REMARK                            x       y       z     vdW  Elec       q    Type
REMARK                         _______ _______ _______ _____ _____    ______ ____
ROOT
ATOM      1  N   UNL     1      39.613 -34.836 -31.643  0.00  0.00    +0.377 N 
ATOM      2  C   UNL     1      40.345 -35.464 -31.377  0.00  0.00    -0.101 C 
ATOM      3  C   UNL     1      40.278 -34.094 -31.719  0.00  0.00    -0.101 C 
ATOM      4  C   UNL     1      38.882 -34.209 -31.909  0.00  0.00    -0.101 C 
ENDROOT
BRANCH   1   5
ATOM      5  C   UNL     1      38.948 -35.579 -31.568  0.00  0.00    -0.070 C 
BRANCH   5   7
ATOM      6  C   UNL     1      37.163 -36.501 -29.592  0.00  0.00    -0.104 C 
ATOM      7  C   UNL     1      38.209 -36.617 -30.431  0.00  0.00    -0.107 C 
ENDBRANCH   5   7
ENDBRANCH   1   5
TORSDOF 2
ENDMDL
MODEL 14
REMARK VINA RESULT:    -3.411     11.082     11.973
REMARK INTER + INTRA:          -1.750
REMARK INTER:                  -3.561
REMARK INTRA:                   1.811
REMARK UNBOUND:                 1.761
REMARK  Name = cpd239.pdb
REMARK  5 active torsions:
REMARK  status: ('A' for Active; 'I' for Inactive)
REMARK    1  A    between atoms: C_2  and  C_3
REMARK    2  A    between atoms: C_3  and  N_4
REMARK    3  A    between atoms: N_4  and  C_5
REMARK    4  A    between atoms: N_4  and  C_6
REMARK    5  A    between atoms: N_4  and  C_7
REMARK                            x       y       z     vdW  Elec       q    Type
REMARK                         _______ _______ _______ _____ _____    ______ ____
ROOT
ATOM      1  N   UNL     1      54.359 -35.077 -46.376  0.00  0.00    +0.377 N 
ATOM      2  C   UNL     1      54.565 -34.382 -45.687  0.00  0.00    -0.101 C 
ATOM      3  C   UNL     1      53.432 -35.164 -46.012  0.00  0.00    -0.101 C 
ATOM      4  C   UNL     1      54.154 -35.772 -47.065  0.00  0.00    -0.101 C 
ENDROOT
BRANCH   1   5
ATOM      5  C   UNL     1      55.287 -34.991 -46.741  0.00  0.00    -0.070 C 
BRANCH   5   7
ATOM      6  C   UNL     1      56.655 -33.789 -48.890  0.00  0.00    -0.104 C 
ATOM      7  C   UNL     1      56.304 -33.921 -47.598  0.00  0.00    -0.107 C 
ENDBRANCH   5   7
ENDBRANCH   1   5
TORSDOF 2
ENDMDL
MODEL 15
REMARK VINA RESULT:    -3.339     41.065     41.718
REMARK INTER + INTRA:          -1.676
REMARK INTER:                  -3.508
REMARK INTRA:                   1.833
REMARK UNBOUND:                 1.761
REMARK  Name = cpd239.pdb
REMARK  5 active torsions:
REMARK  status: ('A' for Active; 'I' for Inactive)
REMARK    1  A    between atoms: C_2  and  C_3
REMARK    2  A    between atoms: C_3  and  N_4
REMARK    3  A    between atoms: N_4  and  C_5
REMARK    4  A    between atoms: N_4  and  C_6
REMARK    5  A    between atoms: N_4  and  C_7
REMARK                            x       y       z     vdW  Elec       q    Type
REMARK                         _______ _______ _______ _____ _____    ______ ____
ROOT
ATOM      1  N   UNL     1      62.923 -26.060  -6.772  0.00  0.00    +0.377 N 
ATOM      2  C   UNL     1      62.338 -25.253  -6.854  0.00  0.00    -0.101 C 
ATOM      3  C   UNL     1      62.179 -26.634  -7.113  0.00  0.00    -0.101 C 
ATOM      4  C   UNL     1      63.508 -26.867  -6.689  0.00  0.00    -0.101 C 
ENDROOT
BRANCH   1   5
ATOM      5  C   UNL     1      63.667 -25.485  -6.430  0.00  0.00    -0.070 C 
BRANCH   5   7
ATOM      6  C   UNL     1      64.301 -24.582  -3.838  0.00  0.00    -0.104 C 
ATOM      7  C   UNL     1      64.577 -25.153  -5.025  0.00  0.00    -0.107 C 
ENDBRANCH   5   7
ENDBRANCH   1   5
TORSDOF 2
ENDMDL
MODEL 16
REMARK VINA RESULT:    -3.338     26.792     27.420
REMARK INTER + INTRA:          -1.675
REMARK INTER:                  -3.534
REMARK INTRA:                   1.860
REMARK UNBOUND:                 1.761
REMARK  Name = cpd239.pdb
REMARK  5 active torsions:
REMARK  status: ('A' for Active; 'I' for Inactive)
REMARK    1  A    between atoms: C_2  and  C_3
REMARK    2  A    between atoms: C_3  and  N_4
REMARK    3  A    between atoms: N_4  and  C_5
REMARK    4  A    between atoms: N_4  and  C_6
REMARK    5  A    between atoms: N_4  and  C_7
REMARK                            x       y       z     vdW  Elec       q    Type
REMARK                         _______ _______ _______ _____ _____    ______ ____
ROOT
ATOM      1  N   UNL     1      38.518 -36.557 -30.958  0.00  0.00    +0.377 N 
ATOM      2  C   UNL     1      38.910 -37.123 -30.233  0.00  0.00    -0.101 C 
ATOM      3  C   UNL     1      37.630 -36.995 -30.820  0.00  0.00    -0.101 C 
ATOM      4  C   UNL     1      38.127 -35.991 -31.684  0.00  0.00    -0.101 C 
ENDROOT
BRANCH   1   5
ATOM      5  C   UNL     1      39.407 -36.119 -31.096  0.00  0.00    -0.070 C 
BRANCH   5   7
ATOM      6  C   UNL     1      41.697 -37.159 -32.365  0.00  0.00    -0.104 C 
ATOM      7  C   UNL     1      40.810 -36.192 -32.065  0.00  0.00    -0.107 C 
ENDBRANCH   5   7
ENDBRANCH   1   5
TORSDOF 2
ENDMDL
MODEL 17
REMARK VINA RESULT:    -3.226      1.682      2.115
REMARK INTER + INTRA:          -1.560
REMARK INTER:                  -3.351
REMARK INTRA:                   1.792
REMARK UNBOUND:                 1.761
REMARK  Name = cpd239.pdb
REMARK  5 active torsions:
REMARK  status: ('A' for Active; 'I' for Inactive)
REMARK    1  A    between atoms: C_2  and  C_3
REMARK    2  A    between atoms: C_3  and  N_4
REMARK    3  A    between atoms: N_4  and  C_5
REMARK    4  A    between atoms: N_4  and  C_6
REMARK    5  A    between atoms: N_4  and  C_7
REMARK                            x       y       z     vdW  Elec       q    Type
REMARK                         _______ _______ _______ _____ _____    ______ ____
ROOT
ATOM      1  N   UNL     1      57.081 -22.643 -47.305  0.00  0.00    +0.377 N 
ATOM      2  C   UNL     1      57.821 -22.408 -47.934  0.00  0.00    -0.101 C 
ATOM      3  C   UNL     1      57.533 -22.125 -46.579  0.00  0.00    -0.101 C 
ATOM      4  C   UNL     1      56.341 -22.879 -46.675  0.00  0.00    -0.101 C 
ENDROOT
BRANCH   1   5
ATOM      5  C   UNL     1      56.629 -23.162 -48.030  0.00  0.00    -0.070 C 
BRANCH   5   7
ATOM      6  C   UNL     1      55.243 -23.022 -50.479  0.00  0.00    -0.104 C 
ATOM      7  C   UNL     1      55.332 -23.082 -49.138  0.00  0.00    -0.107 C 
ENDBRANCH   5   7
ENDBRANCH   1   5
TORSDOF 2
ENDMDL
MODEL 18
REMARK VINA RESULT:    -3.091     10.798     12.141
REMARK INTER + INTRA:          -1.420
REMARK INTER:                  -3.180
REMARK INTRA:                   1.760
REMARK UNBOUND:                 1.761
REMARK  Name = cpd239.pdb
REMARK  5 active torsions:
REMARK  status: ('A' for Active; 'I' for Inactive)
REMARK    1  A    between atoms: C_2  and  C_3
REMARK    2  A    between atoms: C_3  and  N_4
REMARK    3  A    between atoms: N_4  and  C_5
REMARK    4  A    between atoms: N_4  and  C_6
REMARK    5  A    between atoms: N_4  and  C_7
REMARK                            x       y       z     vdW  Elec       q    Type
REMARK                         _______ _______ _______ _____ _____    ______ ____
ROOT
ATOM      1  N   UNL     1      47.683 -22.310 -41.432  0.00  0.00    +0.377 N 
ATOM      2  C   UNL     1      46.777 -22.224 -41.847  0.00  0.00    -0.101 C 
ATOM      3  C   UNL     1      47.945 -22.965 -42.141  0.00  0.00    -0.101 C 
ATOM      4  C   UNL     1      48.589 -22.396 -41.017  0.00  0.00    -0.101 C 
ENDROOT
BRANCH   1   5
ATOM      5  C   UNL     1      47.421 -21.656 -40.723  0.00  0.00    -0.070 C 
BRANCH   5   7
ATOM      6  C   UNL     1      46.332 -20.548 -38.373  0.00  0.00    -0.104 C 
ATOM      7  C   UNL     1      46.728 -21.560 -39.166  0.00  0.00    -0.107 C 
ENDBRANCH   5   7
ENDBRANCH   1   5
TORSDOF 2
ENDMDL
MODEL 19
REMARK VINA RESULT:    -3.032     12.253     13.032
REMARK INTER + INTRA:          -1.359
REMARK INTER:                  -3.188
REMARK INTRA:                   1.828
REMARK UNBOUND:                 1.761
REMARK  Name = cpd239.pdb
REMARK  5 active torsions:
REMARK  status: ('A' for Active; 'I' for Inactive)
REMARK    1  A    between atoms: C_2  and  C_3
REMARK    2  A    between atoms: C_3  and  N_4
REMARK    3  A    between atoms: N_4  and  C_5
REMARK    4  A    between atoms: N_4  and  C_6
REMARK    5  A    between atoms: N_4  and  C_7
REMARK                            x       y       z     vdW  Elec       q    Type
REMARK                         _______ _______ _______ _____ _____    ______ ____
ROOT
ATOM      1  N   UNL     1      55.570 -36.017 -47.680  0.00  0.00    +0.377 N 
ATOM      2  C   UNL     1      55.148 -36.923 -47.685  0.00  0.00    -0.101 C 
ATOM      3  C   UNL     1      55.894 -36.162 -48.615  0.00  0.00    -0.101 C 
ATOM      4  C   UNL     1      55.992 -35.110 -47.675  0.00  0.00    -0.101 C 
ENDROOT
BRANCH   1   5
ATOM      5  C   UNL     1      55.246 -35.871 -46.745  0.00  0.00    -0.070 C 
BRANCH   5   7
ATOM      6  C   UNL     1      52.746 -35.054 -45.736  0.00  0.00    -0.104 C 
ATOM      7  C   UNL     1      54.086 -35.004 -45.840  0.00  0.00    -0.107 C 
ENDBRANCH   5   7
ENDBRANCH   1   5
TORSDOF 2
ENDMDL
MODEL 20
REMARK VINA RESULT:    -2.982     11.247     12.252
REMARK INTER + INTRA:          -1.308
REMARK INTER:                  -3.089
REMARK INTRA:                   1.780
REMARK UNBOUND:                 1.761
REMARK  Name = cpd239.pdb
REMARK  5 active torsions:
REMARK  status: ('A' for Active; 'I' for Inactive)
REMARK    1  A    between atoms: C_2  and  C_3
REMARK    2  A    between atoms: C_3  and  N_4
REMARK    3  A    between atoms: N_4  and  C_5
REMARK    4  A    between atoms: N_4  and  C_6
REMARK    5  A    between atoms: N_4  and  C_7
REMARK                            x       y       z     vdW  Elec       q    Type
REMARK                         _______ _______ _______ _____ _____    ______ ____
ROOT
ATOM      1  N   UNL     1      46.266 -21.222 -40.360  0.00  0.00    +0.377 N 
ATOM      2  C   UNL     1      45.610 -21.226 -41.114  0.00  0.00    -0.101 C 
ATOM      3  C   UNL     1      45.922 -20.330 -40.065  0.00  0.00    -0.101 C 
ATOM      4  C   UNL     1      46.922 -21.218 -39.605  0.00  0.00    -0.101 C 
ENDROOT
BRANCH   1   5
ATOM      5  C   UNL     1      46.610 -22.113 -40.655  0.00  0.00    -0.070 C 
BRANCH   5   7
ATOM      6  C   UNL     1      48.046 -23.865 -42.330  0.00  0.00    -0.104 C 
ATOM      7  C   UNL     1      47.926 -22.855 -41.449  0.00  0.00    -0.107 C 
ENDBRANCH   5   7
ENDBRANCH   1   5
TORSDOF 2
ENDMDL
