@<TRIPOS>MOLECULE
*****
 7 6 0 0 0
SMALL
GASTEIGER

@<TRIPOS>ATOM
      1 C          -0.7321   -1.0000    0.0000 C.2     1  UNL1        0.0011
      2 C           0.1340   -1.5000    0.0000 C.2     1  UNL1        0.0343
      3 C           1.0000   -1.0000    0.0000 C.3     1  UNL1        0.1366
      4 N           1.0000   -0.0000    0.0000 N.4     1  UNL1        0.3140
      5 C           2.0000   -0.0000    0.0000 C.3     1  UNL1        0.1713
      6 C           1.0000    1.0000    0.0000 C.3     1  UNL1        0.1713
      7 C           0.0000   -0.0000    0.0000 C.3     1  UNL1        0.1713
@<TRIPOS>UNITY_ATOM_ATTR
4 1
charge 1
@<TRIPOS>BOND
     1     1     2    2
     2     2     3    1
     3     3     4    1
     4     4     5    1
     5     4     6    1
     6     4     7    1
