MODEL 1
REMARK VINA RESULT:    -7.962      0.000      0.000
REMARK INTER + INTRA:         -19.308
REMARK INTER:                 -14.479
REMARK INTRA:                  -4.829
REMARK UNBOUND:                -4.829
REMARK  Name = cpd30.pdb
REMARK  16 active torsions:
REMARK  status: ('A' for Active; 'I' for Inactive)
REMARK    1  A    between atoms: C_1  and  C_2
REMARK    2  A    between atoms: C_6  and  N_7
REMARK    3  A    between atoms: N_7  and  C_8
REMARK    4  A    between atoms: C_13  and  C_14
REMARK    5  A    between atoms: N_16  and  C_17
REMARK    6  A    between atoms: C_17  and  C_18
REMARK    7  A    between atoms: C_18  and  C_19
REMARK    8  A    between atoms: C_19  and  C_20
REMARK    9  A    between atoms: C_20  and  C_21
REMARK   10  A    between atoms: C_21  and  C_22
REMARK   11  A    between atoms: N_24  and  C_25
REMARK   12  A    between atoms: C_25  and  C_26
REMARK   13  A    between atoms: C_26  and  C_27
REMARK   14  A    between atoms: C_27  and  N_28
REMARK   15  A    between atoms: N_28  and  C_29
REMARK   16  A    between atoms: C_43  and  C_44
REMARK                            x       y       z     vdW  Elec       q    Type
REMARK                         _______ _______ _______ _____ _____    ______ ____
ROOT
ATOM      1  C   UNL A   1      33.321 -36.919 -31.755  0.00  0.00    -0.045 C 
ENDROOT
BRANCH   1   2
ATOM      2  C   UNL A   1      33.057 -37.909 -32.890  0.00  0.00    -0.051 C 
BRANCH   2   3
ATOM      3  C   UNL A   1      31.779 -38.717 -32.644  0.00  0.00    -0.037 C 
BRANCH   3   4
ATOM      4  C   UNL A   1      31.711 -39.983 -33.500  0.00  0.00    +0.012 C 
BRANCH   4   7
ATOM      5  C   UNL A   1      31.945 -41.577 -31.549  0.00  0.00    +0.246 C 
ATOM      6  O   UNL A   1      31.324 -42.286 -30.765  0.00  0.00    -0.270 OA
ATOM      7  N   UNL A   1      31.357 -41.163 -32.724  0.00  0.00    -0.311 N 
ATOM      8  H   UNL A   1      30.625 -41.720 -33.073  0.00  0.00    +0.000 HD
BRANCH   5  14
ATOM      9  C   UNL A   1      33.654 -40.456 -30.069  0.00  0.00    +0.044 A 
ATOM     10  C   UNL A   1      35.003 -40.126 -29.866  0.00  0.00    -0.040 A 
ATOM     11  C   UNL A   1      35.981 -40.441 -30.815  0.00  0.00    -0.060 A 
ATOM     12  C   UNL A   1      35.632 -41.097 -31.991  0.00  0.00    -0.061 A 
ATOM     13  C   UNL A   1      34.305 -41.458 -32.211  0.00  0.00    -0.048 A 
ATOM     14  C   UNL A   1      33.330 -41.165 -31.245  0.00  0.00    +0.058 A 
BRANCH   9  15
ATOM     15  N   UNL A   1      32.673 -40.120 -29.107  0.00  0.00    -0.314 N 
ATOM     16  H   UNL A   1      31.983 -40.807 -28.961  0.00  0.00    +0.000 HD
BRANCH  15  22
ATOM     17  C   UNL A   1      33.184 -37.760 -24.725  0.00  0.00    -0.039 C 
ATOM     18  C   UNL A   1      32.762 -37.804 -26.169  0.00  0.00    -0.046 A 
ATOM     19  C   UNL A   1      32.170 -36.663 -26.729  0.00  0.00    -0.058 A 
ATOM     20  C   UNL A   1      31.754 -36.658 -28.056  0.00  0.00    -0.060 A 
ATOM     21  C   UNL A   1      31.924 -37.794 -28.842  0.00  0.00    -0.040 A 
ATOM     22  C   UNL A   1      32.526 -38.949 -28.322  0.00  0.00    +0.035 A 
ATOM     23  C   UNL A   1      32.970 -38.949 -26.977  0.00  0.00    -0.026 A 
ATOM     24  C   UNL A   1      33.616 -40.185 -26.396  0.00  0.00    -0.038 C 
ENDBRANCH  15  22
ENDBRANCH   9  15
ENDBRANCH   5  14
ENDBRANCH   4   7
ENDBRANCH   3   4
ENDBRANCH   2   3
ENDBRANCH   1   2
BRANCH   1  25
ATOM     25  C   UNL A   1      32.323 -35.764 -31.790  0.00  0.00    +0.024 C 
BRANCH  25  26
ATOM     26  C   UNL A   1      32.914 -34.466 -31.271  0.00  0.00    +0.213 C 
ATOM     27  O   UNL A   1      32.427 -33.810 -30.358  0.00  0.00    -0.276 OA
ATOM     28  N   UNL A   1      34.064 -34.104 -31.939  0.00  0.00    -0.315 N 
ATOM     29  H   UNL A   1      34.392 -34.678 -32.669  0.00  0.00    +0.000 HD
BRANCH  28  30
ATOM     30  C   UNL A   1      34.806 -32.906 -31.601  0.00  0.00    +0.013 C 
BRANCH  30  31
ATOM     31  C   UNL A   1      35.984 -33.208 -30.680  0.00  0.00    -0.022 C 
BRANCH  31  32
ATOM     32  C   UNL A   1      37.191 -33.685 -31.483  0.00  0.00    +0.011 C 
BRANCH  32  33
ATOM     33  N   UNL A   1      37.016 -35.102 -31.833  0.00  0.00    -0.343 N 
ATOM     34  H   UNL A   1      36.403 -35.430 -32.531  0.00  0.00    +0.000 HD
BRANCH  33  35
ATOM     35  C   UNL A   1      37.847 -35.944 -31.033  0.00  0.00    +0.041 A 
ATOM     36  C   UNL A   1      39.139 -36.258 -31.501  0.00  0.00    -0.005 A 
ATOM     37  C   UNL A   1      39.918 -37.116 -30.723  0.00  0.00    +0.047 A 
ATOM     38  N   UNL A   1      39.475 -37.687 -29.579  0.00  0.00    -0.251 NA
ATOM     39  C   UNL A   1      38.241 -37.400 -29.143  0.00  0.00    +0.073 A 
ATOM     40  C   UNL A   1      37.818 -37.995 -27.962  0.00  0.00    -0.036 A 
ATOM     41  C   UNL A   1      36.548 -37.763 -27.429  0.00  0.00    -0.060 A 
ATOM     42  C   UNL A   1      35.674 -36.915 -28.089  0.00  0.00    -0.061 A 
ATOM     43  C   UNL A   1      36.078 -36.305 -29.277  0.00  0.00    -0.051 A 
ATOM     44  C   UNL A   1      37.366 -36.534 -29.828  0.00  0.00    +0.021 A 
ATOM     45  C   UNL A   1      41.309 -37.519 -31.141  0.00  0.00    -0.010 C 
ATOM     46  C   UNL A   1      41.947 -36.550 -32.129  0.00  0.00    -0.047 C 
ATOM     47  C   UNL A   1      40.978 -36.261 -33.265  0.00  0.00    -0.049 C 
ATOM     48  C   UNL A   1      39.710 -35.593 -32.733  0.00  0.00    -0.024 C 
ENDBRANCH  33  35
ENDBRANCH  32  33
ENDBRANCH  31  32
ENDBRANCH  30  31
ENDBRANCH  28  30
ENDBRANCH  25  26
ENDBRANCH   1  25
TORSDOF 14
ENDMDL
MODEL 2
REMARK VINA RESULT:    -7.402     16.975     21.416
REMARK INTER + INTRA:         -18.290
REMARK INTER:                 -13.551
REMARK INTRA:                  -4.739
REMARK UNBOUND:                -4.829
REMARK  Name = cpd30.pdb
REMARK  16 active torsions:
REMARK  status: ('A' for Active; 'I' for Inactive)
REMARK    1  A    between atoms: C_1  and  C_2
REMARK    2  A    between atoms: C_6  and  N_7
REMARK    3  A    between atoms: N_7  and  C_8
REMARK    4  A    between atoms: C_13  and  C_14
REMARK    5  A    between atoms: N_16  and  C_17
REMARK    6  A    between atoms: C_17  and  C_18
REMARK    7  A    between atoms: C_18  and  C_19
REMARK    8  A    between atoms: C_19  and  C_20
REMARK    9  A    between atoms: C_20  and  C_21
REMARK   10  A    between atoms: C_21  and  C_22
REMARK   11  A    between atoms: N_24  and  C_25
REMARK   12  A    between atoms: C_25  and  C_26
REMARK   13  A    between atoms: C_26  and  C_27
REMARK   14  A    between atoms: C_27  and  N_28
REMARK   15  A    between atoms: N_28  and  C_29
REMARK   16  A    between atoms: C_43  and  C_44
REMARK                            x       y       z     vdW  Elec       q    Type
REMARK                         _______ _______ _______ _____ _____    ______ ____
ROOT
ATOM      1  C   UNL A   1      43.423 -18.358 -32.796  0.00  0.00    -0.045 C 
ENDROOT
BRANCH   1   2
ATOM      2  C   UNL A   1      42.473 -19.202 -33.646  0.00  0.00    -0.051 C 
BRANCH   2   3
ATOM      3  C   UNL A   1      43.198 -20.388 -34.289  0.00  0.00    -0.037 C 
BRANCH   3   4
ATOM      4  C   UNL A   1      42.828 -20.573 -35.762  0.00  0.00    +0.012 C 
BRANCH   4   7
ATOM      5  C   UNL A   1      41.857 -19.093 -37.569  0.00  0.00    +0.246 C 
ATOM      6  O   UNL A   1      41.407 -17.977 -37.806  0.00  0.00    -0.270 OA
ATOM      7  N   UNL A   1      42.631 -19.306 -36.451  0.00  0.00    -0.311 N 
ATOM      8  H   UNL A   1      43.098 -18.523 -36.080  0.00  0.00    +0.000 HD
BRANCH   5  14
ATOM      9  C   UNL A   1      40.409 -20.998 -38.371  0.00  0.00    +0.044 A 
ATOM     10  C   UNL A   1      40.231 -22.034 -39.301  0.00  0.00    -0.040 A 
ATOM     11  C   UNL A   1      41.198 -22.315 -40.272  0.00  0.00    -0.060 A 
ATOM     12  C   UNL A   1      42.367 -21.563 -40.336  0.00  0.00    -0.061 A 
ATOM     13  C   UNL A   1      42.562 -20.515 -39.440  0.00  0.00    -0.048 A 
ATOM     14  C   UNL A   1      41.578 -20.218 -38.485  0.00  0.00    +0.058 A 
BRANCH   9  15
ATOM     15  N   UNL A   1      39.430 -20.733 -37.385  0.00  0.00    -0.314 N 
ATOM     16  H   UNL A   1      38.747 -20.072 -37.646  0.00  0.00    +0.000 HD
BRANCH  15  22
ATOM     17  C   UNL A   1      38.841 -20.035 -32.465  0.00  0.00    -0.039 C 
ATOM     18  C   UNL A   1      39.006 -20.921 -33.672  0.00  0.00    -0.046 A 
ATOM     19  C   UNL A   1      39.050 -22.309 -33.482  0.00  0.00    -0.058 A 
ATOM     20  C   UNL A   1      39.211 -23.168 -34.564  0.00  0.00    -0.060 A 
ATOM     21  C   UNL A   1      39.330 -22.650 -35.850  0.00  0.00    -0.040 A 
ATOM     22  C   UNL A   1      39.276 -21.268 -36.082  0.00  0.00    +0.035 A 
ATOM     23  C   UNL A   1      39.091 -20.392 -34.983  0.00  0.00    -0.026 A 
ATOM     24  C   UNL A   1      39.034 -18.900 -35.210  0.00  0.00    -0.038 C 
ENDBRANCH  15  22
ENDBRANCH   9  15
ENDBRANCH   5  14
ENDBRANCH   4   7
ENDBRANCH   3   4
ENDBRANCH   2   3
ENDBRANCH   1   2
BRANCH   1  25
ATOM     25  C   UNL A   1      43.811 -17.069 -33.519  0.00  0.00    +0.024 C 
BRANCH  25  26
ATOM     26  C   UNL A   1      44.664 -17.324 -34.747  0.00  0.00    +0.213 C 
ATOM     27  O   UNL A   1      44.347 -16.988 -35.882  0.00  0.00    -0.276 OA
ATOM     28  N   UNL A   1      45.841 -17.977 -34.447  0.00  0.00    -0.315 N 
ATOM     29  H   UNL A   1      46.024 -18.225 -33.512  0.00  0.00    +0.000 HD
BRANCH  28  30
ATOM     30  C   UNL A   1      46.817 -18.311 -35.465  0.00  0.00    +0.013 C 
BRANCH  30  31
ATOM     31  C   UNL A   1      46.936 -19.818 -35.667  0.00  0.00    -0.022 C 
BRANCH  31  32
ATOM     32  C   UNL A   1      46.391 -20.226 -37.033  0.00  0.00    +0.011 C 
BRANCH  32  33
ATOM     33  N   UNL A   1      47.327 -19.794 -38.081  0.00  0.00    -0.343 N 
ATOM     34  H   UNL A   1      48.248 -19.488 -37.911  0.00  0.00    +0.000 HD
BRANCH  33  35
ATOM     35  C   UNL A   1      46.733 -19.874 -39.378  0.00  0.00    +0.041 A 
ATOM     36  C   UNL A   1      45.864 -18.843 -39.787  0.00  0.00    -0.005 A 
ATOM     37  C   UNL A   1      45.263 -18.964 -41.041  0.00  0.00    +0.047 A 
ATOM     38  N   UNL A   1      45.441 -20.035 -41.848  0.00  0.00    -0.251 NA
ATOM     39  C   UNL A   1      46.255 -21.022 -41.451  0.00  0.00    +0.073 A 
ATOM     40  C   UNL A   1      46.422 -22.105 -42.304  0.00  0.00    -0.036 A 
ATOM     41  C   UNL A   1      47.246 -23.185 -41.979  0.00  0.00    -0.060 A 
ATOM     42  C   UNL A   1      47.922 -23.188 -40.769  0.00  0.00    -0.061 A 
ATOM     43  C   UNL A   1      47.770 -22.111 -39.896  0.00  0.00    -0.051 A 
ATOM     44  C   UNL A   1      46.935 -21.008 -40.217  0.00  0.00    +0.021 A 
ATOM     45  C   UNL A   1      44.311 -17.919 -41.566  0.00  0.00    -0.010 C 
ATOM     46  C   UNL A   1      44.479 -16.560 -40.897  0.00  0.00    -0.047 C 
ATOM     47  C   UNL A   1      44.500 -16.729 -39.386  0.00  0.00    -0.049 C 
ATOM     48  C   UNL A   1      45.687 -17.591 -38.958  0.00  0.00    -0.024 C 
ENDBRANCH  33  35
ENDBRANCH  32  33
ENDBRANCH  31  32
ENDBRANCH  30  31
ENDBRANCH  28  30
ENDBRANCH  25  26
ENDBRANCH   1  25
TORSDOF 14
ENDMDL
MODEL 3
REMARK VINA RESULT:    -7.284     16.873     21.411
REMARK INTER + INTRA:         -18.075
REMARK INTER:                 -13.480
REMARK INTRA:                  -4.594
REMARK UNBOUND:                -4.829
REMARK  Name = cpd30.pdb
REMARK  16 active torsions:
REMARK  status: ('A' for Active; 'I' for Inactive)
REMARK    1  A    between atoms: C_1  and  C_2
REMARK    2  A    between atoms: C_6  and  N_7
REMARK    3  A    between atoms: N_7  and  C_8
REMARK    4  A    between atoms: C_13  and  C_14
REMARK    5  A    between atoms: N_16  and  C_17
REMARK    6  A    between atoms: C_17  and  C_18
REMARK    7  A    between atoms: C_18  and  C_19
REMARK    8  A    between atoms: C_19  and  C_20
REMARK    9  A    between atoms: C_20  and  C_21
REMARK   10  A    between atoms: C_21  and  C_22
REMARK   11  A    between atoms: N_24  and  C_25
REMARK   12  A    between atoms: C_25  and  C_26
REMARK   13  A    between atoms: C_26  and  C_27
REMARK   14  A    between atoms: C_27  and  N_28
REMARK   15  A    between atoms: N_28  and  C_29
REMARK   16  A    between atoms: C_43  and  C_44
REMARK                            x       y       z     vdW  Elec       q    Type
REMARK                         _______ _______ _______ _____ _____    ______ ____
ROOT
ATOM      1  C   UNL A   1      43.086 -18.179 -34.993  0.00  0.00    -0.045 C 
ENDROOT
BRANCH   1   2
ATOM      2  C   UNL A   1      41.877 -19.073 -34.714  0.00  0.00    -0.051 C 
BRANCH   2   3
ATOM      3  C   UNL A   1      42.304 -20.494 -34.334  0.00  0.00    -0.037 C 
BRANCH   3   4
ATOM      4  C   UNL A   1      41.539 -21.032 -33.124  0.00  0.00    +0.012 C 
BRANCH   4   7
ATOM      5  C   UNL A   1      39.814 -22.663 -33.996  0.00  0.00    +0.246 C 
ATOM      6  O   UNL A   1      39.659 -23.761 -34.521  0.00  0.00    -0.270 OA
ATOM      7  N   UNL A   1      40.994 -22.362 -33.355  0.00  0.00    -0.311 N 
ATOM      8  H   UNL A   1      41.522 -23.122 -33.019  0.00  0.00    +0.000 HD
BRANCH   5  14
ATOM      9  C   UNL A   1      38.349 -21.033 -35.246  0.00  0.00    +0.044 A 
ATOM     10  C   UNL A   1      37.300 -20.102 -35.186  0.00  0.00    -0.040 A 
ATOM     11  C   UNL A   1      36.693 -19.767 -33.970  0.00  0.00    -0.060 A 
ATOM     12  C   UNL A   1      37.122 -20.360 -32.786  0.00  0.00    -0.061 A 
ATOM     13  C   UNL A   1      38.145 -21.303 -32.818  0.00  0.00    -0.048 A 
ATOM     14  C   UNL A   1      38.733 -21.657 -34.042  0.00  0.00    +0.058 A 
BRANCH   9  15
ATOM     15  N   UNL A   1      38.963 -21.352 -36.481  0.00  0.00    -0.314 N 
ATOM     16  H   UNL A   1      38.752 -22.249 -36.829  0.00  0.00    +0.000 HD
BRANCH  15  22
ATOM     17  C   UNL A   1      43.338 -20.848 -38.857  0.00  0.00    -0.039 C 
ATOM     18  C   UNL A   1      41.985 -20.336 -38.440  0.00  0.00    -0.046 A 
ATOM     19  C   UNL A   1      41.606 -19.046 -38.838  0.00  0.00    -0.058 A 
ATOM     20  C   UNL A   1      40.371 -18.524 -38.469  0.00  0.00    -0.060 A 
ATOM     21  C   UNL A   1      39.498 -19.285 -37.698  0.00  0.00    -0.040 A 
ATOM     22  C   UNL A   1      39.834 -20.585 -37.293  0.00  0.00    +0.035 A 
ATOM     23  C   UNL A   1      41.083 -21.127 -37.686  0.00  0.00    -0.026 A 
ATOM     24  C   UNL A   1      41.467 -22.523 -37.257  0.00  0.00    -0.038 C 
ENDBRANCH  15  22
ENDBRANCH   9  15
ENDBRANCH   5  14
ENDBRANCH   4   7
ENDBRANCH   3   4
ENDBRANCH   2   3
ENDBRANCH   1   2
BRANCH   1  25
ATOM     25  C   UNL A   1      43.901 -17.945 -33.722  0.00  0.00    +0.024 C 
BRANCH  25  26
ATOM     26  C   UNL A   1      45.375 -18.250 -33.909  0.00  0.00    +0.213 C 
ATOM     27  O   UNL A   1      46.278 -17.605 -33.389  0.00  0.00    -0.276 OA
ATOM     28  N   UNL A   1      45.590 -19.336 -34.731  0.00  0.00    -0.315 N 
ATOM     29  H   UNL A   1      44.815 -19.800 -35.122  0.00  0.00    +0.000 HD
BRANCH  28  30
ATOM     30  C   UNL A   1      46.922 -19.816 -35.039  0.00  0.00    +0.013 C 
BRANCH  30  31
ATOM     31  C   UNL A   1      47.478 -19.179 -36.309  0.00  0.00    -0.022 C 
BRANCH  31  32
ATOM     32  C   UNL A   1      46.575 -19.477 -37.503  0.00  0.00    +0.011 C 
BRANCH  32  33
ATOM     33  N   UNL A   1      47.170 -18.906 -38.720  0.00  0.00    -0.343 N 
ATOM     34  H   UNL A   1      48.067 -18.502 -38.762  0.00  0.00    +0.000 HD
BRANCH  33  35
ATOM     35  C   UNL A   1      46.283 -19.012 -39.834  0.00  0.00    +0.041 A 
ATOM     36  C   UNL A   1      46.406 -20.123 -40.692  0.00  0.00    -0.005 A 
ATOM     37  C   UNL A   1      45.557 -20.184 -41.798  0.00  0.00    +0.047 A 
ATOM     38  N   UNL A   1      44.664 -19.213 -42.101  0.00  0.00    -0.251 NA
ATOM     39  C   UNL A   1      44.559 -18.149 -41.293  0.00  0.00    +0.073 A 
ATOM     40  C   UNL A   1      43.629 -17.173 -41.627  0.00  0.00    -0.036 A 
ATOM     41  C   UNL A   1      43.447 -16.026 -40.852  0.00  0.00    -0.060 A 
ATOM     42  C   UNL A   1      44.213 -15.844 -39.711  0.00  0.00    -0.061 A 
ATOM     43  C   UNL A   1      45.153 -16.812 -39.356  0.00  0.00    -0.051 A 
ATOM     44  C   UNL A   1      45.346 -17.982 -40.137  0.00  0.00    +0.021 A 
ATOM     45  C   UNL A   1      45.616 -21.326 -42.779  0.00  0.00    -0.010 C 
ATOM     46  C   UNL A   1      46.255 -22.584 -42.202  0.00  0.00    -0.047 C 
ATOM     47  C   UNL A   1      47.570 -22.231 -41.527  0.00  0.00    -0.049 C 
ATOM     48  C   UNL A   1      47.334 -21.270 -40.362  0.00  0.00    -0.024 C 
ENDBRANCH  33  35
ENDBRANCH  32  33
ENDBRANCH  31  32
ENDBRANCH  30  31
ENDBRANCH  28  30
ENDBRANCH  25  26
ENDBRANCH   1  25
TORSDOF 14
ENDMDL
MODEL 4
REMARK VINA RESULT:    -7.219     16.781     21.656
REMARK INTER + INTRA:         -17.956
REMARK INTER:                 -13.958
REMARK INTRA:                  -3.998
REMARK UNBOUND:                -4.829
REMARK  Name = cpd30.pdb
REMARK  16 active torsions:
REMARK  status: ('A' for Active; 'I' for Inactive)
REMARK    1  A    between atoms: C_1  and  C_2
REMARK    2  A    between atoms: C_6  and  N_7
REMARK    3  A    between atoms: N_7  and  C_8
REMARK    4  A    between atoms: C_13  and  C_14
REMARK    5  A    between atoms: N_16  and  C_17
REMARK    6  A    between atoms: C_17  and  C_18
REMARK    7  A    between atoms: C_18  and  C_19
REMARK    8  A    between atoms: C_19  and  C_20
REMARK    9  A    between atoms: C_20  and  C_21
REMARK   10  A    between atoms: C_21  and  C_22
REMARK   11  A    between atoms: N_24  and  C_25
REMARK   12  A    between atoms: C_25  and  C_26
REMARK   13  A    between atoms: C_26  and  C_27
REMARK   14  A    between atoms: C_27  and  N_28
REMARK   15  A    between atoms: N_28  and  C_29
REMARK   16  A    between atoms: C_43  and  C_44
REMARK                            x       y       z     vdW  Elec       q    Type
REMARK                         _______ _______ _______ _____ _____    ______ ____
ROOT
ATOM      1  C   UNL A   1      40.430 -19.017 -37.892  0.00  0.00    -0.045 C 
ENDROOT
BRANCH   1   2
ATOM      2  C   UNL A   1      40.827 -18.537 -36.495  0.00  0.00    -0.051 C 
BRANCH   2   3
ATOM      3  C   UNL A   1      42.323 -18.738 -36.237  0.00  0.00    -0.037 C 
BRANCH   3   4
ATOM      4  C   UNL A   1      42.866 -20.009 -36.891  0.00  0.00    +0.012 C 
BRANCH   4   7
ATOM      5  C   UNL A   1      45.010 -20.333 -35.588  0.00  0.00    +0.246 C 
ATOM      6  O   UNL A   1      45.485 -20.781 -34.549  0.00  0.00    -0.270 OA
ATOM      7  N   UNL A   1      43.768 -20.744 -36.016  0.00  0.00    -0.311 N 
ATOM      8  H   UNL A   1      43.459 -21.624 -35.699  0.00  0.00    +0.000 HD
BRANCH   5  14
ATOM      9  C   UNL A   1      46.443 -19.724 -37.574  0.00  0.00    +0.044 A 
ATOM     10  C   UNL A   1      47.122 -18.715 -38.273  0.00  0.00    -0.040 A 
ATOM     11  C   UNL A   1      47.173 -17.402 -37.792  0.00  0.00    -0.060 A 
ATOM     12  C   UNL A   1      46.542 -17.069 -36.597  0.00  0.00    -0.061 A 
ATOM     13  C   UNL A   1      45.842 -18.045 -35.892  0.00  0.00    -0.048 A 
ATOM     14  C   UNL A   1      45.770 -19.354 -36.392  0.00  0.00    +0.058 A 
BRANCH   9  15
ATOM     15  N   UNL A   1      46.411 -21.051 -38.066  0.00  0.00    -0.314 N 
ATOM     16  H   UNL A   1      46.140 -21.731 -37.407  0.00  0.00    +0.000 HD
BRANCH  15  22
ATOM     17  C   UNL A   1      44.972 -22.061 -42.750  0.00  0.00    -0.039 C 
ATOM     18  C   UNL A   1      45.993 -22.063 -41.644  0.00  0.00    -0.046 A 
ATOM     19  C   UNL A   1      47.255 -22.620 -41.898  0.00  0.00    -0.058 A 
ATOM     20  C   UNL A   1      48.228 -22.655 -40.905  0.00  0.00    -0.060 A 
ATOM     21  C   UNL A   1      47.953 -22.133 -39.645  0.00  0.00    -0.040 A 
ATOM     22  C   UNL A   1      46.708 -21.554 -39.357  0.00  0.00    +0.035 A 
ATOM     23  C   UNL A   1      45.723 -21.499 -40.373  0.00  0.00    -0.026 A 
ATOM     24  C   UNL A   1      44.374 -20.884 -40.083  0.00  0.00    -0.038 C 
ENDBRANCH  15  22
ENDBRANCH   9  15
ENDBRANCH   5  14
ENDBRANCH   4   7
ENDBRANCH   3   4
ENDBRANCH   2   3
ENDBRANCH   1   2
BRANCH   1  25
ATOM     25  C   UNL A   1      39.143 -19.838 -37.846  0.00  0.00    +0.024 C 
BRANCH  25  26
ATOM     26  C   UNL A   1      39.398 -21.307 -37.569  0.00  0.00    +0.213 C 
ATOM     27  O   UNL A   1      39.875 -22.084 -38.388  0.00  0.00    -0.276 OA
ATOM     28  N   UNL A   1      39.035 -21.676 -36.291  0.00  0.00    -0.315 N 
ATOM     29  H   UNL A   1      38.649 -20.998 -35.690  0.00  0.00    +0.000 HD
BRANCH  28  30
ATOM     30  C   UNL A   1      39.204 -23.030 -35.804  0.00  0.00    +0.013 C 
BRANCH  30  31
ATOM     31  C   UNL A   1      39.962 -23.068 -34.480  0.00  0.00    -0.022 C 
BRANCH  31  32
ATOM     32  C   UNL A   1      40.758 -21.782 -34.276  0.00  0.00    +0.011 C 
BRANCH  32  33
ATOM     33  N   UNL A   1      40.573 -21.307 -32.897  0.00  0.00    -0.343 N 
ATOM     34  H   UNL A   1      40.638 -21.880 -32.099  0.00  0.00    +0.000 HD
BRANCH  33  35
ATOM     35  C   UNL A   1      40.289 -19.908 -32.861  0.00  0.00    +0.041 A 
ATOM     36  C   UNL A   1      38.944 -19.490 -32.928  0.00  0.00    -0.005 A 
ATOM     37  C   UNL A   1      38.692 -18.117 -32.933  0.00  0.00    +0.047 A 
ATOM     38  N   UNL A   1      39.673 -17.184 -32.924  0.00  0.00    -0.251 NA
ATOM     39  C   UNL A   1      40.951 -17.583 -32.878  0.00  0.00    +0.073 A 
ATOM     40  C   UNL A   1      41.934 -16.601 -32.863  0.00  0.00    -0.036 A 
ATOM     41  C   UNL A   1      43.294 -16.914 -32.819  0.00  0.00    -0.060 A 
ATOM     42  C   UNL A   1      43.688 -18.243 -32.790  0.00  0.00    -0.061 A 
ATOM     43  C   UNL A   1      42.719 -19.245 -32.804  0.00  0.00    -0.051 A 
ATOM     44  C   UNL A   1      41.333 -18.938 -32.848  0.00  0.00    +0.021 A 
ATOM     45  C   UNL A   1      37.290 -17.570 -33.010  0.00  0.00    -0.010 C 
ATOM     46  C   UNL A   1      36.229 -18.567 -32.559  0.00  0.00    -0.047 C 
ATOM     47  C   UNL A   1      36.451 -19.903 -33.250  0.00  0.00    -0.049 C 
ATOM     48  C   UNL A   1      37.810 -20.487 -32.865  0.00  0.00    -0.024 C 
ENDBRANCH  33  35
ENDBRANCH  32  33
ENDBRANCH  31  32
ENDBRANCH  30  31
ENDBRANCH  28  30
ENDBRANCH  25  26
ENDBRANCH   1  25
TORSDOF 14
ENDMDL
MODEL 5
REMARK VINA RESULT:    -7.110     17.622     21.400
REMARK INTER + INTRA:         -17.759
REMARK INTER:                 -13.157
REMARK INTRA:                  -4.602
REMARK UNBOUND:                -4.829
REMARK  Name = cpd30.pdb
REMARK  16 active torsions:
REMARK  status: ('A' for Active; 'I' for Inactive)
REMARK    1  A    between atoms: C_1  and  C_2
REMARK    2  A    between atoms: C_6  and  N_7
REMARK    3  A    between atoms: N_7  and  C_8
REMARK    4  A    between atoms: C_13  and  C_14
REMARK    5  A    between atoms: N_16  and  C_17
REMARK    6  A    between atoms: C_17  and  C_18
REMARK    7  A    between atoms: C_18  and  C_19
REMARK    8  A    between atoms: C_19  and  C_20
REMARK    9  A    between atoms: C_20  and  C_21
REMARK   10  A    between atoms: C_21  and  C_22
REMARK   11  A    between atoms: N_24  and  C_25
REMARK   12  A    between atoms: C_25  and  C_26
REMARK   13  A    between atoms: C_26  and  C_27
REMARK   14  A    between atoms: C_27  and  N_28
REMARK   15  A    between atoms: N_28  and  C_29
REMARK   16  A    between atoms: C_43  and  C_44
REMARK                            x       y       z     vdW  Elec       q    Type
REMARK                         _______ _______ _______ _____ _____    ______ ____
ROOT
ATOM      1  C   UNL A   1      42.583 -18.135 -34.871  0.00  0.00    -0.045 C 
ENDROOT
BRANCH   1   2
ATOM      2  C   UNL A   1      41.334 -18.355 -34.015  0.00  0.00    -0.051 C 
BRANCH   2   3
ATOM      3  C   UNL A   1      41.433 -19.647 -33.199  0.00  0.00    -0.037 C 
BRANCH   3   4
ATOM      4  C   UNL A   1      42.196 -20.750 -33.935  0.00  0.00    +0.012 C 
BRANCH   4   7
ATOM      5  C   UNL A   1      41.137 -22.111 -35.786  0.00  0.00    +0.246 C 
ATOM      6  O   UNL A   1      40.745 -23.231 -36.097  0.00  0.00    -0.270 OA
ATOM      7  N   UNL A   1      41.315 -21.782 -34.461  0.00  0.00    -0.311 N 
ATOM      8  H   UNL A   1      40.794 -22.297 -33.803  0.00  0.00    +0.000 HD
BRANCH   5  14
ATOM      9  C   UNL A   1      40.425 -20.212 -37.287  0.00  0.00    +0.044 A 
ATOM     10  C   UNL A   1      40.797 -19.282 -38.270  0.00  0.00    -0.040 A 
ATOM     11  C   UNL A   1      42.087 -19.272 -38.812  0.00  0.00    -0.060 A 
ATOM     12  C   UNL A   1      43.036 -20.193 -38.379  0.00  0.00    -0.061 A 
ATOM     13  C   UNL A   1      42.703 -21.114 -37.390  0.00  0.00    -0.048 A 
ATOM     14  C   UNL A   1      41.417 -21.104 -36.829  0.00  0.00    +0.058 A 
BRANCH   9  15
ATOM     15  N   UNL A   1      39.113 -20.221 -36.758  0.00  0.00    -0.314 N 
ATOM     16  H   UNL A   1      38.551 -20.974 -37.052  0.00  0.00    +0.000 HD
BRANCH  15  22
ATOM     17  C   UNL A   1      36.396 -19.384 -32.639  0.00  0.00    -0.039 C 
ATOM     18  C   UNL A   1      37.134 -18.912 -33.863  0.00  0.00    -0.046 A 
ATOM     19  C   UNL A   1      37.152 -17.539 -34.146  0.00  0.00    -0.058 A 
ATOM     20  C   UNL A   1      37.810 -17.054 -35.270  0.00  0.00    -0.060 A 
ATOM     21  C   UNL A   1      38.461 -17.935 -36.128  0.00  0.00    -0.040 A 
ATOM     22  C   UNL A   1      38.480 -19.314 -35.871  0.00  0.00    +0.035 A 
ATOM     23  C   UNL A   1      37.827 -19.808 -34.715  0.00  0.00    -0.026 A 
ATOM     24  C   UNL A   1      37.830 -21.290 -34.422  0.00  0.00    -0.038 C 
ENDBRANCH  15  22
ENDBRANCH   9  15
ENDBRANCH   5  14
ENDBRANCH   4   7
ENDBRANCH   3   4
ENDBRANCH   2   3
ENDBRANCH   1   2
BRANCH   1  25
ATOM     25  C   UNL A   1      43.564 -17.190 -34.179  0.00  0.00    +0.024 C 
BRANCH  25  26
ATOM     26  C   UNL A   1      44.902 -17.845 -33.894  0.00  0.00    +0.213 C 
ATOM     27  O   UNL A   1      45.287 -18.153 -32.772  0.00  0.00    -0.276 OA
ATOM     28  N   UNL A   1      45.642 -18.059 -35.037  0.00  0.00    -0.315 N 
ATOM     29  H   UNL A   1      45.271 -17.776 -35.905  0.00  0.00    +0.000 HD
BRANCH  28  30
ATOM     30  C   UNL A   1      46.948 -18.685 -35.003  0.00  0.00    +0.013 C 
BRANCH  30  31
ATOM     31  C   UNL A   1      46.896 -20.134 -35.478  0.00  0.00    -0.022 C 
BRANCH  31  32
ATOM     32  C   UNL A   1      46.263 -20.227 -36.864  0.00  0.00    +0.011 C 
BRANCH  32  33
ATOM     33  N   UNL A   1      47.275 -19.919 -37.884  0.00  0.00    -0.343 N 
ATOM     34  H   UNL A   1      48.229 -19.768 -37.692  0.00  0.00    +0.000 HD
BRANCH  33  35
ATOM     35  C   UNL A   1      46.701 -19.867 -39.191  0.00  0.00    +0.041 A 
ATOM     36  C   UNL A   1      45.956 -18.728 -39.556  0.00  0.00    -0.005 A 
ATOM     37  C   UNL A   1      45.368 -18.718 -40.822  0.00  0.00    +0.047 A 
ATOM     38  N   UNL A   1      45.445 -19.760 -41.683  0.00  0.00    -0.251 NA
ATOM     39  C   UNL A   1      46.140 -20.849 -41.328  0.00  0.00    +0.073 A 
ATOM     40  C   UNL A   1      46.205 -21.898 -42.236  0.00  0.00    -0.036 A 
ATOM     41  C   UNL A   1      46.901 -23.076 -41.958  0.00  0.00    -0.060 A 
ATOM     42  C   UNL A   1      47.550 -23.215 -40.741  0.00  0.00    -0.061 A 
ATOM     43  C   UNL A   1      47.498 -22.174 -39.814  0.00  0.00    -0.051 A 
ATOM     44  C   UNL A   1      46.794 -20.972 -40.087  0.00  0.00    +0.021 A 
ATOM     45  C   UNL A   1      44.546 -17.551 -41.303  0.00  0.00    -0.010 C 
ATOM     46  C   UNL A   1      44.847 -16.254 -40.561  0.00  0.00    -0.047 C 
ATOM     47  C   UNL A   1      44.821 -16.501 -39.061  0.00  0.00    -0.049 C 
ATOM     48  C   UNL A   1      45.899 -17.509 -38.664  0.00  0.00    -0.024 C 
ENDBRANCH  33  35
ENDBRANCH  32  33
ENDBRANCH  31  32
ENDBRANCH  30  31
ENDBRANCH  28  30
ENDBRANCH  25  26
ENDBRANCH   1  25
TORSDOF 14
ENDMDL
MODEL 6
REMARK VINA RESULT:    -7.071     20.133     23.534
REMARK INTER + INTRA:         -17.687
REMARK INTER:                 -10.716
REMARK INTRA:                  -6.972
REMARK UNBOUND:                -4.829
REMARK  Name = cpd30.pdb
REMARK  16 active torsions:
REMARK  status: ('A' for Active; 'I' for Inactive)
REMARK    1  A    between atoms: C_1  and  C_2
REMARK    2  A    between atoms: C_6  and  N_7
REMARK    3  A    between atoms: N_7  and  C_8
REMARK    4  A    between atoms: C_13  and  C_14
REMARK    5  A    between atoms: N_16  and  C_17
REMARK    6  A    between atoms: C_17  and  C_18
REMARK    7  A    between atoms: C_18  and  C_19
REMARK    8  A    between atoms: C_19  and  C_20
REMARK    9  A    between atoms: C_20  and  C_21
REMARK   10  A    between atoms: C_21  and  C_22
REMARK   11  A    between atoms: N_24  and  C_25
REMARK   12  A    between atoms: C_25  and  C_26
REMARK   13  A    between atoms: C_26  and  C_27
REMARK   14  A    between atoms: C_27  and  N_28
REMARK   15  A    between atoms: N_28  and  C_29
REMARK   16  A    between atoms: C_43  and  C_44
REMARK                            x       y       z     vdW  Elec       q    Type
REMARK                         _______ _______ _______ _____ _____    ______ ____
ROOT
ATOM      1  C   UNL A   1      42.245 -18.901 -34.937  0.00  0.00    -0.045 C 
ENDROOT
BRANCH   1   2
ATOM      2  C   UNL A   1      41.369 -17.834 -34.279  0.00  0.00    -0.051 C 
BRANCH   2   3
ATOM      3  C   UNL A   1      40.934 -16.765 -35.286  0.00  0.00    -0.037 C 
BRANCH   3   4
ATOM      4  C   UNL A   1      39.797 -17.240 -36.192  0.00  0.00    +0.012 C 
BRANCH   4   7
ATOM      5  C   UNL A   1      40.089 -17.322 -38.703  0.00  0.00    +0.246 C 
ATOM      6  O   UNL A   1      39.698 -16.851 -39.766  0.00  0.00    -0.270 OA
ATOM      7  N   UNL A   1      39.861 -16.652 -37.522  0.00  0.00    -0.311 N 
ATOM      8  H   UNL A   1      39.728 -15.679 -37.583  0.00  0.00    +0.000 HD
BRANCH   5  14
ATOM      9  C   UNL A   1      42.214 -18.677 -38.814  0.00  0.00    +0.044 A 
ATOM     10  C   UNL A   1      42.807 -19.948 -38.764  0.00  0.00    -0.040 A 
ATOM     11  C   UNL A   1      42.034 -21.108 -38.640  0.00  0.00    -0.060 A 
ATOM     12  C   UNL A   1      40.648 -21.021 -38.560  0.00  0.00    -0.061 A 
ATOM     13  C   UNL A   1      40.033 -19.772 -38.584  0.00  0.00    -0.048 A 
ATOM     14  C   UNL A   1      40.812 -18.609 -38.682  0.00  0.00    +0.058 A 
BRANCH   9  15
ATOM     15  N   UNL A   1      43.007 -17.513 -38.954  0.00  0.00    -0.314 N 
ATOM     16  H   UNL A   1      43.205 -17.256 -39.883  0.00  0.00    +0.000 HD
BRANCH  15  22
ATOM     17  C   UNL A   1      43.946 -12.901 -37.255  0.00  0.00    -0.039 C 
ATOM     18  C   UNL A   1      44.033 -14.400 -37.148  0.00  0.00    -0.046 A 
ATOM     19  C   UNL A   1      44.721 -14.955 -36.059  0.00  0.00    -0.058 A 
ATOM     20  C   UNL A   1      44.838 -16.333 -35.921  0.00  0.00    -0.060 A 
ATOM     21  C   UNL A   1      44.269 -17.177 -36.871  0.00  0.00    -0.040 A 
ATOM     22  C   UNL A   1      43.561 -16.661 -37.966  0.00  0.00    +0.035 A 
ATOM     23  C   UNL A   1      43.422 -15.257 -38.096  0.00  0.00    -0.026 A 
ATOM     24  C   UNL A   1      42.667 -14.680 -39.271  0.00  0.00    -0.038 C 
ENDBRANCH  15  22
ENDBRANCH   9  15
ENDBRANCH   5  14
ENDBRANCH   4   7
ENDBRANCH   3   4
ENDBRANCH   2   3
ENDBRANCH   1   2
BRANCH   1  25
ATOM     25  C   UNL A   1      42.971 -19.740 -33.888  0.00  0.00    +0.024 C 
BRANCH  25  26
ATOM     26  C   UNL A   1      44.469 -19.500 -33.884  0.00  0.00    +0.213 C 
ATOM     27  O   UNL A   1      45.030 -18.687 -33.158  0.00  0.00    -0.276 OA
ATOM     28  N   UNL A   1      45.135 -20.299 -34.789  0.00  0.00    -0.315 N 
ATOM     29  H   UNL A   1      44.617 -20.923 -35.346  0.00  0.00    +0.000 HD
BRANCH  28  30
ATOM     30  C   UNL A   1      46.575 -20.249 -34.947  0.00  0.00    +0.013 C 
BRANCH  30  31
ATOM     31  C   UNL A   1      46.984 -19.474 -36.195  0.00  0.00    -0.022 C 
BRANCH  31  32
ATOM     32  C   UNL A   1      46.492 -20.180 -37.455  0.00  0.00    +0.011 C 
BRANCH  32  33
ATOM     33  N   UNL A   1      47.347 -19.805 -38.591  0.00  0.00    -0.343 N 
ATOM     34  H   UNL A   1      48.305 -20.019 -38.659  0.00  0.00    +0.000 HD
BRANCH  33  35
ATOM     35  C   UNL A   1      46.611 -19.091 -39.585  0.00  0.00    +0.041 A 
ATOM     36  C   UNL A   1      45.925 -19.824 -40.574  0.00  0.00    -0.005 A 
ATOM     37  C   UNL A   1      45.247 -19.104 -41.559  0.00  0.00    +0.047 A 
ATOM     38  N   UNL A   1      45.259 -17.752 -41.630  0.00  0.00    -0.251 NA
ATOM     39  C   UNL A   1      45.925 -17.057 -40.698  0.00  0.00    +0.073 A 
ATOM     40  C   UNL A   1      45.912 -15.672 -40.794  0.00  0.00    -0.036 A 
ATOM     41  C   UNL A   1      46.579 -14.859 -39.874  0.00  0.00    -0.060 A 
ATOM     42  C   UNL A   1      47.279 -15.442 -38.830  0.00  0.00    -0.061 A 
ATOM     43  C   UNL A   1      47.305 -16.831 -38.714  0.00  0.00    -0.051 A 
ATOM     44  C   UNL A   1      46.631 -17.667 -39.643  0.00  0.00    +0.021 A 
ATOM     45  C   UNL A   1      44.491 -19.795 -42.665  0.00  0.00    -0.010 C 
ATOM     46  C   UNL A   1      44.102 -21.229 -42.325  0.00  0.00    -0.047 C 
ATOM     47  C   UNL A   1      45.312 -21.978 -41.790  0.00  0.00    -0.049 C 
ATOM     48  C   UNL A   1      45.818 -21.330 -40.501  0.00  0.00    -0.024 C 
ENDBRANCH  33  35
ENDBRANCH  32  33
ENDBRANCH  31  32
ENDBRANCH  30  31
ENDBRANCH  28  30
ENDBRANCH  25  26
ENDBRANCH   1  25
TORSDOF 14
ENDMDL
MODEL 7
REMARK VINA RESULT:    -7.019     17.906     21.922
REMARK INTER + INTRA:         -17.593
REMARK INTER:                 -11.591
REMARK INTRA:                  -6.002
REMARK UNBOUND:                -4.829
REMARK  Name = cpd30.pdb
REMARK  16 active torsions:
REMARK  status: ('A' for Active; 'I' for Inactive)
REMARK    1  A    between atoms: C_1  and  C_2
REMARK    2  A    between atoms: C_6  and  N_7
REMARK    3  A    between atoms: N_7  and  C_8
REMARK    4  A    between atoms: C_13  and  C_14
REMARK    5  A    between atoms: N_16  and  C_17
REMARK    6  A    between atoms: C_17  and  C_18
REMARK    7  A    between atoms: C_18  and  C_19
REMARK    8  A    between atoms: C_19  and  C_20
REMARK    9  A    between atoms: C_20  and  C_21
REMARK   10  A    between atoms: C_21  and  C_22
REMARK   11  A    between atoms: N_24  and  C_25
REMARK   12  A    between atoms: C_25  and  C_26
REMARK   13  A    between atoms: C_26  and  C_27
REMARK   14  A    between atoms: C_27  and  N_28
REMARK   15  A    between atoms: N_28  and  C_29
REMARK   16  A    between atoms: C_43  and  C_44
REMARK                            x       y       z     vdW  Elec       q    Type
REMARK                         _______ _______ _______ _____ _____    ______ ____
ROOT
ATOM      1  C   UNL A   1      43.432 -17.791 -36.560  0.00  0.00    -0.045 C 
ENDROOT
BRANCH   1   2
ATOM      2  C   UNL A   1      43.116 -19.098 -37.290  0.00  0.00    -0.051 C 
BRANCH   2   3
ATOM      3  C   UNL A   1      43.585 -20.316 -36.488  0.00  0.00    -0.037 C 
BRANCH   3   4
ATOM      4  C   UNL A   1      43.896 -19.974 -35.030  0.00  0.00    +0.012 C 
BRANCH   4   7
ATOM      5  C   UNL A   1      41.999 -20.859 -33.609  0.00  0.00    +0.246 C 
ATOM      6  O   UNL A   1      41.451 -21.878 -33.205  0.00  0.00    -0.270 OA
ATOM      7  N   UNL A   1      43.286 -20.910 -34.096  0.00  0.00    -0.311 N 
ATOM      8  H   UNL A   1      43.850 -21.653 -33.781  0.00  0.00    +0.000 HD
BRANCH   5  14
ATOM      9  C   UNL A   1      40.181 -19.300 -34.405  0.00  0.00    +0.044 A 
ATOM     10  C   UNL A   1      39.564 -18.046 -34.280  0.00  0.00    -0.040 A 
ATOM     11  C   UNL A   1      40.056 -17.076 -33.400  0.00  0.00    -0.060 A 
ATOM     12  C   UNL A   1      41.179 -17.342 -32.621  0.00  0.00    -0.061 A 
ATOM     13  C   UNL A   1      41.799 -18.585 -32.708  0.00  0.00    -0.048 A 
ATOM     14  C   UNL A   1      41.287 -19.565 -33.571  0.00  0.00    +0.058 A 
BRANCH   9  15
ATOM     15  N   UNL A   1      39.681 -20.267 -35.309  0.00  0.00    -0.314 N 
ATOM     16  H   UNL A   1      39.207 -21.022 -34.889  0.00  0.00    +0.000 HD
BRANCH  15  22
ATOM     17  C   UNL A   1      40.967 -22.709 -39.483  0.00  0.00    -0.039 C 
ATOM     18  C   UNL A   1      40.403 -21.513 -38.763  0.00  0.00    -0.046 A 
ATOM     19  C   UNL A   1      39.983 -20.412 -39.522  0.00  0.00    -0.058 A 
ATOM     20  C   UNL A   1      39.466 -19.279 -38.903  0.00  0.00    -0.060 A 
ATOM     21  C   UNL A   1      39.360 -19.233 -37.516  0.00  0.00    -0.040 A 
ATOM     22  C   UNL A   1      39.755 -20.321 -36.723  0.00  0.00    +0.035 A 
ATOM     23  C   UNL A   1      40.264 -21.483 -37.354  0.00  0.00    -0.026 A 
ATOM     24  C   UNL A   1      40.699 -22.664 -36.519  0.00  0.00    -0.038 C 
ENDBRANCH  15  22
ENDBRANCH   9  15
ENDBRANCH   5  14
ENDBRANCH   4   7
ENDBRANCH   3   4
ENDBRANCH   2   3
ENDBRANCH   1   2
BRANCH   1  25
ATOM     25  C   UNL A   1      42.203 -16.886 -36.498  0.00  0.00    +0.024 C 
BRANCH  25  26
ATOM     26  C   UNL A   1      41.965 -16.136 -37.796  0.00  0.00    +0.213 C 
ATOM     27  O   UNL A   1      40.871 -16.040 -38.338  0.00  0.00    -0.276 OA
ATOM     28  N   UNL A   1      43.117 -15.572 -38.300  0.00  0.00    -0.315 N 
ATOM     29  H   UNL A   1      43.963 -15.699 -37.813  0.00  0.00    +0.000 HD
BRANCH  28  30
ATOM     30  C   UNL A   1      43.122 -14.797 -39.524  0.00  0.00    +0.013 C 
BRANCH  30  31
ATOM     31  C   UNL A   1      44.115 -15.349 -40.543  0.00  0.00    -0.022 C 
BRANCH  31  32
ATOM     32  C   UNL A   1      44.331 -16.845 -40.331  0.00  0.00    +0.011 C 
BRANCH  32  33
ATOM     33  N   UNL A   1      45.756 -17.163 -40.506  0.00  0.00    -0.343 N 
ATOM     34  H   UNL A   1      46.377 -16.639 -41.062  0.00  0.00    +0.000 HD
BRANCH  33  35
ATOM     35  C   UNL A   1      46.126 -18.328 -39.768  0.00  0.00    +0.041 A 
ATOM     36  C   UNL A   1      45.942 -19.592 -40.364  0.00  0.00    -0.005 A 
ATOM     37  C   UNL A   1      46.271 -20.718 -39.608  0.00  0.00    +0.047 A 
ATOM     38  N   UNL A   1      46.709 -20.650 -38.329  0.00  0.00    -0.251 NA
ATOM     39  C   UNL A   1      46.868 -19.448 -37.758  0.00  0.00    +0.073 A 
ATOM     40  C   UNL A   1      47.326 -19.411 -36.447  0.00  0.00    -0.036 A 
ATOM     41  C   UNL A   1      47.520 -18.209 -35.764  0.00  0.00    -0.060 A 
ATOM     42  C   UNL A   1      47.250 -17.009 -36.402  0.00  0.00    -0.061 A 
ATOM     43  C   UNL A   1      46.790 -17.022 -37.719  0.00  0.00    -0.051 A 
ATOM     44  C   UNL A   1      46.589 -18.238 -38.424  0.00  0.00    +0.021 A 
ATOM     45  C   UNL A   1      46.103 -22.113 -40.152  0.00  0.00    -0.010 C 
ATOM     46  C   UNL A   1      46.066 -22.166 -41.675  0.00  0.00    -0.047 C 
ATOM     47  C   UNL A   1      45.084 -21.133 -42.203  0.00  0.00    -0.049 C 
ATOM     48  C   UNL A   1      45.526 -19.723 -41.812  0.00  0.00    -0.024 C 
ENDBRANCH  33  35
ENDBRANCH  32  33
ENDBRANCH  31  32
ENDBRANCH  30  31
ENDBRANCH  28  30
ENDBRANCH  25  26
ENDBRANCH   1  25
TORSDOF 14
ENDMDL
MODEL 8
REMARK VINA RESULT:    -6.985     17.259     21.699
REMARK INTER + INTRA:         -17.531
REMARK INTER:                 -12.778
REMARK INTRA:                  -4.753
REMARK UNBOUND:                -4.829
REMARK  Name = cpd30.pdb
REMARK  16 active torsions:
REMARK  status: ('A' for Active; 'I' for Inactive)
REMARK    1  A    between atoms: C_1  and  C_2
REMARK    2  A    between atoms: C_6  and  N_7
REMARK    3  A    between atoms: N_7  and  C_8
REMARK    4  A    between atoms: C_13  and  C_14
REMARK    5  A    between atoms: N_16  and  C_17
REMARK    6  A    between atoms: C_17  and  C_18
REMARK    7  A    between atoms: C_18  and  C_19
REMARK    8  A    between atoms: C_19  and  C_20
REMARK    9  A    between atoms: C_20  and  C_21
REMARK   10  A    between atoms: C_21  and  C_22
REMARK   11  A    between atoms: N_24  and  C_25
REMARK   12  A    between atoms: C_25  and  C_26
REMARK   13  A    between atoms: C_26  and  C_27
REMARK   14  A    between atoms: C_27  and  N_28
REMARK   15  A    between atoms: N_28  and  C_29
REMARK   16  A    between atoms: C_43  and  C_44
REMARK                            x       y       z     vdW  Elec       q    Type
REMARK                         _______ _______ _______ _____ _____    ______ ____
ROOT
ATOM      1  C   UNL A   1      42.805 -17.627 -35.501  0.00  0.00    -0.045 C 
ENDROOT
BRANCH   1   2
ATOM      2  C   UNL A   1      41.994 -18.487 -34.531  0.00  0.00    -0.051 C 
BRANCH   2   3
ATOM      3  C   UNL A   1      42.304 -19.977 -34.708  0.00  0.00    -0.037 C 
BRANCH   3   4
ATOM      4  C   UNL A   1      43.078 -20.266 -35.995  0.00  0.00    +0.012 C 
BRANCH   4   7
ATOM      5  C   UNL A   1      41.733 -21.067 -37.983  0.00  0.00    +0.246 C 
ATOM      6  O   UNL A   1      41.618 -21.967 -38.808  0.00  0.00    -0.270 OA
ATOM      7  N   UNL A   1      42.434 -21.281 -36.817  0.00  0.00    -0.311 N 
ATOM      8  H   UNL A   1      42.506 -22.213 -36.508  0.00  0.00    +0.000 HD
BRANCH   5  14
ATOM      9  C   UNL A   1      39.781 -19.472 -37.875  0.00  0.00    +0.044 A 
ATOM     10  C   UNL A   1      39.296 -18.182 -38.138  0.00  0.00    -0.040 A 
ATOM     11  C   UNL A   1      40.090 -17.220 -38.773  0.00  0.00    -0.060 A 
ATOM     12  C   UNL A   1      41.391 -17.529 -39.159  0.00  0.00    -0.061 A 
ATOM     13  C   UNL A   1      41.907 -18.795 -38.892  0.00  0.00    -0.048 A 
ATOM     14  C   UNL A   1      41.118 -19.747 -38.230  0.00  0.00    +0.058 A 
BRANCH   9  15
ATOM     15  N   UNL A   1      38.963 -20.438 -37.243  0.00  0.00    -0.314 N 
ATOM     16  H   UNL A   1      38.441 -21.005 -37.857  0.00  0.00    +0.000 HD
BRANCH  15  22
ATOM     17  C   UNL A   1      38.680 -23.751 -33.504  0.00  0.00    -0.039 C 
ATOM     18  C   UNL A   1      38.621 -22.347 -34.042  0.00  0.00    -0.046 A 
ATOM     19  C   UNL A   1      38.330 -21.301 -33.155  0.00  0.00    -0.058 A 
ATOM     20  C   UNL A   1      38.254 -19.988 -33.606  0.00  0.00    -0.060 A 
ATOM     21  C   UNL A   1      38.468 -19.702 -34.951  0.00  0.00    -0.040 A 
ATOM     22  C   UNL A   1      38.776 -20.719 -35.867  0.00  0.00    +0.035 A 
ATOM     23  C   UNL A   1      38.875 -22.055 -35.405  0.00  0.00    -0.026 A 
ATOM     24  C   UNL A   1      39.201 -23.165 -36.376  0.00  0.00    -0.038 C 
ENDBRANCH  15  22
ENDBRANCH   9  15
ENDBRANCH   5  14
ENDBRANCH   4   7
ENDBRANCH   3   4
ENDBRANCH   2   3
ENDBRANCH   1   2
BRANCH   1  25
ATOM     25  C   UNL A   1      43.844 -16.791 -34.757  0.00  0.00    +0.024 C 
BRANCH  25  26
ATOM     26  C   UNL A   1      45.034 -17.612 -34.298  0.00  0.00    +0.213 C 
ATOM     27  O   UNL A   1      45.173 -18.035 -33.157  0.00  0.00    -0.276 OA
ATOM     28  N   UNL A   1      45.946 -17.833 -35.309  0.00  0.00    -0.315 N 
ATOM     29  H   UNL A   1      45.772 -17.453 -36.200  0.00  0.00    +0.000 HD
BRANCH  28  30
ATOM     30  C   UNL A   1      47.154 -18.606 -35.100  0.00  0.00    +0.013 C 
BRANCH  30  31
ATOM     31  C   UNL A   1      47.341 -19.670 -36.177  0.00  0.00    -0.022 C 
BRANCH  31  32
ATOM     32  C   UNL A   1      46.407 -19.415 -37.357  0.00  0.00    +0.011 C 
BRANCH  32  33
ATOM     33  N   UNL A   1      47.199 -19.013 -38.529  0.00  0.00    -0.343 N 
ATOM     34  H   UNL A   1      48.140 -18.728 -38.491  0.00  0.00    +0.000 HD
BRANCH  33  35
ATOM     35  C   UNL A   1      46.429 -19.088 -39.729  0.00  0.00    +0.041 A 
ATOM     36  C   UNL A   1      45.617 -17.991 -40.081  0.00  0.00    -0.005 A 
ATOM     37  C   UNL A   1      44.842 -18.104 -41.236  0.00  0.00    +0.047 A 
ATOM     38  N   UNL A   1      44.803 -19.223 -41.997  0.00  0.00    -0.251 NA
ATOM     39  C   UNL A   1      45.563 -20.271 -41.652  0.00  0.00    +0.073 A 
ATOM     40  C   UNL A   1      45.507 -21.402 -42.456  0.00  0.00    -0.036 A 
ATOM     41  C   UNL A   1      46.257 -22.547 -42.179  0.00  0.00    -0.060 A 
ATOM     42  C   UNL A   1      47.088 -22.567 -41.070  0.00  0.00    -0.061 A 
ATOM     43  C   UNL A   1      47.161 -21.442 -40.249  0.00  0.00    -0.051 A 
ATOM     44  C   UNL A   1      46.403 -20.273 -40.521  0.00  0.00    +0.021 A 
ATOM     45  C   UNL A   1      43.935 -16.990 -41.692  0.00  0.00    -0.010 C 
ATOM     46  C   UNL A   1      44.325 -15.627 -41.131  0.00  0.00    -0.047 C 
ATOM     47  C   UNL A   1      44.534 -15.730 -39.628  0.00  0.00    -0.049 C 
ATOM     48  C   UNL A   1      45.678 -16.692 -39.310  0.00  0.00    -0.024 C 
ENDBRANCH  33  35
ENDBRANCH  32  33
ENDBRANCH  31  32
ENDBRANCH  30  31
ENDBRANCH  28  30
ENDBRANCH  25  26
ENDBRANCH   1  25
TORSDOF 14
ENDMDL
MODEL 9
REMARK VINA RESULT:    -6.946     16.595     21.730
REMARK INTER + INTRA:         -17.459
REMARK INTER:                 -12.172
REMARK INTRA:                  -5.287
REMARK UNBOUND:                -4.829
REMARK  Name = cpd30.pdb
REMARK  16 active torsions:
REMARK  status: ('A' for Active; 'I' for Inactive)
REMARK    1  A    between atoms: C_1  and  C_2
REMARK    2  A    between atoms: C_6  and  N_7
REMARK    3  A    between atoms: N_7  and  C_8
REMARK    4  A    between atoms: C_13  and  C_14
REMARK    5  A    between atoms: N_16  and  C_17
REMARK    6  A    between atoms: C_17  and  C_18
REMARK    7  A    between atoms: C_18  and  C_19
REMARK    8  A    between atoms: C_19  and  C_20
REMARK    9  A    between atoms: C_20  and  C_21
REMARK   10  A    between atoms: C_21  and  C_22
REMARK   11  A    between atoms: N_24  and  C_25
REMARK   12  A    between atoms: C_25  and  C_26
REMARK   13  A    between atoms: C_26  and  C_27
REMARK   14  A    between atoms: C_27  and  N_28
REMARK   15  A    between atoms: N_28  and  C_29
REMARK   16  A    between atoms: C_43  and  C_44
REMARK                            x       y       z     vdW  Elec       q    Type
REMARK                         _______ _______ _______ _____ _____    ______ ____
ROOT
ATOM      1  C   UNL A   1      42.507 -19.779 -34.577  0.00  0.00    -0.045 C 
ENDROOT
BRANCH   1   2
ATOM      2  C   UNL A   1      44.019 -19.999 -34.501  0.00  0.00    -0.051 C 
BRANCH   2   3
ATOM      3  C   UNL A   1      44.760 -19.166 -35.551  0.00  0.00    -0.037 C 
BRANCH   3   4
ATOM      4  C   UNL A   1      46.029 -19.854 -36.056  0.00  0.00    +0.012 C 
BRANCH   4   7
ATOM      5  C   UNL A   1      46.909 -18.728 -38.145  0.00  0.00    +0.246 C 
ATOM      6  O   UNL A   1      47.339 -17.674 -38.600  0.00  0.00    -0.270 OA
ATOM      7  N   UNL A   1      46.903 -18.945 -36.785  0.00  0.00    -0.311 N 
ATOM      8  H   UNL A   1      47.556 -18.435 -36.252  0.00  0.00    +0.000 HD
BRANCH   5  14
ATOM      9  C   UNL A   1      45.330 -19.536 -39.939  0.00  0.00    +0.044 A 
ATOM     10  C   UNL A   1      44.929 -20.594 -40.769  0.00  0.00    -0.040 A 
ATOM     11  C   UNL A   1      45.531 -21.855 -40.684  0.00  0.00    -0.060 A 
ATOM     12  C   UNL A   1      46.550 -22.084 -39.765  0.00  0.00    -0.061 A 
ATOM     13  C   UNL A   1      46.984 -21.047 -38.943  0.00  0.00    -0.048 A 
ATOM     14  C   UNL A   1      46.397 -19.777 -39.051  0.00  0.00    +0.058 A 
BRANCH   9  15
ATOM     15  N   UNL A   1      44.704 -18.270 -40.027  0.00  0.00    -0.314 N 
ATOM     16  H   UNL A   1      45.208 -17.592 -40.533  0.00  0.00    +0.000 HD
BRANCH  15  22
ATOM     17  C   UNL A   1      40.775 -15.178 -40.240  0.00  0.00    -0.039 C 
ATOM     18  C   UNL A   1      41.553 -16.296 -39.598  0.00  0.00    -0.046 A 
ATOM     19  C   UNL A   1      41.051 -16.874 -38.424  0.00  0.00    -0.058 A 
ATOM     20  C   UNL A   1      41.738 -17.902 -37.789  0.00  0.00    -0.060 A 
ATOM     21  C   UNL A   1      42.939 -18.366 -38.319  0.00  0.00    -0.040 A 
ATOM     22  C   UNL A   1      43.466 -17.824 -39.500  0.00  0.00    +0.035 A 
ATOM     23  C   UNL A   1      42.756 -16.791 -40.160  0.00  0.00    -0.026 A 
ATOM     24  C   UNL A   1      43.309 -16.189 -41.431  0.00  0.00    -0.038 C 
ENDBRANCH  15  22
ENDBRANCH   9  15
ENDBRANCH   5  14
ENDBRANCH   4   7
ENDBRANCH   3   4
ENDBRANCH   2   3
ENDBRANCH   1   2
BRANCH   1  25
ATOM     25  C   UNL A   1      41.885 -19.753 -33.182  0.00  0.00    +0.024 C 
BRANCH  25  26
ATOM     26  C   UNL A   1      40.735 -18.770 -33.074  0.00  0.00    +0.213 C 
ATOM     27  O   UNL A   1      40.275 -18.370 -32.011  0.00  0.00    -0.276 OA
ATOM     28  N   UNL A   1      40.262 -18.372 -34.307  0.00  0.00    -0.315 N 
ATOM     29  H   UNL A   1      40.676 -18.742 -35.119  0.00  0.00    +0.000 HD
BRANCH  28  30
ATOM     30  C   UNL A   1      39.174 -17.424 -34.444  0.00  0.00    +0.013 C 
BRANCH  30  31
ATOM     31  C   UNL A   1      37.971 -18.039 -35.151  0.00  0.00    -0.022 C 
BRANCH  31  32
ATOM     32  C   UNL A   1      38.375 -18.612 -36.507  0.00  0.00    +0.011 C 
BRANCH  32  33
ATOM     33  N   UNL A   1      37.871 -19.988 -36.625  0.00  0.00    -0.343 N 
ATOM     34  H   UNL A   1      36.920 -20.224 -36.726  0.00  0.00    +0.000 HD
BRANCH  33  35
ATOM     35  C   UNL A   1      38.934 -20.940 -36.576  0.00  0.00    +0.041 A 
ATOM     36  C   UNL A   1      39.188 -21.606 -35.360  0.00  0.00    -0.005 A 
ATOM     37  C   UNL A   1      40.259 -22.501 -35.324  0.00  0.00    +0.047 A 
ATOM     38  N   UNL A   1      41.080 -22.717 -36.379  0.00  0.00    -0.251 NA
ATOM     39  C   UNL A   1      40.847 -22.071 -37.529  0.00  0.00    +0.073 A 
ATOM     40  C   UNL A   1      41.703 -22.319 -38.594  0.00  0.00    -0.036 A 
ATOM     41  C   UNL A   1      41.547 -21.692 -39.832  0.00  0.00    -0.060 A 
ATOM     42  C   UNL A   1      40.510 -20.791 -40.015  0.00  0.00    -0.061 A 
ATOM     43  C   UNL A   1      39.638 -20.526 -38.960  0.00  0.00    -0.051 A 
ATOM     44  C   UNL A   1      39.787 -21.158 -37.697  0.00  0.00    +0.021 A 
ATOM     45  C   UNL A   1      40.617 -23.256 -34.071  0.00  0.00    -0.010 C 
ATOM     46  C   UNL A   1      39.462 -23.365 -33.082  0.00  0.00    -0.047 C 
ATOM     47  C   UNL A   1      38.837 -21.996 -32.867  0.00  0.00    -0.049 C 
ATOM     48  C   UNL A   1      38.260 -21.458 -34.176  0.00  0.00    -0.024 C 
ENDBRANCH  33  35
ENDBRANCH  32  33
ENDBRANCH  31  32
ENDBRANCH  30  31
ENDBRANCH  28  30
ENDBRANCH  25  26
ENDBRANCH   1  25
TORSDOF 14
ENDMDL
MODEL 10
REMARK VINA RESULT:    -6.864     17.019     21.419
REMARK INTER + INTRA:         -17.310
REMARK INTER:                 -13.555
REMARK INTRA:                  -3.755
REMARK UNBOUND:                -4.829
REMARK  Name = cpd30.pdb
REMARK  16 active torsions:
REMARK  status: ('A' for Active; 'I' for Inactive)
REMARK    1  A    between atoms: C_1  and  C_2
REMARK    2  A    between atoms: C_6  and  N_7
REMARK    3  A    between atoms: N_7  and  C_8
REMARK    4  A    between atoms: C_13  and  C_14
REMARK    5  A    between atoms: N_16  and  C_17
REMARK    6  A    between atoms: C_17  and  C_18
REMARK    7  A    between atoms: C_18  and  C_19
REMARK    8  A    between atoms: C_19  and  C_20
REMARK    9  A    between atoms: C_20  and  C_21
REMARK   10  A    between atoms: C_21  and  C_22
REMARK   11  A    between atoms: N_24  and  C_25
REMARK   12  A    between atoms: C_25  and  C_26
REMARK   13  A    between atoms: C_26  and  C_27
REMARK   14  A    between atoms: C_27  and  N_28
REMARK   15  A    between atoms: N_28  and  C_29
REMARK   16  A    between atoms: C_43  and  C_44
REMARK                            x       y       z     vdW  Elec       q    Type
REMARK                         _______ _______ _______ _____ _____    ______ ____
ROOT
ATOM      1  C   UNL A   1      44.055 -17.323 -32.883  0.00  0.00    -0.045 C 
ENDROOT
BRANCH   1   2
ATOM      2  C   UNL A   1      42.791 -18.077 -33.301  0.00  0.00    -0.051 C 
BRANCH   2   3
ATOM      3  C   UNL A   1      43.129 -19.404 -33.987  0.00  0.00    -0.037 C 
BRANCH   3   4
ATOM      4  C   UNL A   1      42.037 -19.858 -34.956  0.00  0.00    +0.012 C 
BRANCH   4   7
ATOM      5  C   UNL A   1      40.953 -18.894 -37.029  0.00  0.00    +0.246 C 
ATOM      6  O   UNL A   1      40.202 -18.018 -37.442  0.00  0.00    -0.270 OA
ATOM      7  N   UNL A   1      41.548 -18.772 -35.793  0.00  0.00    -0.311 N 
ATOM      8  H   UNL A   1      41.652 -17.859 -35.440  0.00  0.00    +0.000 HD
BRANCH   5  14
ATOM      9  C   UNL A   1      40.347 -21.182 -37.903  0.00  0.00    +0.044 A 
ATOM     10  C   UNL A   1      40.696 -22.259 -38.732  0.00  0.00    -0.040 A 
ATOM     11  C   UNL A   1      41.901 -22.269 -39.444  0.00  0.00    -0.060 A 
ATOM     12  C   UNL A   1      42.783 -21.198 -39.344  0.00  0.00    -0.061 A 
ATOM     13  C   UNL A   1      42.453 -20.105 -38.547  0.00  0.00    -0.048 A 
ATOM     14  C   UNL A   1      41.232 -20.086 -37.856  0.00  0.00    +0.058 A 
BRANCH   9  15
ATOM     15  N   UNL A   1      39.132 -21.191 -37.178  0.00  0.00    -0.314 N 
ATOM     16  H   UNL A   1      38.334 -20.950 -37.703  0.00  0.00    +0.000 HD
BRANCH  15  22
ATOM     17  C   UNL A   1      36.979 -20.022 -32.815  0.00  0.00    -0.039 C 
ATOM     18  C   UNL A   1      37.841 -20.905 -33.677  0.00  0.00    -0.046 A 
ATOM     19  C   UNL A   1      38.443 -22.028 -33.094  0.00  0.00    -0.058 A 
ATOM     20  C   UNL A   1      39.256 -22.869 -33.846  0.00  0.00    -0.060 A 
ATOM     21  C   UNL A   1      39.479 -22.597 -35.192  0.00  0.00    -0.040 A 
ATOM     22  C   UNL A   1      38.882 -21.491 -35.816  0.00  0.00    +0.035 A 
ATOM     23  C   UNL A   1      38.037 -20.646 -35.056  0.00  0.00    -0.026 A 
ATOM     24  C   UNL A   1      37.388 -19.447 -35.707  0.00  0.00    -0.038 C 
ENDBRANCH  15  22
ENDBRANCH   9  15
ENDBRANCH   5  14
ENDBRANCH   4   7
ENDBRANCH   3   4
ENDBRANCH   2   3
ENDBRANCH   1   2
BRANCH   1  25
ATOM     25  C   UNL A   1      44.364 -16.187 -33.856  0.00  0.00    +0.024 C 
BRANCH  25  26
ATOM     26  C   UNL A   1      44.940 -16.684 -35.169  0.00  0.00    +0.213 C 
ATOM     27  O   UNL A   1      44.341 -16.645 -36.237  0.00  0.00    -0.276 OA
ATOM     28  N   UNL A   1      46.217 -17.185 -35.029  0.00  0.00    -0.315 N 
ATOM     29  H   UNL A   1      46.632 -17.192 -34.137  0.00  0.00    +0.000 HD
BRANCH  28  30
ATOM     30  C   UNL A   1      46.968 -17.702 -36.156  0.00  0.00    +0.013 C 
BRANCH  30  31
ATOM     31  C   UNL A   1      47.256 -19.193 -36.012  0.00  0.00    -0.022 C 
BRANCH  31  32
ATOM     32  C   UNL A   1      46.719 -19.965 -37.214  0.00  0.00    +0.011 C 
BRANCH  32  33
ATOM     33  N   UNL A   1      47.507 -19.623 -38.407  0.00  0.00    -0.343 N 
ATOM     34  H   UNL A   1      48.423 -19.262 -38.382  0.00  0.00    +0.000 HD
BRANCH  33  35
ATOM     35  C   UNL A   1      46.777 -19.881 -39.607  0.00  0.00    +0.041 A 
ATOM     36  C   UNL A   1      47.082 -21.041 -40.347  0.00  0.00    -0.005 A 
ATOM     37  C   UNL A   1      46.385 -21.251 -41.538  0.00  0.00    +0.047 A 
ATOM     38  N   UNL A   1      45.475 -20.376 -42.028  0.00  0.00    -0.251 NA
ATOM     39  C   UNL A   1      45.198 -19.266 -41.331  0.00  0.00    +0.073 A 
ATOM     40  C   UNL A   1      44.255 -18.392 -41.857  0.00  0.00    -0.036 A 
ATOM     41  C   UNL A   1      43.901 -17.207 -41.209  0.00  0.00    -0.060 A 
ATOM     42  C   UNL A   1      44.502 -16.881 -40.004  0.00  0.00    -0.061 A 
ATOM     43  C   UNL A   1      45.452 -17.744 -39.457  0.00  0.00    -0.051 A 
ATOM     44  C   UNL A   1      45.820 -18.951 -40.107  0.00  0.00    +0.021 A 
ATOM     45  C   UNL A   1      46.644 -22.456 -42.404  0.00  0.00    -0.010 C 
ATOM     46  C   UNL A   1      47.287 -23.614 -41.650  0.00  0.00    -0.047 C 
ATOM     47  C   UNL A   1      48.480 -23.110 -40.853  0.00  0.00    -0.049 C 
ATOM     48  C   UNL A   1      48.035 -22.085 -39.810  0.00  0.00    -0.024 C 
ENDBRANCH  33  35
ENDBRANCH  32  33
ENDBRANCH  31  32
ENDBRANCH  30  31
ENDBRANCH  28  30
ENDBRANCH  25  26
ENDBRANCH   1  25
TORSDOF 14
ENDMDL
MODEL 11
REMARK VINA RESULT:    -6.856     17.207     22.344
REMARK INTER + INTRA:         -17.297
REMARK INTER:                 -12.607
REMARK INTRA:                  -4.690
REMARK UNBOUND:                -4.829
REMARK  Name = cpd30.pdb
REMARK  16 active torsions:
REMARK  status: ('A' for Active; 'I' for Inactive)
REMARK    1  A    between atoms: C_1  and  C_2
REMARK    2  A    between atoms: C_6  and  N_7
REMARK    3  A    between atoms: N_7  and  C_8
REMARK    4  A    between atoms: C_13  and  C_14
REMARK    5  A    between atoms: N_16  and  C_17
REMARK    6  A    between atoms: C_17  and  C_18
REMARK    7  A    between atoms: C_18  and  C_19
REMARK    8  A    between atoms: C_19  and  C_20
REMARK    9  A    between atoms: C_20  and  C_21
REMARK   10  A    between atoms: C_21  and  C_22
REMARK   11  A    between atoms: N_24  and  C_25
REMARK   12  A    between atoms: C_25  and  C_26
REMARK   13  A    between atoms: C_26  and  C_27
REMARK   14  A    between atoms: C_27  and  N_28
REMARK   15  A    between atoms: N_28  and  C_29
REMARK   16  A    between atoms: C_43  and  C_44
REMARK                            x       y       z     vdW  Elec       q    Type
REMARK                         _______ _______ _______ _____ _____    ______ ____
ROOT
ATOM      1  C   UNL A   1      43.544 -20.259 -35.859  0.00  0.00    -0.045 C 
ENDROOT
BRANCH   1   2
ATOM      2  C   UNL A   1      44.881 -20.141 -36.593  0.00  0.00    -0.051 C 
BRANCH   2   3
ATOM      3  C   UNL A   1      45.939 -19.451 -35.726  0.00  0.00    -0.037 C 
BRANCH   3   4
ATOM      4  C   UNL A   1      46.364 -18.094 -36.289  0.00  0.00    +0.012 C 
BRANCH   4   7
ATOM      5  C   UNL A   1      44.822 -16.677 -37.708  0.00  0.00    +0.246 C 
ATOM      6  O   UNL A   1      43.658 -16.320 -37.860  0.00  0.00    -0.270 OA
ATOM      7  N   UNL A   1      45.234 -17.201 -36.503  0.00  0.00    -0.311 N 
ATOM      8  H   UNL A   1      44.714 -16.946 -35.708  0.00  0.00    +0.000 HD
BRANCH   5  14
ATOM      9  C   UNL A   1      45.902 -17.515 -39.829  0.00  0.00    +0.044 A 
ATOM     10  C   UNL A   1      46.844 -17.286 -40.843  0.00  0.00    -0.040 A 
ATOM     11  C   UNL A   1      47.678 -16.163 -40.822  0.00  0.00    -0.060 A 
ATOM     12  C   UNL A   1      47.586 -15.241 -39.784  0.00  0.00    -0.061 A 
ATOM     13  C   UNL A   1      46.646 -15.430 -38.775  0.00  0.00    -0.048 A 
ATOM     14  C   UNL A   1      45.792 -16.543 -38.813  0.00  0.00    +0.058 A 
BRANCH   9  15
ATOM     15  N   UNL A   1      45.073 -18.662 -39.855  0.00  0.00    -0.314 N 
ATOM     16  H   UNL A   1      44.422 -18.721 -39.119  0.00  0.00    +0.000 HD
BRANCH  15  22
ATOM     17  C   UNL A   1      46.830 -23.079 -41.417  0.00  0.00    -0.039 C 
ATOM     18  C   UNL A   1      45.910 -21.895 -41.545  0.00  0.00    -0.046 A 
ATOM     19  C   UNL A   1      45.026 -21.848 -42.632  0.00  0.00    -0.058 A 
ATOM     20  C   UNL A   1      44.164 -20.770 -42.799  0.00  0.00    -0.060 A 
ATOM     21  C   UNL A   1      44.175 -19.723 -41.883  0.00  0.00    -0.040 A 
ATOM     22  C   UNL A   1      45.034 -19.740 -40.774  0.00  0.00    +0.035 A 
ATOM     23  C   UNL A   1      45.898 -20.848 -40.590  0.00  0.00    -0.026 A 
ATOM     24  C   UNL A   1      46.835 -20.884 -39.406  0.00  0.00    -0.038 C 
ENDBRANCH  15  22
ENDBRANCH   9  15
ENDBRANCH   5  14
ENDBRANCH   4   7
ENDBRANCH   3   4
ENDBRANCH   2   3
ENDBRANCH   1   2
BRANCH   1  25
ATOM     25  C   UNL A   1      43.740 -20.181 -34.346  0.00  0.00    +0.024 C 
BRANCH  25  26
ATOM     26  C   UNL A   1      42.804 -19.185 -33.688  0.00  0.00    +0.213 C 
ATOM     27  O   UNL A   1      42.454 -19.248 -32.515  0.00  0.00    -0.276 OA
ATOM     28  N   UNL A   1      42.388 -18.197 -34.555  0.00  0.00    -0.315 N 
ATOM     29  H   UNL A   1      42.704 -18.216 -35.487  0.00  0.00    +0.000 HD
BRANCH  28  30
ATOM     30  C   UNL A   1      41.501 -17.130 -34.137  0.00  0.00    +0.013 C 
BRANCH  30  31
ATOM     31  C   UNL A   1      40.114 -17.269 -34.756  0.00  0.00    -0.022 C 
BRANCH  31  32
ATOM     32  C   UNL A   1      40.198 -17.933 -36.128  0.00  0.00    +0.011 C 
BRANCH  32  33
ATOM     33  N   UNL A   1      39.216 -19.025 -36.203  0.00  0.00    -0.343 N 
ATOM     34  H   UNL A   1      38.242 -18.892 -36.255  0.00  0.00    +0.000 HD
BRANCH  33  35
ATOM     35  C   UNL A   1      39.854 -20.302 -36.193  0.00  0.00    +0.041 A 
ATOM     36  C   UNL A   1      40.353 -20.818 -37.405  0.00  0.00    -0.005 A 
ATOM     37  C   UNL A   1      40.935 -22.086 -37.379  0.00  0.00    +0.047 A 
ATOM     38  N   UNL A   1      40.998 -22.849 -36.262  0.00  0.00    -0.251 NA
ATOM     39  C   UNL A   1      40.508 -22.365 -35.114  0.00  0.00    +0.073 A 
ATOM     40  C   UNL A   1      40.593 -23.169 -33.985  0.00  0.00    -0.036 A 
ATOM     41  C   UNL A   1      40.108 -22.756 -32.742  0.00  0.00    -0.060 A 
ATOM     42  C   UNL A   1      39.520 -21.507 -32.619  0.00  0.00    -0.061 A 
ATOM     43  C   UNL A   1      39.424 -20.681 -33.739  0.00  0.00    -0.051 A 
ATOM     44  C   UNL A   1      39.914 -21.091 -35.008  0.00  0.00    +0.021 A 
ATOM     45  C   UNL A   1      41.491 -22.728 -38.623  0.00  0.00    -0.010 C 
ATOM     46  C   UNL A   1      41.833 -21.724 -39.719  0.00  0.00    -0.047 C 
ATOM     47  C   UNL A   1      40.662 -20.779 -39.934  0.00  0.00    -0.049 C 
ATOM     48  C   UNL A   1      40.375 -19.980 -38.663  0.00  0.00    -0.024 C 
ENDBRANCH  33  35
ENDBRANCH  32  33
ENDBRANCH  31  32
ENDBRANCH  30  31
ENDBRANCH  28  30
ENDBRANCH  25  26
ENDBRANCH   1  25
TORSDOF 14
ENDMDL
MODEL 12
REMARK VINA RESULT:    -6.856     17.966     21.444
REMARK INTER + INTRA:         -17.296
REMARK INTER:                 -11.452
REMARK INTRA:                  -5.843
REMARK UNBOUND:                -4.829
REMARK  Name = cpd30.pdb
REMARK  16 active torsions:
REMARK  status: ('A' for Active; 'I' for Inactive)
REMARK    1  A    between atoms: C_1  and  C_2
REMARK    2  A    between atoms: C_6  and  N_7
REMARK    3  A    between atoms: N_7  and  C_8
REMARK    4  A    between atoms: C_13  and  C_14
REMARK    5  A    between atoms: N_16  and  C_17
REMARK    6  A    between atoms: C_17  and  C_18
REMARK    7  A    between atoms: C_18  and  C_19
REMARK    8  A    between atoms: C_19  and  C_20
REMARK    9  A    between atoms: C_20  and  C_21
REMARK   10  A    between atoms: C_21  and  C_22
REMARK   11  A    between atoms: N_24  and  C_25
REMARK   12  A    between atoms: C_25  and  C_26
REMARK   13  A    between atoms: C_26  and  C_27
REMARK   14  A    between atoms: C_27  and  N_28
REMARK   15  A    between atoms: N_28  and  C_29
REMARK   16  A    between atoms: C_43  and  C_44
REMARK                            x       y       z     vdW  Elec       q    Type
REMARK                         _______ _______ _______ _____ _____    ______ ____
ROOT
ATOM      1  C   UNL A   1      42.546 -16.857 -34.232  0.00  0.00    -0.045 C 
ENDROOT
BRANCH   1   2
ATOM      2  C   UNL A   1      42.161 -18.317 -33.991  0.00  0.00    -0.051 C 
BRANCH   2   3
ATOM      3  C   UNL A   1      42.182 -19.126 -35.292  0.00  0.00    -0.037 C 
BRANCH   3   4
ATOM      4  C   UNL A   1      42.576 -20.587 -35.068  0.00  0.00    +0.012 C 
BRANCH   4   7
ATOM      5  C   UNL A   1      40.754 -22.160 -35.848  0.00  0.00    +0.246 C 
ATOM      6  O   UNL A   1      40.113 -23.162 -35.553  0.00  0.00    -0.270 OA
ATOM      7  N   UNL A   1      41.421 -21.451 -34.873  0.00  0.00    -0.311 N 
ATOM      8  H   UNL A   1      41.082 -21.539 -33.953  0.00  0.00    +0.000 HD
BRANCH   5  14
ATOM      9  C   UNL A   1      39.912 -20.741 -37.757  0.00  0.00    +0.044 A 
ATOM     10  C   UNL A   1      40.062 -20.359 -39.099  0.00  0.00    -0.040 A 
ATOM     11  C   UNL A   1      41.036 -20.943 -39.918  0.00  0.00    -0.060 A 
ATOM     12  C   UNL A   1      41.883 -21.922 -39.410  0.00  0.00    -0.061 A 
ATOM     13  C   UNL A   1      41.771 -22.306 -38.076  0.00  0.00    -0.048 A 
ATOM     14  C   UNL A   1      40.813 -21.699 -37.250  0.00  0.00    +0.058 A 
BRANCH   9  15
ATOM     15  N   UNL A   1      38.915 -20.152 -36.944  0.00  0.00    -0.314 N 
ATOM     16  H   UNL A   1      38.090 -20.681 -36.850  0.00  0.00    +0.000 HD
BRANCH  15  22
ATOM     17  C   UNL A   1      38.004 -17.548 -32.769  0.00  0.00    -0.039 C 
ATOM     18  C   UNL A   1      38.453 -17.646 -34.202  0.00  0.00    -0.046 A 
ATOM     19  C   UNL A   1      38.840 -16.473 -34.865  0.00  0.00    -0.058 A 
ATOM     20  C   UNL A   1      39.252 -16.510 -36.192  0.00  0.00    -0.060 A 
ATOM     21  C   UNL A   1      39.282 -17.722 -36.876  0.00  0.00    -0.040 A 
ATOM     22  C   UNL A   1      38.917 -18.919 -36.244  0.00  0.00    +0.035 A 
ATOM     23  C   UNL A   1      38.517 -18.886 -34.885  0.00  0.00    -0.026 A 
ATOM     24  C   UNL A   1      38.115 -20.163 -34.186  0.00  0.00    -0.038 C 
ENDBRANCH  15  22
ENDBRANCH   9  15
ENDBRANCH   5  14
ENDBRANCH   4   7
ENDBRANCH   3   4
ENDBRANCH   2   3
ENDBRANCH   1   2
BRANCH   1  25
ATOM     25  C   UNL A   1      43.703 -16.436 -33.328  0.00  0.00    +0.024 C 
BRANCH  25  26
ATOM     26  C   UNL A   1      44.922 -17.324 -33.490  0.00  0.00    +0.213 C 
ATOM     27  O   UNL A   1      45.405 -17.994 -32.585  0.00  0.00    -0.276 OA
ATOM     28  N   UNL A   1      45.430 -17.297 -34.772  0.00  0.00    -0.315 N 
ATOM     29  H   UNL A   1      44.994 -16.727 -35.446  0.00  0.00    +0.000 HD
BRANCH  28  30
ATOM     30  C   UNL A   1      46.586 -18.081 -35.158  0.00  0.00    +0.013 C 
BRANCH  30  31
ATOM     31  C   UNL A   1      46.195 -19.482 -35.618  0.00  0.00    -0.022 C 
BRANCH  31  32
ATOM     32  C   UNL A   1      46.228 -19.580 -37.141  0.00  0.00    +0.011 C 
BRANCH  32  33
ATOM     33  N   UNL A   1      44.993 -20.222 -37.615  0.00  0.00    -0.343 N 
ATOM     34  H   UNL A   1      44.503 -20.918 -37.120  0.00  0.00    +0.000 HD
BRANCH  33  35
ATOM     35  C   UNL A   1      44.592 -19.708 -38.886  0.00  0.00    +0.041 A 
ATOM     36  C   UNL A   1      45.019 -20.377 -40.050  0.00  0.00    -0.005 A 
ATOM     37  C   UNL A   1      44.651 -19.833 -41.282  0.00  0.00    +0.047 A 
ATOM     38  N   UNL A   1      43.950 -18.681 -41.403  0.00  0.00    -0.251 NA
ATOM     39  C   UNL A   1      43.559 -18.036 -40.295  0.00  0.00    +0.073 A 
ATOM     40  C   UNL A   1      42.837 -16.861 -40.452  0.00  0.00    -0.036 A 
ATOM     41  C   UNL A   1      42.388 -16.115 -39.360  0.00  0.00    -0.060 A 
ATOM     42  C   UNL A   1      42.667 -16.551 -38.075  0.00  0.00    -0.061 A 
ATOM     43  C   UNL A   1      43.391 -17.729 -37.892  0.00  0.00    -0.051 A 
ATOM     44  C   UNL A   1      43.852 -18.495 -38.996  0.00  0.00    +0.021 A 
ATOM     45  C   UNL A   1      45.064 -20.469 -42.584  0.00  0.00    -0.010 C 
ATOM     46  C   UNL A   1      45.422 -21.944 -42.447  0.00  0.00    -0.047 C 
ATOM     47  C   UNL A   1      46.388 -22.135 -41.288  0.00  0.00    -0.049 C 
ATOM     48  C   UNL A   1      45.739 -21.704 -39.972  0.00  0.00    -0.024 C 
ENDBRANCH  33  35
ENDBRANCH  32  33
ENDBRANCH  31  32
ENDBRANCH  30  31
ENDBRANCH  28  30
ENDBRANCH  25  26
ENDBRANCH   1  25
TORSDOF 14
ENDMDL
MODEL 13
REMARK VINA RESULT:    -6.853     16.710     21.934
REMARK INTER + INTRA:         -17.291
REMARK INTER:                 -13.605
REMARK INTRA:                  -3.686
REMARK UNBOUND:                -4.829
REMARK  Name = cpd30.pdb
REMARK  16 active torsions:
REMARK  status: ('A' for Active; 'I' for Inactive)
REMARK    1  A    between atoms: C_1  and  C_2
REMARK    2  A    between atoms: C_6  and  N_7
REMARK    3  A    between atoms: N_7  and  C_8
REMARK    4  A    between atoms: C_13  and  C_14
REMARK    5  A    between atoms: N_16  and  C_17
REMARK    6  A    between atoms: C_17  and  C_18
REMARK    7  A    between atoms: C_18  and  C_19
REMARK    8  A    between atoms: C_19  and  C_20
REMARK    9  A    between atoms: C_20  and  C_21
REMARK   10  A    between atoms: C_21  and  C_22
REMARK   11  A    between atoms: N_24  and  C_25
REMARK   12  A    between atoms: C_25  and  C_26
REMARK   13  A    between atoms: C_26  and  C_27
REMARK   14  A    between atoms: C_27  and  N_28
REMARK   15  A    between atoms: N_28  and  C_29
REMARK   16  A    between atoms: C_43  and  C_44
REMARK                            x       y       z     vdW  Elec       q    Type
REMARK                         _______ _______ _______ _____ _____    ______ ____
ROOT
ATOM      1  C   UNL A   1      41.507 -19.484 -34.657  0.00  0.00    -0.045 C 
ENDROOT
BRANCH   1   2
ATOM      2  C   UNL A   1      42.966 -19.837 -34.951  0.00  0.00    -0.051 C 
BRANCH   2   3
ATOM      3  C   UNL A   1      43.831 -18.580 -35.090  0.00  0.00    -0.037 C 
BRANCH   3   4
ATOM      4  C   UNL A   1      44.930 -18.504 -34.029  0.00  0.00    +0.012 C 
BRANCH   4   7
ATOM      5  C   UNL A   1      47.092 -19.428 -34.964  0.00  0.00    +0.246 C 
ATOM      6  O   UNL A   1      48.065 -20.130 -34.711  0.00  0.00    -0.270 OA
ATOM      7  N   UNL A   1      45.947 -19.531 -34.206  0.00  0.00    -0.311 N 
ATOM      8  H   UNL A   1      45.802 -20.384 -33.737  0.00  0.00    +0.000 HD
BRANCH   5  14
ATOM      9  C   UNL A   1      47.000 -18.889 -37.427  0.00  0.00    +0.044 A 
ATOM     10  C   UNL A   1      47.041 -17.898 -38.420  0.00  0.00    -0.040 A 
ATOM     11  C   UNL A   1      47.258 -16.553 -38.100  0.00  0.00    -0.060 A 
ATOM     12  C   UNL A   1      47.439 -16.170 -36.774  0.00  0.00    -0.061 A 
ATOM     13  C   UNL A   1      47.382 -17.128 -35.765  0.00  0.00    -0.048 A 
ATOM     14  C   UNL A   1      47.136 -18.471 -36.088  0.00  0.00    +0.058 A 
BRANCH   9  15
ATOM     15  N   UNL A   1      46.792 -20.246 -37.767  0.00  0.00    -0.314 N 
ATOM     16  H   UNL A   1      46.825 -20.873 -37.009  0.00  0.00    +0.000 HD
BRANCH  15  22
ATOM     17  C   UNL A   1      43.664 -21.243 -41.543  0.00  0.00    -0.039 C 
ATOM     18  C   UNL A   1      45.004 -21.346 -40.866  0.00  0.00    -0.046 A 
ATOM     19  C   UNL A   1      46.014 -22.093 -41.488  0.00  0.00    -0.058 A 
ATOM     20  C   UNL A   1      47.265 -22.227 -40.896  0.00  0.00    -0.060 A 
ATOM     21  C   UNL A   1      47.525 -21.614 -39.674  0.00  0.00    -0.040 A 
ATOM     22  C   UNL A   1      46.545 -20.846 -39.027  0.00  0.00    +0.035 A 
ATOM     23  C   UNL A   1      45.276 -20.691 -39.639  0.00  0.00    -0.026 A 
ATOM     24  C   UNL A   1      44.206 -19.872 -38.958  0.00  0.00    -0.038 C 
ENDBRANCH  15  22
ENDBRANCH   9  15
ENDBRANCH   5  14
ENDBRANCH   4   7
ENDBRANCH   3   4
ENDBRANCH   2   3
ENDBRANCH   1   2
BRANCH   1  25
ATOM     25  C   UNL A   1      41.291 -19.235 -33.166  0.00  0.00    +0.024 C 
BRANCH  25  26
ATOM     26  C   UNL A   1      40.123 -18.306 -32.892  0.00  0.00    +0.213 C 
ATOM     27  O   UNL A   1      39.506 -18.277 -31.834  0.00  0.00    -0.276 OA
ATOM     28  N   UNL A   1      39.830 -17.494 -33.967  0.00  0.00    -0.315 N 
ATOM     29  H   UNL A   1      40.364 -17.580 -34.790  0.00  0.00    +0.000 HD
BRANCH  28  30
ATOM     30  C   UNL A   1      38.760 -16.518 -33.925  0.00  0.00    +0.013 C 
BRANCH  30  31
ATOM     31  C   UNL A   1      37.767 -16.712 -35.067  0.00  0.00    -0.022 C 
BRANCH  31  32
ATOM     32  C   UNL A   1      38.414 -17.471 -36.222  0.00  0.00    +0.011 C 
BRANCH  32  33
ATOM     33  N   UNL A   1      37.546 -18.591 -36.617  0.00  0.00    -0.343 N 
ATOM     34  H   UNL A   1      36.635 -18.487 -36.977  0.00  0.00    +0.000 HD
BRANCH  33  35
ATOM     35  C   UNL A   1      38.191 -19.848 -36.415  0.00  0.00    +0.041 A 
ATOM     36  C   UNL A   1      37.992 -20.521 -35.192  0.00  0.00    -0.005 A 
ATOM     37  C   UNL A   1      38.665 -21.728 -35.000  0.00  0.00    +0.047 A 
ATOM     38  N   UNL A   1      39.526 -22.249 -35.906  0.00  0.00    -0.251 NA
ATOM     39  C   UNL A   1      39.727 -21.600 -37.061  0.00  0.00    +0.073 A 
ATOM     40  C   UNL A   1      40.611 -22.164 -37.973  0.00  0.00    -0.036 A 
ATOM     41  C   UNL A   1      40.891 -21.563 -39.202  0.00  0.00    -0.060 A 
ATOM     42  C   UNL A   1      40.275 -20.366 -39.533  0.00  0.00    -0.061 A 
ATOM     43  C   UNL A   1      39.384 -19.782 -38.633  0.00  0.00    -0.051 A 
ATOM     44  C   UNL A   1      39.091 -20.385 -37.381  0.00  0.00    +0.021 A 
ATOM     45  C   UNL A   1      38.525 -22.518 -33.725  0.00  0.00    -0.010 C 
ATOM     46  C   UNL A   1      37.255 -22.190 -32.949  0.00  0.00    -0.047 C 
ATOM     47  C   UNL A   1      37.114 -20.682 -32.806  0.00  0.00    -0.049 C 
ATOM     48  C   UNL A   1      36.987 -20.022 -34.178  0.00  0.00    -0.024 C 
ENDBRANCH  33  35
ENDBRANCH  32  33
ENDBRANCH  31  32
ENDBRANCH  30  31
ENDBRANCH  28  30
ENDBRANCH  25  26
ENDBRANCH   1  25
TORSDOF 14
ENDMDL
MODEL 14
REMARK VINA RESULT:    -6.847     16.500     21.780
REMARK INTER + INTRA:         -17.279
REMARK INTER:                 -12.548
REMARK INTRA:                  -4.731
REMARK UNBOUND:                -4.829
REMARK  Name = cpd30.pdb
REMARK  16 active torsions:
REMARK  status: ('A' for Active; 'I' for Inactive)
REMARK    1  A    between atoms: C_1  and  C_2
REMARK    2  A    between atoms: C_6  and  N_7
REMARK    3  A    between atoms: N_7  and  C_8
REMARK    4  A    between atoms: C_13  and  C_14
REMARK    5  A    between atoms: N_16  and  C_17
REMARK    6  A    between atoms: C_17  and  C_18
REMARK    7  A    between atoms: C_18  and  C_19
REMARK    8  A    between atoms: C_19  and  C_20
REMARK    9  A    between atoms: C_20  and  C_21
REMARK   10  A    between atoms: C_21  and  C_22
REMARK   11  A    between atoms: N_24  and  C_25
REMARK   12  A    between atoms: C_25  and  C_26
REMARK   13  A    between atoms: C_26  and  C_27
REMARK   14  A    between atoms: C_27  and  N_28
REMARK   15  A    between atoms: N_28  and  C_29
REMARK   16  A    between atoms: C_43  and  C_44
REMARK                            x       y       z     vdW  Elec       q    Type
REMARK                         _______ _______ _______ _____ _____    ______ ____
ROOT
ATOM      1  C   UNL A   1      43.404 -16.271 -33.178  0.00  0.00    -0.045 C 
ENDROOT
BRANCH   1   2
ATOM      2  C   UNL A   1      44.286 -16.199 -31.931  0.00  0.00    -0.051 C 
BRANCH   2   3
ATOM      3  C   UNL A   1      45.654 -16.844 -32.173  0.00  0.00    -0.037 C 
BRANCH   3   4
ATOM      4  C   UNL A   1      45.986 -16.976 -33.660  0.00  0.00    +0.012 C 
BRANCH   4   7
ATOM      5  C   UNL A   1      46.431 -19.224 -34.731  0.00  0.00    +0.246 C 
ATOM      6  O   UNL A   1      47.289 -19.920 -35.263  0.00  0.00    -0.270 OA
ATOM      7  N   UNL A   1      46.795 -18.152 -33.948  0.00  0.00    -0.311 N 
ATOM      8  H   UNL A   1      47.691 -18.184 -33.542  0.00  0.00    +0.000 HD
BRANCH   5  14
ATOM      9  C   UNL A   1      44.390 -19.484 -36.192  0.00  0.00    +0.044 A 
ATOM     10  C   UNL A   1      43.027 -19.811 -36.268  0.00  0.00    -0.040 A 
ATOM     11  C   UNL A   1      42.288 -20.124 -35.122  0.00  0.00    -0.060 A 
ATOM     12  C   UNL A   1      42.899 -20.119 -33.872  0.00  0.00    -0.061 A 
ATOM     13  C   UNL A   1      44.255 -19.820 -33.768  0.00  0.00    -0.048 A 
ATOM     14  C   UNL A   1      44.999 -19.533 -34.922  0.00  0.00    +0.058 A 
BRANCH   9  15
ATOM     15  N   UNL A   1      45.122 -19.156 -37.358  0.00  0.00    -0.314 N 
ATOM     16  H   UNL A   1      45.559 -18.274 -37.339  0.00  0.00    +0.000 HD
BRANCH  15  22
ATOM     17  C   UNL A   1      44.105 -19.931 -42.196  0.00  0.00    -0.039 C 
ATOM     18  C   UNL A   1      44.809 -20.283 -40.913  0.00  0.00    -0.046 A 
ATOM     19  C   UNL A   1      45.653 -21.403 -40.898  0.00  0.00    -0.058 A 
ATOM     20  C   UNL A   1      46.317 -21.776 -39.734  0.00  0.00    -0.060 A 
ATOM     21  C   UNL A   1      46.148 -21.033 -38.569  0.00  0.00    -0.040 A 
ATOM     22  C   UNL A   1      45.324 -19.897 -38.549  0.00  0.00    +0.035 A 
ATOM     23  C   UNL A   1      44.663 -19.504 -39.739  0.00  0.00    -0.026 A 
ATOM     24  C   UNL A   1      43.768 -18.287 -39.737  0.00  0.00    -0.038 C 
ENDBRANCH  15  22
ENDBRANCH   9  15
ENDBRANCH   5  14
ENDBRANCH   4   7
ENDBRANCH   3   4
ENDBRANCH   2   3
ENDBRANCH   1   2
BRANCH   1  25
ATOM     25  C   UNL A   1      42.422 -15.102 -33.225  0.00  0.00    +0.024 C 
BRANCH  25  26
ATOM     26  C   UNL A   1      41.265 -15.350 -34.173  0.00  0.00    +0.213 C 
ATOM     27  O   UNL A   1      41.247 -14.980 -35.342  0.00  0.00    -0.276 OA
ATOM     28  N   UNL A   1      40.230 -16.039 -33.577  0.00  0.00    -0.315 N 
ATOM     29  H   UNL A   1      40.311 -16.295 -32.630  0.00  0.00    +0.000 HD
BRANCH  28  30
ATOM     30  C   UNL A   1      39.027 -16.398 -34.300  0.00  0.00    +0.013 C 
BRANCH  30  31
ATOM     31  C   UNL A   1      38.932 -17.902 -34.536  0.00  0.00    -0.022 C 
BRANCH  31  32
ATOM     32  C   UNL A   1      39.228 -18.240 -35.995  0.00  0.00    +0.011 C 
BRANCH  32  33
ATOM     33  N   UNL A   1      38.271 -19.252 -36.465  0.00  0.00    -0.343 N 
ATOM     34  H   UNL A   1      37.343 -19.057 -36.730  0.00  0.00    +0.000 HD
BRANCH  33  35
ATOM     35  C   UNL A   1      38.857 -20.554 -36.491  0.00  0.00    +0.041 A 
ATOM     36  C   UNL A   1      38.605 -21.430 -35.416  0.00  0.00    -0.005 A 
ATOM     37  C   UNL A   1      39.222 -22.681 -35.442  0.00  0.00    +0.047 A 
ATOM     38  N   UNL A   1      40.076 -23.066 -36.419  0.00  0.00    -0.251 NA
ATOM     39  C   UNL A   1      40.328 -22.226 -37.432  0.00  0.00    +0.073 A 
ATOM     40  C   UNL A   1      41.204 -22.652 -38.422  0.00  0.00    -0.036 A 
ATOM     41  C   UNL A   1      41.533 -21.849 -39.516  0.00  0.00    -0.060 A 
ATOM     42  C   UNL A   1      40.977 -20.586 -39.628  0.00  0.00    -0.061 A 
ATOM     43  C   UNL A   1      40.094 -20.136 -38.646  0.00  0.00    -0.051 A 
ATOM     44  C   UNL A   1      39.752 -20.944 -37.529  0.00  0.00    +0.021 A 
ATOM     45  C   UNL A   1      39.022 -23.685 -34.336  0.00  0.00    -0.010 C 
ATOM     46  C   UNL A   1      37.752 -23.446 -33.527  0.00  0.00    -0.047 C 
ATOM     47  C   UNL A   1      37.674 -21.986 -33.110  0.00  0.00    -0.049 C 
ATOM     48  C   UNL A   1      37.603 -21.080 -34.339  0.00  0.00    -0.024 C 
ENDBRANCH  33  35
ENDBRANCH  32  33
ENDBRANCH  31  32
ENDBRANCH  30  31
ENDBRANCH  28  30
ENDBRANCH  25  26
ENDBRANCH   1  25
TORSDOF 14
ENDMDL
MODEL 15
REMARK VINA RESULT:    -6.725     17.584     21.949
REMARK INTER + INTRA:         -17.059
REMARK INTER:                 -11.679
REMARK INTRA:                  -5.379
REMARK UNBOUND:                -4.829
REMARK  Name = cpd30.pdb
REMARK  16 active torsions:
REMARK  status: ('A' for Active; 'I' for Inactive)
REMARK    1  A    between atoms: C_1  and  C_2
REMARK    2  A    between atoms: C_6  and  N_7
REMARK    3  A    between atoms: N_7  and  C_8
REMARK    4  A    between atoms: C_13  and  C_14
REMARK    5  A    between atoms: N_16  and  C_17
REMARK    6  A    between atoms: C_17  and  C_18
REMARK    7  A    between atoms: C_18  and  C_19
REMARK    8  A    between atoms: C_19  and  C_20
REMARK    9  A    between atoms: C_20  and  C_21
REMARK   10  A    between atoms: C_21  and  C_22
REMARK   11  A    between atoms: N_24  and  C_25
REMARK   12  A    between atoms: C_25  and  C_26
REMARK   13  A    between atoms: C_26  and  C_27
REMARK   14  A    between atoms: C_27  and  N_28
REMARK   15  A    between atoms: N_28  and  C_29
REMARK   16  A    between atoms: C_43  and  C_44
REMARK                            x       y       z     vdW  Elec       q    Type
REMARK                         _______ _______ _______ _____ _____    ______ ____
ROOT
ATOM      1  C   UNL A   1      43.160 -18.318 -37.677  0.00  0.00    -0.045 C 
ENDROOT
BRANCH   1   2
ATOM      2  C   UNL A   1      42.891 -19.603 -36.892  0.00  0.00    -0.051 C 
BRANCH   2   3
ATOM      3  C   UNL A   1      42.976 -19.366 -35.381  0.00  0.00    -0.037 C 
BRANCH   3   4
ATOM      4  C   UNL A   1      42.215 -20.422 -34.578  0.00  0.00    +0.012 C 
BRANCH   4   7
ATOM      5  C   UNL A   1      40.894 -22.240 -35.741  0.00  0.00    +0.246 C 
ATOM      6  O   UNL A   1      40.898 -23.023 -36.685  0.00  0.00    -0.270 OA
ATOM      7  N   UNL A   1      42.072 -21.677 -35.302  0.00  0.00    -0.311 N 
ATOM      8  H   UNL A   1      42.900 -22.173 -35.498  0.00  0.00    +0.000 HD
BRANCH   5  14
ATOM      9  C   UNL A   1      38.756 -20.912 -35.567  0.00  0.00    +0.044 A 
ATOM     10  C   UNL A   1      37.569 -20.674 -34.856  0.00  0.00    -0.040 A 
ATOM     11  C   UNL A   1      37.286 -21.350 -33.665  0.00  0.00    -0.060 A 
ATOM     12  C   UNL A   1      38.184 -22.284 -33.158  0.00  0.00    -0.061 A 
ATOM     13  C   UNL A   1      39.359 -22.558 -33.853  0.00  0.00    -0.048 A 
ATOM     14  C   UNL A   1      39.628 -21.898 -35.062  0.00  0.00    +0.058 A 
BRANCH   9  15
ATOM     15  N   UNL A   1      39.036 -20.211 -36.764  0.00  0.00    -0.314 N 
ATOM     16  H   UNL A   1      39.025 -20.763 -37.580  0.00  0.00    +0.000 HD
BRANCH  15  22
ATOM     17  C   UNL A   1      39.976 -16.417 -39.887  0.00  0.00    -0.039 C 
ATOM     18  C   UNL A   1      39.808 -16.990 -38.506  0.00  0.00    -0.046 A 
ATOM     19  C   UNL A   1      39.992 -16.145 -37.403  0.00  0.00    -0.058 A 
ATOM     20  C   UNL A   1      39.858 -16.629 -36.106  0.00  0.00    -0.060 A 
ATOM     21  C   UNL A   1      39.538 -17.967 -35.895  0.00  0.00    -0.040 A 
ATOM     22  C   UNL A   1      39.330 -18.841 -36.973  0.00  0.00    +0.035 A 
ATOM     23  C   UNL A   1      39.446 -18.344 -38.294  0.00  0.00    -0.026 A 
ATOM     24  C   UNL A   1      39.232 -19.269 -39.469  0.00  0.00    -0.038 C 
ENDBRANCH  15  22
ENDBRANCH   9  15
ENDBRANCH   5  14
ENDBRANCH   4   7
ENDBRANCH   3   4
ENDBRANCH   2   3
ENDBRANCH   1   2
BRANCH   1  25
ATOM     25  C   UNL A   1      43.365 -17.132 -36.736  0.00  0.00    +0.024 C 
BRANCH  25  26
ATOM     26  C   UNL A   1      43.911 -15.910 -37.449  0.00  0.00    +0.213 C 
ATOM     27  O   UNL A   1      44.478 -14.984 -36.881  0.00  0.00    -0.276 OA
ATOM     28  N   UNL A   1      43.700 -15.953 -38.811  0.00  0.00    -0.315 N 
ATOM     29  H   UNL A   1      43.228 -16.727 -39.196  0.00  0.00    +0.000 HD
BRANCH  28  30
ATOM     30  C   UNL A   1      44.151 -14.896 -39.694  0.00  0.00    +0.013 C 
BRANCH  30  31
ATOM     31  C   UNL A   1      45.570 -15.143 -40.197  0.00  0.00    -0.022 C 
BRANCH  31  32
ATOM     32  C   UNL A   1      45.709 -16.560 -40.748  0.00  0.00    +0.011 C 
BRANCH  32  33
ATOM     33  N   UNL A   1      46.923 -17.180 -40.198  0.00  0.00    -0.343 N 
ATOM     34  H   UNL A   1      47.829 -16.807 -40.293  0.00  0.00    +0.000 HD
BRANCH  33  35
ATOM     35  C   UNL A   1      46.623 -18.394 -39.508  0.00  0.00    +0.041 A 
ATOM     36  C   UNL A   1      46.801 -18.438 -38.110  0.00  0.00    -0.005 A 
ATOM     37  C   UNL A   1      46.541 -19.647 -37.462  0.00  0.00    +0.047 A 
ATOM     38  N   UNL A   1      46.174 -20.774 -38.116  0.00  0.00    -0.251 NA
ATOM     39  C   UNL A   1      46.020 -20.735 -39.447  0.00  0.00    +0.073 A 
ATOM     40  C   UNL A   1      45.637 -21.906 -40.087  0.00  0.00    -0.036 A 
ATOM     41  C   UNL A   1      45.454 -21.968 -41.470  0.00  0.00    -0.060 A 
ATOM     42  C   UNL A   1      45.660 -20.833 -42.238  0.00  0.00    -0.061 A 
ATOM     43  C   UNL A   1      46.045 -19.645 -41.616  0.00  0.00    -0.051 A 
ATOM     44  C   UNL A   1      46.234 -19.571 -40.211  0.00  0.00    +0.021 A 
ATOM     45  C   UNL A   1      46.710 -19.798 -35.973  0.00  0.00    -0.010 C 
ATOM     46  C   UNL A   1      46.661 -18.473 -35.222  0.00  0.00    -0.047 C 
ATOM     47  C   UNL A   1      47.588 -17.469 -35.889  0.00  0.00    -0.049 C 
ATOM     48  C   UNL A   1      47.138 -17.192 -37.323  0.00  0.00    -0.024 C 
ENDBRANCH  33  35
ENDBRANCH  32  33
ENDBRANCH  31  32
ENDBRANCH  30  31
ENDBRANCH  28  30
ENDBRANCH  25  26
ENDBRANCH   1  25
TORSDOF 14
ENDMDL
MODEL 16
REMARK VINA RESULT:    -6.713     17.079     22.417
REMARK INTER + INTRA:         -17.037
REMARK INTER:                 -11.673
REMARK INTRA:                  -5.364
REMARK UNBOUND:                -4.829
REMARK  Name = cpd30.pdb
REMARK  16 active torsions:
REMARK  status: ('A' for Active; 'I' for Inactive)
REMARK    1  A    between atoms: C_1  and  C_2
REMARK    2  A    between atoms: C_6  and  N_7
REMARK    3  A    between atoms: N_7  and  C_8
REMARK    4  A    between atoms: C_13  and  C_14
REMARK    5  A    between atoms: N_16  and  C_17
REMARK    6  A    between atoms: C_17  and  C_18
REMARK    7  A    between atoms: C_18  and  C_19
REMARK    8  A    between atoms: C_19  and  C_20
REMARK    9  A    between atoms: C_20  and  C_21
REMARK   10  A    between atoms: C_21  and  C_22
REMARK   11  A    between atoms: N_24  and  C_25
REMARK   12  A    between atoms: C_25  and  C_26
REMARK   13  A    between atoms: C_26  and  C_27
REMARK   14  A    between atoms: C_27  and  N_28
REMARK   15  A    between atoms: N_28  and  C_29
REMARK   16  A    between atoms: C_43  and  C_44
REMARK                            x       y       z     vdW  Elec       q    Type
REMARK                         _______ _______ _______ _____ _____    ______ ____
ROOT
ATOM      1  C   UNL A   1      44.267 -18.402 -35.119  0.00  0.00    -0.045 C 
ENDROOT
BRANCH   1   2
ATOM      2  C   UNL A   1      45.574 -19.180 -34.963  0.00  0.00    -0.051 C 
BRANCH   2   3
ATOM      3  C   UNL A   1      46.704 -18.551 -35.784  0.00  0.00    -0.037 C 
BRANCH   3   4
ATOM      4  C   UNL A   1      46.643 -17.023 -35.792  0.00  0.00    +0.012 C 
BRANCH   4   7
ATOM      5  C   UNL A   1      46.305 -15.932 -38.049  0.00  0.00    +0.246 C 
ATOM      6  O   UNL A   1      46.760 -15.106 -38.833  0.00  0.00    -0.270 OA
ATOM      7  N   UNL A   1      47.098 -16.453 -37.051  0.00  0.00    -0.311 N 
ATOM      8  H   UNL A   1      48.071 -16.437 -37.205  0.00  0.00    +0.000 HD
BRANCH   5  14
ATOM      9  C   UNL A   1      44.532 -17.432 -39.036  0.00  0.00    +0.044 A 
ATOM     10  C   UNL A   1      43.176 -17.793 -39.068  0.00  0.00    -0.040 A 
ATOM     11  C   UNL A   1      42.221 -17.105 -38.311  0.00  0.00    -0.060 A 
ATOM     12  C   UNL A   1      42.603 -16.039 -37.503  0.00  0.00    -0.061 A 
ATOM     13  C   UNL A   1      43.945 -15.672 -37.434  0.00  0.00    -0.048 A 
ATOM     14  C   UNL A   1      44.903 -16.381 -38.172  0.00  0.00    +0.058 A 
BRANCH   9  15
ATOM     15  N   UNL A   1      45.485 -18.128 -39.816  0.00  0.00    -0.314 N 
ATOM     16  H   UNL A   1      46.399 -17.763 -39.778  0.00  0.00    +0.000 HD
BRANCH  15  22
ATOM     17  C   UNL A   1      46.468 -22.939 -40.781  0.00  0.00    -0.039 C 
ATOM     18  C   UNL A   1      45.830 -21.618 -41.122  0.00  0.00    -0.046 A 
ATOM     19  C   UNL A   1      45.103 -21.515 -42.316  0.00  0.00    -0.058 A 
ATOM     20  C   UNL A   1      44.504 -20.313 -42.680  0.00  0.00    -0.060 A 
ATOM     21  C   UNL A   1      44.625 -19.199 -41.855  0.00  0.00    -0.040 A 
ATOM     22  C   UNL A   1      45.331 -19.267 -40.645  0.00  0.00    +0.035 A 
ATOM     23  C   UNL A   1      45.924 -20.496 -40.262  0.00  0.00    -0.026 A 
ATOM     24  C   UNL A   1      46.694 -20.590 -38.966  0.00  0.00    -0.038 C 
ENDBRANCH  15  22
ENDBRANCH   9  15
ENDBRANCH   5  14
ENDBRANCH   4   7
ENDBRANCH   3   4
ENDBRANCH   2   3
ENDBRANCH   1   2
BRANCH   1  25
ATOM     25  C   UNL A   1      43.100 -19.343 -35.416  0.00  0.00    +0.024 C 
BRANCH  25  26
ATOM     26  C   UNL A   1      41.900 -19.083 -34.525  0.00  0.00    +0.213 C 
ATOM     27  O   UNL A   1      41.737 -19.605 -33.429  0.00  0.00    -0.276 OA
ATOM     28  N   UNL A   1      41.009 -18.191 -35.084  0.00  0.00    -0.315 N 
ATOM     29  H   UNL A   1      41.203 -17.819 -35.975  0.00  0.00    +0.000 HD
BRANCH  28  30
ATOM     30  C   UNL A   1      39.797 -17.785 -34.403  0.00  0.00    +0.013 C 
BRANCH  30  31
ATOM     31  C   UNL A   1      38.581 -17.841 -35.322  0.00  0.00    -0.022 C 
BRANCH  31  32
ATOM     32  C   UNL A   1      38.968 -18.376 -36.698  0.00  0.00    +0.011 C 
BRANCH  32  33
ATOM     33  N   UNL A   1      38.332 -19.684 -36.911  0.00  0.00    -0.343 N 
ATOM     34  H   UNL A   1      37.378 -19.810 -37.123  0.00  0.00    +0.000 HD
BRANCH  33  35
ATOM     35  C   UNL A   1      39.271 -20.751 -36.773  0.00  0.00    +0.041 A 
ATOM     36  C   UNL A   1      39.306 -21.467 -35.559  0.00  0.00    -0.005 A 
ATOM     37  C   UNL A   1      40.260 -22.477 -35.431  0.00  0.00    +0.047 A 
ATOM     38  N   UNL A   1      41.170 -22.764 -36.392  0.00  0.00    -0.251 NA
ATOM     39  C   UNL A   1      41.146 -22.071 -37.538  0.00  0.00    +0.073 A 
ATOM     40  C   UNL A   1      42.088 -22.393 -38.507  0.00  0.00    -0.036 A 
ATOM     41  C   UNL A   1      42.147 -21.727 -39.733  0.00  0.00    -0.060 A 
ATOM     42  C   UNL A   1      41.244 -20.712 -40.003  0.00  0.00    -0.061 A 
ATOM     43  C   UNL A   1      40.289 -20.371 -39.045  0.00  0.00    -0.051 A 
ATOM     44  C   UNL A   1      40.220 -21.042 -37.795  0.00  0.00    +0.021 A 
ATOM     45  C   UNL A   1      40.384 -23.294 -34.171  0.00  0.00    -0.010 C 
ATOM     46  C   UNL A   1      39.116 -23.292 -33.324  0.00  0.00    -0.047 C 
ATOM     47  C   UNL A   1      38.625 -21.865 -33.136  0.00  0.00    -0.049 C 
ATOM     48  C   UNL A   1      38.268 -21.238 -34.484  0.00  0.00    -0.024 C 
ENDBRANCH  33  35
ENDBRANCH  32  33
ENDBRANCH  31  32
ENDBRANCH  30  31
ENDBRANCH  28  30
ENDBRANCH  25  26
ENDBRANCH   1  25
TORSDOF 14
ENDMDL
MODEL 17
REMARK VINA RESULT:    -6.645     17.652     21.915
REMARK INTER + INTRA:         -16.913
REMARK INTER:                 -12.743
REMARK INTRA:                  -4.170
REMARK UNBOUND:                -4.829
REMARK  Name = cpd30.pdb
REMARK  16 active torsions:
REMARK  status: ('A' for Active; 'I' for Inactive)
REMARK    1  A    between atoms: C_1  and  C_2
REMARK    2  A    between atoms: C_6  and  N_7
REMARK    3  A    between atoms: N_7  and  C_8
REMARK    4  A    between atoms: C_13  and  C_14
REMARK    5  A    between atoms: N_16  and  C_17
REMARK    6  A    between atoms: C_17  and  C_18
REMARK    7  A    between atoms: C_18  and  C_19
REMARK    8  A    between atoms: C_19  and  C_20
REMARK    9  A    between atoms: C_20  and  C_21
REMARK   10  A    between atoms: C_21  and  C_22
REMARK   11  A    between atoms: N_24  and  C_25
REMARK   12  A    between atoms: C_25  and  C_26
REMARK   13  A    between atoms: C_26  and  C_27
REMARK   14  A    between atoms: C_27  and  N_28
REMARK   15  A    between atoms: N_28  and  C_29
REMARK   16  A    between atoms: C_43  and  C_44
REMARK                            x       y       z     vdW  Elec       q    Type
REMARK                         _______ _______ _______ _____ _____    ______ ____
ROOT
ATOM      1  C   UNL A   1      42.906 -16.199 -35.420  0.00  0.00    -0.045 C 
ENDROOT
BRANCH   1   2
ATOM      2  C   UNL A   1      44.076 -15.622 -34.622  0.00  0.00    -0.051 C 
BRANCH   2   3
ATOM      3  C   UNL A   1      44.837 -16.719 -33.870  0.00  0.00    -0.037 C 
BRANCH   3   4
ATOM      4  C   UNL A   1      43.902 -17.705 -33.167  0.00  0.00    +0.012 C 
BRANCH   4   7
ATOM      5  C   UNL A   1      44.612 -19.953 -34.084  0.00  0.00    +0.246 C 
ATOM      6  O   UNL A   1      45.469 -20.828 -34.019  0.00  0.00    -0.270 OA
ATOM      7  N   UNL A   1      44.476 -19.039 -33.064  0.00  0.00    -0.311 N 
ATOM      8  H   UNL A   1      44.798 -19.315 -32.176  0.00  0.00    +0.000 HD
BRANCH   5  14
ATOM      9  C   UNL A   1      42.400 -20.381 -35.220  0.00  0.00    +0.044 A 
ATOM     10  C   UNL A   1      41.624 -20.244 -36.381  0.00  0.00    -0.040 A 
ATOM     11  C   UNL A   1      42.149 -19.673 -37.545  0.00  0.00    -0.060 A 
ATOM     12  C   UNL A   1      43.466 -19.224 -37.573  0.00  0.00    -0.061 A 
ATOM     13  C   UNL A   1      44.254 -19.328 -36.430  0.00  0.00    -0.048 A 
ATOM     14  C   UNL A   1      43.715 -19.875 -35.255  0.00  0.00    +0.058 A 
BRANCH   9  15
ATOM     15  N   UNL A   1      41.860 -20.972 -34.053  0.00  0.00    -0.314 N 
ATOM     16  H   UNL A   1      42.446 -20.940 -33.263  0.00  0.00    +0.000 HD
BRANCH  15  22
ATOM     17  C   UNL A   1      37.072 -20.715 -32.622  0.00  0.00    -0.039 C 
ATOM     18  C   UNL A   1      38.269 -21.476 -33.126  0.00  0.00    -0.046 A 
ATOM     19  C   UNL A   1      38.142 -22.854 -33.349  0.00  0.00    -0.058 A 
ATOM     20  C   UNL A   1      39.222 -23.603 -33.803  0.00  0.00    -0.060 A 
ATOM     21  C   UNL A   1      40.445 -22.983 -34.041  0.00  0.00    -0.040 A 
ATOM     22  C   UNL A   1      40.608 -21.604 -33.844  0.00  0.00    +0.035 A 
ATOM     23  C   UNL A   1      39.503 -20.836 -33.401  0.00  0.00    -0.026 A 
ATOM     24  C   UNL A   1      39.658 -19.350 -33.178  0.00  0.00    -0.038 C 
ENDBRANCH  15  22
ENDBRANCH   9  15
ENDBRANCH   5  14
ENDBRANCH   4   7
ENDBRANCH   3   4
ENDBRANCH   2   3
ENDBRANCH   1   2
BRANCH   1  25
ATOM     25  C   UNL A   1      42.284 -15.138 -36.327  0.00  0.00    +0.024 C 
BRANCH  25  26
ATOM     26  C   UNL A   1      41.681 -15.729 -37.587  0.00  0.00    +0.213 C 
ATOM     27  O   UNL A   1      40.583 -16.272 -37.630  0.00  0.00    -0.276 OA
ATOM     28  N   UNL A   1      42.504 -15.587 -38.684  0.00  0.00    -0.315 N 
ATOM     29  H   UNL A   1      43.377 -15.147 -38.572  0.00  0.00    +0.000 HD
BRANCH  28  30
ATOM     30  C   UNL A   1      42.124 -16.066 -39.998  0.00  0.00    +0.013 C 
BRANCH  30  31
ATOM     31  C   UNL A   1      43.321 -16.605 -40.775  0.00  0.00    -0.022 C 
BRANCH  31  32
ATOM     32  C   UNL A   1      44.599 -16.489 -39.948  0.00  0.00    +0.011 C 
BRANCH  32  33
ATOM     33  N   UNL A   1      45.699 -17.167 -40.651  0.00  0.00    -0.343 N 
ATOM     34  H   UNL A   1      45.986 -16.953 -41.568  0.00  0.00    +0.000 HD
BRANCH  33  35
ATOM     35  C   UNL A   1      46.298 -18.173 -39.834  0.00  0.00    +0.041 A 
ATOM     36  C   UNL A   1      46.311 -19.503 -40.301  0.00  0.00    -0.005 A 
ATOM     37  C   UNL A   1      46.864 -20.476 -39.468  0.00  0.00    +0.047 A 
ATOM     38  N   UNL A   1      47.341 -20.208 -38.230  0.00  0.00    -0.251 NA
ATOM     39  C   UNL A   1      47.313 -18.946 -37.780  0.00  0.00    +0.073 A 
ATOM     40  C   UNL A   1      47.816 -18.702 -36.509  0.00  0.00    -0.036 A 
ATOM     41  C   UNL A   1      47.828 -17.423 -35.950  0.00  0.00    -0.060 A 
ATOM     42  C   UNL A   1      47.325 -16.355 -36.676  0.00  0.00    -0.061 A 
ATOM     43  C   UNL A   1      46.816 -16.576 -37.956  0.00  0.00    -0.051 A 
ATOM     44  C   UNL A   1      46.799 -17.873 -38.534  0.00  0.00    +0.021 A 
ATOM     45  C   UNL A   1      46.918 -21.927 -39.873  0.00  0.00    -0.010 C 
ATOM     46  C   UNL A   1      46.823 -22.137 -41.380  0.00  0.00    -0.047 C 
ATOM     47  C   UNL A   1      45.653 -21.342 -41.938  0.00  0.00    -0.049 C 
ATOM     48  C   UNL A   1      45.860 -19.846 -41.703  0.00  0.00    -0.024 C 
ENDBRANCH  33  35
ENDBRANCH  32  33
ENDBRANCH  31  32
ENDBRANCH  30  31
ENDBRANCH  28  30
ENDBRANCH  25  26
ENDBRANCH   1  25
TORSDOF 14
ENDMDL
MODEL 18
REMARK VINA RESULT:    -6.432     17.107     21.359
REMARK INTER + INTRA:         -16.526
REMARK INTER:                 -11.314
REMARK INTRA:                  -5.212
REMARK UNBOUND:                -4.829
REMARK  Name = cpd30.pdb
REMARK  16 active torsions:
REMARK  status: ('A' for Active; 'I' for Inactive)
REMARK    1  A    between atoms: C_1  and  C_2
REMARK    2  A    between atoms: C_6  and  N_7
REMARK    3  A    between atoms: N_7  and  C_8
REMARK    4  A    between atoms: C_13  and  C_14
REMARK    5  A    between atoms: N_16  and  C_17
REMARK    6  A    between atoms: C_17  and  C_18
REMARK    7  A    between atoms: C_18  and  C_19
REMARK    8  A    between atoms: C_19  and  C_20
REMARK    9  A    between atoms: C_20  and  C_21
REMARK   10  A    between atoms: C_21  and  C_22
REMARK   11  A    between atoms: N_24  and  C_25
REMARK   12  A    between atoms: C_25  and  C_26
REMARK   13  A    between atoms: C_26  and  C_27
REMARK   14  A    between atoms: C_27  and  N_28
REMARK   15  A    between atoms: N_28  and  C_29
REMARK   16  A    between atoms: C_43  and  C_44
REMARK                            x       y       z     vdW  Elec       q    Type
REMARK                         _______ _______ _______ _____ _____    ______ ____
ROOT
ATOM      1  C   UNL A   1      39.765 -18.447 -39.738  0.00  0.00    -0.045 C 
ENDROOT
BRANCH   1   2
ATOM      2  C   UNL A   1      39.211 -19.838 -39.426  0.00  0.00    -0.051 C 
BRANCH   2   3
ATOM      3  C   UNL A   1      40.335 -20.859 -39.228  0.00  0.00    -0.037 C 
BRANCH   3   4
ATOM      4  C   UNL A   1      41.675 -20.200 -38.899  0.00  0.00    +0.012 C 
BRANCH   4   7
ATOM      5  C   UNL A   1      41.880 -20.318 -36.380  0.00  0.00    +0.246 C 
ATOM      6  O   UNL A   1      42.083 -21.070 -35.433  0.00  0.00    -0.270 OA
ATOM      7  N   UNL A   1      42.247 -20.691 -37.653  0.00  0.00    -0.311 N 
ATOM      8  H   UNL A   1      42.968 -21.357 -37.729  0.00  0.00    +0.000 HD
BRANCH   5  14
ATOM      9  C   UNL A   1      39.852 -18.870 -35.984  0.00  0.00    +0.044 A 
ATOM     10  C   UNL A   1      39.349 -17.578 -35.768  0.00  0.00    -0.040 A 
ATOM     11  C   UNL A   1      40.188 -16.458 -35.780  0.00  0.00    -0.060 A 
ATOM     12  C   UNL A   1      41.552 -16.607 -36.007  0.00  0.00    -0.061 A 
ATOM     13  C   UNL A   1      42.084 -17.880 -36.202  0.00  0.00    -0.048 A 
ATOM     14  C   UNL A   1      41.244 -19.003 -36.162  0.00  0.00    +0.058 A 
BRANCH   9  15
ATOM     15  N   UNL A   1      38.990 -19.992 -35.982  0.00  0.00    -0.314 N 
ATOM     16  H   UNL A   1      38.719 -20.308 -36.875  0.00  0.00    +0.000 HD
BRANCH  15  22
ATOM     17  C   UNL A   1      37.973 -24.397 -33.837  0.00  0.00    -0.039 C 
ATOM     18  C   UNL A   1      37.944 -22.892 -33.861  0.00  0.00    -0.046 A 
ATOM     19  C   UNL A   1      37.330 -22.218 -32.796  0.00  0.00    -0.058 A 
ATOM     20  C   UNL A   1      37.267 -20.829 -32.778  0.00  0.00    -0.060 A 
ATOM     21  C   UNL A   1      37.819 -20.095 -33.824  0.00  0.00    -0.040 A 
ATOM     22  C   UNL A   1      38.455 -20.733 -34.899  0.00  0.00    +0.035 A 
ATOM     23  C   UNL A   1      38.538 -22.147 -34.909  0.00  0.00    -0.026 A 
ATOM     24  C   UNL A   1      39.215 -22.854 -36.059  0.00  0.00    -0.038 C 
ENDBRANCH  15  22
ENDBRANCH   9  15
ENDBRANCH   5  14
ENDBRANCH   4   7
ENDBRANCH   3   4
ENDBRANCH   2   3
ENDBRANCH   1   2
BRANCH   1  25
ATOM     25  C   UNL A   1      38.710 -17.369 -39.500  0.00  0.00    +0.024 C 
BRANCH  25  26
ATOM     26  C   UNL A   1      39.318 -16.002 -39.252  0.00  0.00    +0.213 C 
ATOM     27  O   UNL A   1      38.677 -15.024 -38.886  0.00  0.00    -0.276 OA
ATOM     28  N   UNL A   1      40.678 -15.978 -39.482  0.00  0.00    -0.315 N 
ATOM     29  H   UNL A   1      41.125 -16.802 -39.783  0.00  0.00    +0.000 HD
BRANCH  28  30
ATOM     30  C   UNL A   1      41.469 -14.779 -39.294  0.00  0.00    +0.013 C 
BRANCH  30  31
ATOM     31  C   UNL A   1      42.954 -15.034 -39.533  0.00  0.00    -0.022 C 
BRANCH  31  32
ATOM     32  C   UNL A   1      43.182 -16.449 -40.059  0.00  0.00    +0.011 C 
BRANCH  32  33
ATOM     33  N   UNL A   1      44.618 -16.761 -40.016  0.00  0.00    -0.343 N 
ATOM     34  H   UNL A   1      45.333 -16.106 -40.187  0.00  0.00    +0.000 HD
BRANCH  33  35
ATOM     35  C   UNL A   1      44.844 -18.134 -39.696  0.00  0.00    +0.041 A 
ATOM     36  C   UNL A   1      45.232 -18.466 -38.382  0.00  0.00    -0.005 A 
ATOM     37  C   UNL A   1      45.489 -19.809 -38.102  0.00  0.00    +0.047 A 
ATOM     38  N   UNL A   1      45.426 -20.786 -39.038  0.00  0.00    -0.251 NA
ATOM     39  C   UNL A   1      45.073 -20.466 -40.290  0.00  0.00    +0.073 A 
ATOM     40  C   UNL A   1      45.011 -21.492 -41.225  0.00  0.00    -0.036 A 
ATOM     41  C   UNL A   1      44.657 -21.261 -42.556  0.00  0.00    -0.060 A 
ATOM     42  C   UNL A   1      44.357 -19.973 -42.969  0.00  0.00    -0.061 A 
ATOM     43  C   UNL A   1      44.412 -18.927 -42.047  0.00  0.00    -0.051 A 
ATOM     44  C   UNL A   1      44.770 -19.151 -40.692  0.00  0.00    +0.021 A 
ATOM     45  C   UNL A   1      45.917 -20.264 -36.731  0.00  0.00    -0.010 C 
ATOM     46  C   UNL A   1      45.541 -19.284 -35.626  0.00  0.00    -0.047 C 
ATOM     47  C   UNL A   1      45.971 -17.879 -36.015  0.00  0.00    -0.049 C 
ATOM     48  C   UNL A   1      45.247 -17.427 -37.283  0.00  0.00    -0.024 C 
ENDBRANCH  33  35
ENDBRANCH  32  33
ENDBRANCH  31  32
ENDBRANCH  30  31
ENDBRANCH  28  30
ENDBRANCH  25  26
ENDBRANCH   1  25
TORSDOF 14
ENDMDL
MODEL 19
REMARK VINA RESULT:    -6.187     18.665     21.860
REMARK INTER + INTRA:         -16.080
REMARK INTER:                 -11.223
REMARK INTRA:                  -4.856
REMARK UNBOUND:                -4.829
REMARK  Name = cpd30.pdb
REMARK  16 active torsions:
REMARK  status: ('A' for Active; 'I' for Inactive)
REMARK    1  A    between atoms: C_1  and  C_2
REMARK    2  A    between atoms: C_6  and  N_7
REMARK    3  A    between atoms: N_7  and  C_8
REMARK    4  A    between atoms: C_13  and  C_14
REMARK    5  A    between atoms: N_16  and  C_17
REMARK    6  A    between atoms: C_17  and  C_18
REMARK    7  A    between atoms: C_18  and  C_19
REMARK    8  A    between atoms: C_19  and  C_20
REMARK    9  A    between atoms: C_20  and  C_21
REMARK   10  A    between atoms: C_21  and  C_22
REMARK   11  A    between atoms: N_24  and  C_25
REMARK   12  A    between atoms: C_25  and  C_26
REMARK   13  A    between atoms: C_26  and  C_27
REMARK   14  A    between atoms: C_27  and  N_28
REMARK   15  A    between atoms: N_28  and  C_29
REMARK   16  A    between atoms: C_43  and  C_44
REMARK                            x       y       z     vdW  Elec       q    Type
REMARK                         _______ _______ _______ _____ _____    ______ ____
ROOT
ATOM      1  C   UNL A   1      43.347 -17.190 -35.298  0.00  0.00    -0.045 C 
ENDROOT
BRANCH   1   2
ATOM      2  C   UNL A   1      42.412 -18.162 -36.020  0.00  0.00    -0.051 C 
BRANCH   2   3
ATOM      3  C   UNL A   1      41.104 -17.480 -36.433  0.00  0.00    -0.037 C 
BRANCH   3   4
ATOM      4  C   UNL A   1      41.081 -17.103 -37.915  0.00  0.00    +0.012 C 
BRANCH   4   7
ATOM      5  C   UNL A   1      39.400 -18.805 -38.740  0.00  0.00    +0.246 C 
ATOM      6  O   UNL A   1      38.204 -19.028 -38.894  0.00  0.00    -0.270 OA
ATOM      7  N   UNL A   1      39.850 -17.514 -38.575  0.00  0.00    -0.311 N 
ATOM      8  H   UNL A   1      39.283 -16.798 -38.941  0.00  0.00    +0.000 HD
BRANCH   5  14
ATOM      9  C   UNL A   1      40.360 -20.909 -37.730  0.00  0.00    +0.044 A 
ATOM     10  C   UNL A   1      41.313 -21.935 -37.824  0.00  0.00    -0.040 A 
ATOM     11  C   UNL A   1      42.270 -21.948 -38.845  0.00  0.00    -0.060 A 
ATOM     12  C   UNL A   1      42.292 -20.934 -39.798  0.00  0.00    -0.061 A 
ATOM     13  C   UNL A   1      41.345 -19.915 -39.743  0.00  0.00    -0.048 A 
ATOM     14  C   UNL A   1      40.370 -19.920 -38.734  0.00  0.00    +0.058 A 
BRANCH   9  15
ATOM     15  N   UNL A   1      39.406 -20.901 -36.685  0.00  0.00    -0.314 N 
ATOM     16  H   UNL A   1      38.496 -21.165 -36.951  0.00  0.00    +0.000 HD
BRANCH  15  22
ATOM     17  C   UNL A   1      37.838 -18.406 -32.641  0.00  0.00    -0.039 C 
ATOM     18  C   UNL A   1      38.794 -19.333 -33.342  0.00  0.00    -0.046 A 
ATOM     19  C   UNL A   1      39.882 -19.844 -32.620  0.00  0.00    -0.058 A 
ATOM     20  C   UNL A   1      40.798 -20.696 -33.226  0.00  0.00    -0.060 A 
ATOM     21  C   UNL A   1      40.640 -21.049 -34.563  0.00  0.00    -0.040 A 
ATOM     22  C   UNL A   1      39.556 -20.571 -35.314  0.00  0.00    +0.035 A 
ATOM     23  C   UNL A   1      38.609 -19.720 -34.692  0.00  0.00    -0.026 A 
ATOM     24  C   UNL A   1      37.437 -19.190 -35.484  0.00  0.00    -0.038 C 
ENDBRANCH  15  22
ENDBRANCH   9  15
ENDBRANCH   5  14
ENDBRANCH   4   7
ENDBRANCH   3   4
ENDBRANCH   2   3
ENDBRANCH   1   2
BRANCH   1  25
ATOM     25  C   UNL A   1      43.812 -17.766 -33.962  0.00  0.00    +0.024 C 
BRANCH  25  26
ATOM     26  C   UNL A   1      45.224 -18.316 -34.023  0.00  0.00    +0.213 C 
ATOM     27  O   UNL A   1      46.170 -17.842 -33.405  0.00  0.00    -0.276 OA
ATOM     28  N   UNL A   1      45.330 -19.412 -34.853  0.00  0.00    -0.315 N 
ATOM     29  H   UNL A   1      44.527 -19.732 -35.325  0.00  0.00    +0.000 HD
BRANCH  28  30
ATOM     30  C   UNL A   1      46.584 -20.109 -35.052  0.00  0.00    +0.013 C 
BRANCH  30  31
ATOM     31  C   UNL A   1      47.230 -19.748 -36.387  0.00  0.00    -0.022 C 
BRANCH  31  32
ATOM     32  C   UNL A   1      46.169 -19.569 -37.469  0.00  0.00    +0.011 C 
BRANCH  32  33
ATOM     33  N   UNL A   1      46.797 -19.031 -38.685  0.00  0.00    -0.343 N 
ATOM     34  H   UNL A   1      47.760 -18.846 -38.777  0.00  0.00    +0.000 HD
BRANCH  33  35
ATOM     35  C   UNL A   1      45.834 -18.810 -39.716  0.00  0.00    +0.041 A 
ATOM     36  C   UNL A   1      45.736 -19.751 -40.761  0.00  0.00    -0.005 A 
ATOM     37  C   UNL A   1      44.818 -19.494 -41.780  0.00  0.00    +0.047 A 
ATOM     38  N   UNL A   1      44.061 -18.372 -41.830  0.00  0.00    -0.251 NA
ATOM     39  C   UNL A   1      44.167 -17.471 -40.844  0.00  0.00    +0.073 A 
ATOM     40  C   UNL A   1      43.372 -16.334 -40.920  0.00  0.00    -0.036 A 
ATOM     41  C   UNL A   1      43.413 -15.335 -39.945  0.00  0.00    -0.060 A 
ATOM     42  C   UNL A   1      44.268 -15.470 -38.864  0.00  0.00    -0.061 A 
ATOM     43  C   UNL A   1      45.075 -16.604 -38.766  0.00  0.00    -0.051 A 
ATOM     44  C   UNL A   1      45.043 -17.626 -39.752  0.00  0.00    +0.021 A 
ATOM     45  C   UNL A   1      44.644 -20.433 -42.945  0.00  0.00    -0.010 C 
ATOM     46  C   UNL A   1      45.125 -21.850 -42.653  0.00  0.00    -0.047 C 
ATOM     47  C   UNL A   1      46.519 -21.806 -42.048  0.00  0.00    -0.049 C 
ATOM     48  C   UNL A   1      46.503 -21.053 -40.718  0.00  0.00    -0.024 C 
ENDBRANCH  33  35
ENDBRANCH  32  33
ENDBRANCH  31  32
ENDBRANCH  30  31
ENDBRANCH  28  30
ENDBRANCH  25  26
ENDBRANCH   1  25
TORSDOF 14
ENDMDL
MODEL 20
REMARK VINA RESULT:    -6.150     17.822     21.782
REMARK INTER + INTRA:         -16.013
REMARK INTER:                 -10.992
REMARK INTRA:                  -5.021
REMARK UNBOUND:                -4.829
REMARK  Name = cpd30.pdb
REMARK  16 active torsions:
REMARK  status: ('A' for Active; 'I' for Inactive)
REMARK    1  A    between atoms: C_1  and  C_2
REMARK    2  A    between atoms: C_6  and  N_7
REMARK    3  A    between atoms: N_7  and  C_8
REMARK    4  A    between atoms: C_13  and  C_14
REMARK    5  A    between atoms: N_16  and  C_17
REMARK    6  A    between atoms: C_17  and  C_18
REMARK    7  A    between atoms: C_18  and  C_19
REMARK    8  A    between atoms: C_19  and  C_20
REMARK    9  A    between atoms: C_20  and  C_21
REMARK   10  A    between atoms: C_21  and  C_22
REMARK   11  A    between atoms: N_24  and  C_25
REMARK   12  A    between atoms: C_25  and  C_26
REMARK   13  A    between atoms: C_26  and  C_27
REMARK   14  A    between atoms: C_27  and  N_28
REMARK   15  A    between atoms: N_28  and  C_29
REMARK   16  A    between atoms: C_43  and  C_44
REMARK                            x       y       z     vdW  Elec       q    Type
REMARK                         _______ _______ _______ _____ _____    ______ ____
ROOT
ATOM      1  C   UNL A   1      40.460 -19.585 -37.322  0.00  0.00    -0.045 C 
ENDROOT
BRANCH   1   2
ATOM      2  C   UNL A   1      40.675 -20.707 -36.305  0.00  0.00    -0.051 C 
BRANCH   2   3
ATOM      3  C   UNL A   1      42.162 -21.035 -36.136  0.00  0.00    -0.037 C 
BRANCH   3   4
ATOM      4  C   UNL A   1      43.068 -19.862 -36.516  0.00  0.00    +0.012 C 
BRANCH   4   7
ATOM      5  C   UNL A   1      43.907 -18.649 -34.461  0.00  0.00    +0.246 C 
ATOM      6  O   UNL A   1      44.557 -18.773 -33.428  0.00  0.00    -0.270 OA
ATOM      7  N   UNL A   1      44.049 -19.559 -35.484  0.00  0.00    -0.311 N 
ATOM      8  H   UNL A   1      44.899 -20.055 -35.521  0.00  0.00    +0.000 HD
BRANCH   5  14
ATOM      9  C   UNL A   1      41.851 -17.356 -33.777  0.00  0.00    +0.044 A 
ATOM     10  C   UNL A   1      41.031 -16.239 -34.000  0.00  0.00    -0.040 A 
ATOM     11  C   UNL A   1      41.284 -15.347 -35.048  0.00  0.00    -0.060 A 
ATOM     12  C   UNL A   1      42.368 -15.553 -35.897  0.00  0.00    -0.061 A 
ATOM     13  C   UNL A   1      43.211 -16.641 -35.687  0.00  0.00    -0.048 A 
ATOM     14  C   UNL A   1      42.970 -17.518 -34.618  0.00  0.00    +0.058 A 
BRANCH   9  15
ATOM     15  N   UNL A   1      41.575 -18.258 -32.722  0.00  0.00    -0.314 N 
ATOM     16  H   UNL A   1      41.880 -17.962 -31.833  0.00  0.00    +0.000 HD
BRANCH  15  22
ATOM     17  C   UNL A   1      37.365 -20.962 -32.701  0.00  0.00    -0.039 C 
ATOM     18  C   UNL A   1      38.866 -20.839 -32.714  0.00  0.00    -0.046 A 
ATOM     19  C   UNL A   1      39.634 -22.012 -32.703  0.00  0.00    -0.058 A 
ATOM     20  C   UNL A   1      41.023 -21.950 -32.704  0.00  0.00    -0.060 A 
ATOM     21  C   UNL A   1      41.663 -20.714 -32.716  0.00  0.00    -0.040 A 
ATOM     22  C   UNL A   1      40.930 -19.519 -32.742  0.00  0.00    +0.035 A 
ATOM     23  C   UNL A   1      39.514 -19.580 -32.763  0.00  0.00    -0.026 A 
ATOM     24  C   UNL A   1      38.705 -18.305 -32.787  0.00  0.00    -0.038 C 
ENDBRANCH  15  22
ENDBRANCH   9  15
ENDBRANCH   5  14
ENDBRANCH   4   7
ENDBRANCH   3   4
ENDBRANCH   2   3
ENDBRANCH   1   2
BRANCH   1  25
ATOM     25  C   UNL A   1      39.538 -18.504 -36.761  0.00  0.00    +0.024 C 
BRANCH  25  26
ATOM     26  C   UNL A   1      39.577 -17.225 -37.576  0.00  0.00    +0.213 C 
ATOM     27  O   UNL A   1      38.804 -16.288 -37.414  0.00  0.00    -0.276 OA
ATOM     28  N   UNL A   1      40.579 -17.230 -38.523  0.00  0.00    -0.315 N 
ATOM     29  H   UNL A   1      41.157 -18.024 -38.601  0.00  0.00    +0.000 HD
BRANCH  28  30
ATOM     30  C   UNL A   1      40.810 -16.104 -39.405  0.00  0.00    +0.013 C 
BRANCH  30  31
ATOM     31  C   UNL A   1      42.243 -16.077 -39.929  0.00  0.00    -0.022 C 
BRANCH  31  32
ATOM     32  C   UNL A   1      42.902 -17.444 -39.772  0.00  0.00    +0.011 C 
BRANCH  32  33
ATOM     33  N   UNL A   1      44.217 -17.431 -40.430  0.00  0.00    -0.343 N 
ATOM     34  H   UNL A   1      44.487 -16.780 -41.118  0.00  0.00    +0.000 HD
BRANCH  33  35
ATOM     35  C   UNL A   1      45.054 -18.481 -39.944  0.00  0.00    +0.041 A 
ATOM     36  C   UNL A   1      45.055 -19.714 -40.626  0.00  0.00    -0.005 A 
ATOM     37  C   UNL A   1      45.849 -20.739 -40.109  0.00  0.00    +0.047 A 
ATOM     38  N   UNL A   1      46.572 -20.615 -38.971  0.00  0.00    -0.251 NA
ATOM     39  C   UNL A   1      46.557 -19.447 -38.315  0.00  0.00    +0.073 A 
ATOM     40  C   UNL A   1      47.315 -19.348 -37.155  0.00  0.00    -0.036 A 
ATOM     41  C   UNL A   1      47.362 -18.176 -36.398  0.00  0.00    -0.060 A 
ATOM     42  C   UNL A   1      46.635 -17.069 -36.807  0.00  0.00    -0.061 A 
ATOM     43  C   UNL A   1      45.868 -17.145 -37.969  0.00  0.00    -0.051 A 
ATOM     44  C   UNL A   1      45.812 -18.332 -38.746  0.00  0.00    +0.021 A 
ATOM     45  C   UNL A   1      45.912 -22.097 -40.760  0.00  0.00    -0.010 C 
ATOM     46  C   UNL A   1      45.496 -22.082 -42.227  0.00  0.00    -0.047 C 
ATOM     47  C   UNL A   1      44.177 -21.340 -42.380  0.00  0.00    -0.049 C 
ATOM     48  C   UNL A   1      44.325 -19.885 -41.939  0.00  0.00    -0.024 C 
ENDBRANCH  33  35
ENDBRANCH  32  33
ENDBRANCH  31  32
ENDBRANCH  30  31
ENDBRANCH  28  30
ENDBRANCH  25  26
ENDBRANCH   1  25
TORSDOF 14
ENDMDL
