REMARK  Name = cpd30.pdb
REMARK  16 active torsions:
REMARK  status: ('A' for Active; 'I' for Inactive)
REMARK    1  A    between atoms: C_1  and  C_2
REMARK    2  A    between atoms: C_6  and  N_7
REMARK    3  A    between atoms: N_7  and  C_8
REMARK    4  A    between atoms: C_13  and  C_14
REMARK    5  A    between atoms: N_16  and  C_17
REMARK    6  A    between atoms: C_17  and  C_18
REMARK    7  A    between atoms: C_18  and  C_19
REMARK    8  A    between atoms: C_19  and  C_20
REMARK    9  A    between atoms: C_20  and  C_21
REMARK   10  A    between atoms: C_21  and  C_22
REMARK   11  A    between atoms: N_24  and  C_25
REMARK   12  A    between atoms: C_25  and  C_26
REMARK   13  A    between atoms: C_26  and  C_27
REMARK   14  A    between atoms: C_27  and  N_28
REMARK   15  A    between atoms: N_28  and  C_29
REMARK   16  A    between atoms: C_43  and  C_44
REMARK                            x       y       z     vdW  Elec       q    Type
REMARK                         _______ _______ _______ _____ _____    ______ ____
ROOT
ATOM      1  C   UNL A   1      -5.484  -3.902  -0.286  0.00  0.00    -0.045 C 
ENDROOT
BRANCH   1   2
ATOM      2  C   UNL A   1      -4.494  -2.741  -0.390  0.00  0.00    -0.051 C 
BRANCH   2   3
ATOM      3  C   UNL A   1      -3.179  -3.058   0.329  0.00  0.00    -0.037 C 
BRANCH   3   4
ATOM      4  C   UNL A   1      -2.182  -1.900   0.266  0.00  0.00    +0.012 C 
BRANCH   4   7
ATOM      5  C   UNL A   1      -0.847  -2.347  -1.836  0.00  0.00    +0.246 C 
ATOM      6  O   UNL A   1      -0.876  -2.301  -3.061  0.00  0.00    -0.270 OA
ATOM      7  N   UNL A   1      -1.745  -1.614  -1.093  0.00  0.00    -0.311 N 
ATOM      8  H   UNL A   1      -2.130  -0.817  -1.524  0.00  0.00    +0.000 HD
BRANCH   5  14
ATOM      9  C   UNL A   1       1.120  -2.630  -0.281  0.00  0.00    +0.044 A 
ATOM     10  C   UNL A   1       2.017  -3.514   0.338  0.00  0.00    -0.040 A 
ATOM     11  C   UNL A   1       1.989  -4.887   0.069  0.00  0.00    -0.060 A 
ATOM     12  C   UNL A   1       1.059  -5.407  -0.826  0.00  0.00    -0.061 A 
ATOM     13  C   UNL A   1       0.142  -4.557  -1.439  0.00  0.00    -0.048 A 
ATOM     14  C   UNL A   1       0.155  -3.185  -1.146  0.00  0.00    +0.058 A 
BRANCH   9  15
ATOM     15  N   UNL A   1       1.168  -1.242  -0.010  0.00  0.00    -0.314 N 
ATOM     16  H   UNL A   1       0.291  -0.796   0.027  0.00  0.00    +0.000 HD
BRANCH  15  22
ATOM     17  C   UNL A   1       3.049   3.040   1.769  0.00  0.00    -0.039 C 
ATOM     18  C   UNL A   1       3.193   1.713   1.073  0.00  0.00    -0.046 A 
ATOM     19  C   UNL A   1       4.459   1.338   0.602  0.00  0.00    -0.058 A 
ATOM     20  C   UNL A   1       4.641   0.127  -0.057  0.00  0.00    -0.060 A 
ATOM     21  C   UNL A   1       3.559  -0.726  -0.254  0.00  0.00    -0.040 A 
ATOM     22  C   UNL A   1       2.280  -0.393   0.216  0.00  0.00    +0.035 A 
ATOM     23  C   UNL A   1       2.097   0.831   0.906  0.00  0.00    -0.026 A 
ATOM     24  C   UNL A   1       0.727   1.211   1.416  0.00  0.00    -0.038 C 
ENDBRANCH  15  22
ENDBRANCH   9  15
ENDBRANCH   5  14
ENDBRANCH   4   7
ENDBRANCH   3   4
ENDBRANCH   2   3
ENDBRANCH   1   2
BRANCH   1  25
ATOM     25  C   UNL A   1      -6.787  -3.580  -1.015  0.00  0.00    +0.024 C 
BRANCH  25  26
ATOM     26  C   UNL A   1      -7.782  -4.724  -0.964  0.00  0.00    +0.213 C 
ATOM     27  O   UNL A   1      -7.576  -5.784  -0.385  0.00  0.00    -0.276 OA
ATOM     28  N   UNL A   1      -8.949  -4.441  -1.642  0.00  0.00    -0.315 N 
ATOM     29  H   UNL A   1      -9.040  -3.570  -2.092  0.00  0.00    +0.000 HD
BRANCH  28  30
ATOM     30  C   UNL A   1     -10.046  -5.385  -1.713  0.00  0.00    +0.013 C 
BRANCH  30  31
ATOM     31  C   UNL A   1     -10.931  -5.323  -0.472  0.00  0.00    -0.022 C 
BRANCH  31  32
ATOM     32  C   UNL A   1     -12.153  -6.223  -0.634  0.00  0.00    +0.011 C 
BRANCH  32  33
ATOM     33  N   UNL A   1     -12.970  -6.162   0.587  0.00  0.00    -0.343 N 
ATOM     34  H   UNL A   1     -12.726  -5.652   1.393  0.00  0.00    +0.000 HD
BRANCH  33  35
ATOM     35  C   UNL A   1     -14.163  -6.936   0.456  0.00  0.00    +0.041 A 
ATOM     36  C   UNL A   1     -14.138  -8.288   0.853  0.00  0.00    -0.005 A 
ATOM     37  C   UNL A   1     -15.303  -9.036   0.677  0.00  0.00    +0.047 A 
ATOM     38  N   UNL A   1     -16.425  -8.537   0.107  0.00  0.00    -0.251 NA
ATOM     39  C   UNL A   1     -16.442  -7.256  -0.285  0.00  0.00    +0.073 A 
ATOM     40  C   UNL A   1     -17.610  -6.772  -0.860  0.00  0.00    -0.036 A 
ATOM     41  C   UNL A   1     -17.726  -5.453  -1.304  0.00  0.00    -0.060 A 
ATOM     42  C   UNL A   1     -16.649  -4.591  -1.173  0.00  0.00    -0.061 A 
ATOM     43  C   UNL A   1     -15.466  -5.055  -0.598  0.00  0.00    -0.051 A 
ATOM     44  C   UNL A   1     -15.337  -6.394  -0.143  0.00  0.00    +0.021 A 
ATOM     45  C   UNL A   1     -15.375 -10.491   1.062  0.00  0.00    -0.010 C 
ATOM     46  C   UNL A   1     -14.323 -10.896   2.088  0.00  0.00    -0.047 C 
ATOM     47  C   UNL A   1     -12.955 -10.401   1.646  0.00  0.00    -0.049 C 
ATOM     48  C   UNL A   1     -12.938  -8.875   1.561  0.00  0.00    -0.024 C 
ENDBRANCH  33  35
ENDBRANCH  32  33
ENDBRANCH  31  32
ENDBRANCH  30  31
ENDBRANCH  28  30
ENDBRANCH  25  26
ENDBRANCH   1  25
TORSDOF 14
