REMARK  Name = cpd154.pdb
REMARK  13 active torsions:
REMARK  status: ('A' for Active; 'I' for Inactive)
REMARK    1  A    between atoms: C_2  and  C_3
REMARK    2  A    between atoms: C_3  and  S_4
REMARK    3  A    between atoms: S_4  and  C_5
REMARK    4  A    between atoms: C_5  and  C_6
REMARK    5  A    between atoms: C_6  and  N_7
REMARK    6  A    between atoms: C_6  and  C_31
REMARK    7  A    between atoms: C_8  and  C_10
REMARK    8  A    between atoms: C_10  and  C_11
REMARK    9  A    between atoms: C_11  and  C_12
REMARK   10  A    between atoms: C_12  and  C_13
REMARK   11  A    between atoms: C_13  and  C_14
REMARK   12  A    between atoms: C_14  and  N_15
REMARK   13  A    between atoms: N_15  and  C_16
REMARK                            x       y       z     vdW  Elec       q    Type
REMARK                         _______ _______ _______ _____ _____    ______ ____
ROOT
ATOM      1  N   UNL A   1      -3.030  -1.916   0.135  0.00  0.00    -0.303 N 
ATOM      2  C   UNL A   1      -4.127  -2.165  -0.645  0.00  0.00    +0.214 C 
ATOM      3  O   UNL A   1      -4.178  -2.977  -1.556  0.00  0.00    -0.276 OA
ATOM      4  H   UNL A   1      -3.162  -1.254   0.852  0.00  0.00    +0.000 HD
ENDROOT
BRANCH   1   5
ATOM      5  C   UNL A   1      -1.678  -2.499   0.054  0.00  0.00    +0.109 C 
BRANCH   5   6
ATOM      6  C   UNL A   1      -0.701  -1.300   0.202  0.00  0.00    +0.240 C 
ATOM      7  O   UNL A   1      -1.143  -0.156   0.314  0.00  0.00    -0.273 OA
ATOM      8  N   UNL A   1       0.626  -1.666   0.269  0.00  0.00    -0.263 N 
ATOM      9  C   UNL A   1       1.713  -0.828   0.280  0.00  0.00    +0.165 A 
ATOM     10  N   UNL A   1       2.928  -1.318   0.288  0.00  0.00    -0.225 NA
ATOM     11  C   UNL A   1       3.848  -0.283   0.224  0.00  0.00    +0.080 A 
ATOM     12  C   UNL A   1       5.250  -0.420   0.182  0.00  0.00    -0.035 A 
ATOM     13  C   UNL A   1       6.058   0.719   0.106  0.00  0.00    -0.060 A 
ATOM     14  C   UNL A   1       5.487   1.988   0.079  0.00  0.00    -0.061 A 
ATOM     15  C   UNL A   1       4.099   2.152   0.124  0.00  0.00    -0.046 A 
ATOM     16  C   UNL A   1       3.299   1.000   0.192  0.00  0.00    +0.041 A 
ATOM     17  S   UNL A   1       1.586   0.867   0.239  0.00  0.00    -0.052 S 
ATOM     18  H   UNL A   1       0.814  -2.631   0.314  0.00  0.00    +0.000 HD
ENDBRANCH   5   6
BRANCH   5  19
ATOM     19  C   UNL A   1      -1.327  -3.366  -1.172  0.00  0.00    +0.021 C 
BRANCH  19  20
ATOM     20  S   UNL A   1      -1.227  -5.152  -0.747  0.00  0.00    -0.154 S 
BRANCH  20  21
ATOM     21  C   UNL A   1      -2.997  -5.536  -0.623  0.00  0.00    +0.012 C 
BRANCH  21  23
ATOM     22  C   UNL A   1      -2.501  -7.923   0.222  0.00  0.00    -0.102 C 
ATOM     23  C   UNL A   1      -3.317  -6.934  -0.170  0.00  0.00    -0.081 C 
ENDBRANCH  21  23
ENDBRANCH  20  21
ENDBRANCH  19  20
ENDBRANCH   5  19
ENDBRANCH   1   5
BRANCH   2  24
ATOM     24  C   UNL A   1      -5.349  -1.377  -0.233  0.00  0.00    +0.024 C 
BRANCH  24  25
ATOM     25  C   UNL A   1      -5.971  -1.989   1.024  0.00  0.00    -0.045 C 
BRANCH  25  26
ATOM     26  C   UNL A   1      -7.286  -1.312   1.407  0.00  0.00    -0.051 C 
BRANCH  26  27
ATOM     27  C   UNL A   1      -8.446  -1.703   0.484  0.00  0.00    -0.037 C 
BRANCH  27  28
ATOM     28  C   UNL A   1      -9.574  -0.674   0.568  0.00  0.00    +0.009 C 
BRANCH  28  29
ATOM     29  N   UNL A   1     -10.526  -0.879  -0.524  0.00  0.00    -0.343 N 
ATOM     30  H   UNL A   1     -10.271  -1.324  -1.364  0.00  0.00    +0.000 HD
BRANCH  29  31
ATOM     31  C   UNL A   1     -11.842  -0.394  -0.294  0.00  0.00    +0.041 A 
ATOM     32  C   UNL A   1     -12.098   0.997  -0.252  0.00  0.00    -0.005 A 
ATOM     33  C   UNL A   1     -13.425   1.405  -0.089  0.00  0.00    +0.047 A 
ATOM     34  N   UNL A   1     -14.454   0.546   0.088  0.00  0.00    -0.251 NA
ATOM     35  C   UNL A   1     -14.215  -0.767   0.069  0.00  0.00    +0.074 A 
ATOM     36  C   UNL A   1     -15.310  -1.603   0.227  0.00  0.00    -0.017 A 
ATOM     37  C   UNL A   1     -15.172  -2.986   0.212  0.00  0.00    +0.043 A 
ATOM     38 CL   UNL A   1     -16.557  -3.989   0.397  0.00  0.00    -0.083 Cl
ATOM     39  C   UNL A   1     -13.921  -3.558   0.048  0.00  0.00    -0.043 A 
ATOM     40  C   UNL A   1     -12.807  -2.731  -0.107  0.00  0.00    -0.049 A 
ATOM     41  C   UNL A   1     -12.926  -1.314  -0.112  0.00  0.00    +0.022 A 
ATOM     42  C   UNL A   1     -13.813   2.861  -0.099  0.00  0.00    -0.010 C 
ATOM     43  C   UNL A   1     -12.845   3.707  -0.914  0.00  0.00    -0.047 C 
ATOM     44  C   UNL A   1     -11.439   3.489  -0.390  0.00  0.00    -0.049 C 
ATOM     45  C   UNL A   1     -11.017   2.024  -0.507  0.00  0.00    -0.024 C 
ENDBRANCH  29  31
ENDBRANCH  28  29
ENDBRANCH  27  28
ENDBRANCH  26  27
ENDBRANCH  25  26
ENDBRANCH  24  25
ENDBRANCH   2  24
TORSDOF 13
