MODEL 1
REMARK VINA RESULT:    -7.930      0.000      0.000
REMARK INTER + INTRA:         -11.636
REMARK INTER:                 -10.712
REMARK INTRA:                  -0.924
REMARK UNBOUND:                -0.924
REMARK  Name = cpd2.pdb
REMARK  8 active torsions:
REMARK  status: ('A' for Active; 'I' for Inactive)
REMARK    1  A    between atoms: C_1  and  O_2
REMARK    2  A    between atoms: O_2  and  C_3
REMARK    3  A    between atoms: C_8  and  O_9
REMARK    4  A    between atoms: O_9  and  C_10
REMARK    5  A    between atoms: C_13  and  C_14
REMARK    6  A    between atoms: C_14  and  C_15
REMARK    7  A    between atoms: N_18  and  C_19
REMARK    8  A    between atoms: C_19  and  C_20
REMARK                            x       y       z     vdW  Elec       q    Type
REMARK                         _______ _______ _______ _____ _____    ______ ____
ROOT
ATOM      1  C   UNL     1      41.190 -19.477 -37.146  0.00  0.00    -0.040 C 
ENDROOT
BRANCH   1  10
ATOM      2  C   UNL     1      39.866 -23.570 -32.866  0.00  0.00    +0.162 A 
ATOM      3  C   UNL     1      40.859 -22.665 -33.293  0.00  0.00    -0.012 A 
ATOM      4  C   UNL     1      40.588 -21.791 -34.329  0.00  0.00    -0.033 A 
ATOM      5  C   UNL     1      39.355 -21.845 -34.952  0.00  0.00    +0.025 A 
ATOM      6  C   UNL     1      38.355 -22.727 -34.581  0.00  0.00    -0.006 A 
ATOM      7  C   UNL     1      38.600 -23.596 -33.508  0.00  0.00    +0.162 A 
ATOM      8  C   UNL     1      39.325 -20.825 -35.990  0.00  0.00    +0.167 C 
ATOM      9  O   UNL     1      38.413 -20.723 -36.790  0.00  0.00    -0.292 OA
ATOM     10  C   UNL     1      40.541 -19.920 -35.830  0.00  0.00    +0.026 C 
ATOM     11  C   UNL     1      41.494 -20.784 -34.961  0.00  0.00    -0.017 C 
BRANCH   2  13
ATOM     12  C   UNL     1      41.603 -24.115 -31.293  0.00  0.00    +0.079 C 
ATOM     13  O   UNL     1      40.306 -24.345 -31.823  0.00  0.00    -0.491 OA
ENDBRANCH   2  13
BRANCH   7  14
ATOM     14  O   UNL     1      37.667 -24.503 -33.079  0.00  0.00    -0.491 OA
ATOM     15  C   UNL     1      37.221 -25.477 -34.017  0.00  0.00    +0.079 C 
ENDBRANCH   7  14
ENDBRANCH   1  10
BRANCH   1  16
ATOM     16  C   UNL     1      42.475 -20.262 -37.506  0.00  0.00    -0.038 C 
ATOM     17  C   UNL     1      43.649 -19.347 -37.861  0.00  0.00    -0.037 C 
ATOM     18  C   UNL     1      44.820 -20.128 -38.457  0.00  0.00    -0.001 C 
ATOM     19  N   UNL     1      44.476 -20.985 -39.599  0.00  0.00    -0.298 N 
ATOM     20  C   UNL     1      43.039 -21.020 -39.893  0.00  0.00    -0.001 C 
ATOM     21  C   UNL     1      42.209 -21.279 -38.634  0.00  0.00    -0.037 C 
ATOM     22  H   UNL     1      44.721 -21.936 -39.323  0.00  0.00    +0.000 HD
BRANCH  19  23
ATOM     23  C   UNL     1      45.271 -20.641 -40.788  0.00  0.00    +0.024 C 
BRANCH  23  24
ATOM     24  C   UNL     1      46.261 -21.720 -41.176  0.00  0.00    -0.033 A 
ATOM     25  C   UNL     1      47.404 -21.939 -40.392  0.00  0.00    -0.057 A 
ATOM     26  C   UNL     1      48.335 -22.913 -40.750  0.00  0.00    -0.061 A 
ATOM     27  C   UNL     1      48.130 -23.687 -41.891  0.00  0.00    -0.062 A 
ATOM     28  C   UNL     1      46.992 -23.488 -42.672  0.00  0.00    -0.061 A 
ATOM     29  C   UNL     1      46.062 -22.508 -42.318  0.00  0.00    -0.057 A 
ENDBRANCH  23  24
ENDBRANCH  19  23
ENDBRANCH   1  16
TORSDOF 6
ENDMDL
MODEL 2
REMARK VINA RESULT:    -7.875     15.096     18.445
REMARK INTER + INTRA:         -11.561
REMARK INTER:                 -10.779
REMARK INTRA:                  -0.782
REMARK UNBOUND:                -0.924
REMARK  Name = cpd2.pdb
REMARK  8 active torsions:
REMARK  status: ('A' for Active; 'I' for Inactive)
REMARK    1  A    between atoms: C_1  and  O_2
REMARK    2  A    between atoms: O_2  and  C_3
REMARK    3  A    between atoms: C_8  and  O_9
REMARK    4  A    between atoms: O_9  and  C_10
REMARK    5  A    between atoms: C_13  and  C_14
REMARK    6  A    between atoms: C_14  and  C_15
REMARK    7  A    between atoms: N_18  and  C_19
REMARK    8  A    between atoms: C_19  and  C_20
REMARK                            x       y       z     vdW  Elec       q    Type
REMARK                         _______ _______ _______ _____ _____    ______ ____
ROOT
ATOM      1  C   UNL     1      35.112 -37.647 -29.362  0.00  0.00    -0.040 C 
ENDROOT
BRANCH   1  10
ATOM      2  C   UNL     1      40.830 -36.842 -31.233  0.00  0.00    +0.162 A 
ATOM      3  C   UNL     1      39.492 -36.493 -31.510  0.00  0.00    -0.012 A 
ATOM      4  C   UNL     1      38.494 -36.852 -30.624  0.00  0.00    -0.033 A 
ATOM      5  C   UNL     1      38.823 -37.579 -29.496  0.00  0.00    +0.025 A 
ATOM      6  C   UNL     1      40.118 -37.960 -29.189  0.00  0.00    -0.006 A 
ATOM      7  C   UNL     1      41.148 -37.573 -30.059  0.00  0.00    +0.162 A 
ATOM      8  C   UNL     1      37.605 -37.816 -28.734  0.00  0.00    +0.167 C 
ATOM      9  O   UNL     1      37.566 -38.541 -27.758  0.00  0.00    -0.292 OA
ATOM     10  C   UNL     1      36.484 -36.963 -29.318  0.00  0.00    +0.026 C 
ATOM     11  C   UNL     1      37.021 -36.621 -30.734  0.00  0.00    -0.017 C 
BRANCH   2  13
ATOM     12  C   UNL     1      41.178 -36.203 -33.526  0.00  0.00    +0.079 C 
ATOM     13  O   UNL     1      41.680 -36.392 -32.212  0.00  0.00    -0.491 OA
ENDBRANCH   2  13
BRANCH   7  14
ATOM     14  O   UNL     1      42.456 -37.913 -29.833  0.00  0.00    -0.491 OA
ATOM     15  C   UNL     1      42.801 -39.291 -29.922  0.00  0.00    +0.079 C 
ENDBRANCH   7  14
ENDBRANCH   1  10
BRANCH   1  16
ATOM     16  C   UNL     1      33.922 -36.659 -29.422  0.00  0.00    -0.038 C 
ATOM     17  C   UNL     1      33.320 -36.540 -30.823  0.00  0.00    -0.037 C 
ATOM     18  C   UNL     1      32.326 -35.383 -30.920  0.00  0.00    -0.001 C 
ATOM     19  N   UNL     1      32.844 -34.083 -30.474  0.00  0.00    -0.298 N 
ATOM     20  C   UNL     1      34.196 -34.153 -29.910  0.00  0.00    -0.001 C 
ATOM     21  C   UNL     1      34.320 -35.273 -28.875  0.00  0.00    -0.037 C 
ATOM     22  H   UNL     1      32.242 -33.787 -29.705  0.00  0.00    +0.000 HD
BRANCH  19  23
ATOM     23  C   UNL     1      32.746 -33.071 -31.539  0.00  0.00    +0.024 C 
BRANCH  23  24
ATOM     24  C   UNL     1      31.543 -32.164 -31.389  0.00  0.00    -0.033 A 
ATOM     25  C   UNL     1      31.647 -30.976 -30.648  0.00  0.00    -0.057 A 
ATOM     26  C   UNL     1      30.542 -30.142 -30.482  0.00  0.00    -0.061 A 
ATOM     27  C   UNL     1      29.321 -30.482 -31.063  0.00  0.00    -0.062 A 
ATOM     28  C   UNL     1      29.207 -31.653 -31.811  0.00  0.00    -0.061 A 
ATOM     29  C   UNL     1      30.312 -32.491 -31.973  0.00  0.00    -0.057 A 
ENDBRANCH  23  24
ENDBRANCH  19  23
ENDBRANCH   1  16
TORSDOF 6
ENDMDL
MODEL 3
REMARK VINA RESULT:    -7.528     14.540     18.966
REMARK INTER + INTRA:         -11.093
REMARK INTER:                 -10.257
REMARK INTRA:                  -0.836
REMARK UNBOUND:                -0.924
REMARK  Name = cpd2.pdb
REMARK  8 active torsions:
REMARK  status: ('A' for Active; 'I' for Inactive)
REMARK    1  A    between atoms: C_1  and  O_2
REMARK    2  A    between atoms: O_2  and  C_3
REMARK    3  A    between atoms: C_8  and  O_9
REMARK    4  A    between atoms: O_9  and  C_10
REMARK    5  A    between atoms: C_13  and  C_14
REMARK    6  A    between atoms: C_14  and  C_15
REMARK    7  A    between atoms: N_18  and  C_19
REMARK    8  A    between atoms: C_19  and  C_20
REMARK                            x       y       z     vdW  Elec       q    Type
REMARK                         _______ _______ _______ _____ _____    ______ ____
ROOT
ATOM      1  C   UNL     1      35.175 -39.060 -28.601  0.00  0.00    -0.040 C 
ENDROOT
BRANCH   1  10
ATOM      2  C   UNL     1      39.974 -36.283 -31.068  0.00  0.00    +0.162 A 
ATOM      3  C   UNL     1      38.569 -36.228 -30.964  0.00  0.00    -0.012 A 
ATOM      4  C   UNL     1      37.914 -37.078 -30.093  0.00  0.00    -0.033 A 
ATOM      5  C   UNL     1      38.650 -37.994 -29.364  0.00  0.00    +0.025 A 
ATOM      6  C   UNL     1      40.027 -38.099 -29.445  0.00  0.00    -0.006 A 
ATOM      7  C   UNL     1      40.711 -37.219 -30.297  0.00  0.00    +0.162 A 
ATOM      8  C   UNL     1      37.731 -38.753 -28.527  0.00  0.00    +0.167 C 
ATOM      9  O   UNL     1      38.078 -39.718 -27.872  0.00  0.00    -0.292 OA
ATOM     10  C   UNL     1      36.360 -38.087 -28.570  0.00  0.00    +0.026 C 
ATOM     11  C   UNL     1      36.445 -37.216 -29.851  0.00  0.00    -0.017 C 
BRANCH   2  13
ATOM     12  C   UNL     1      40.432 -33.985 -31.615  0.00  0.00    +0.079 C 
ATOM     13  O   UNL     1      40.449 -35.360 -31.967  0.00  0.00    -0.491 OA
ENDBRANCH   2  13
BRANCH   7  14
ATOM     14  O   UNL     1      42.073 -37.259 -30.441  0.00  0.00    -0.491 OA
ATOM     15  C   UNL     1      42.671 -38.528 -30.682  0.00  0.00    +0.079 C 
ENDBRANCH   7  14
ENDBRANCH   1  10
BRANCH   1  16
ATOM     16  C   UNL     1      33.824 -38.412 -28.208  0.00  0.00    -0.038 C 
ATOM     17  C   UNL     1      33.011 -37.953 -29.420  0.00  0.00    -0.037 C 
ATOM     18  C   UNL     1      31.815 -37.094 -29.011  0.00  0.00    -0.001 C 
ATOM     19  N   UNL     1      32.139 -35.949 -28.149  0.00  0.00    -0.298 N 
ATOM     20  C   UNL     1      33.548 -35.902 -27.744  0.00  0.00    -0.001 C 
ATOM     21  C   UNL     1      34.031 -37.253 -27.212  0.00  0.00    -0.037 C 
ATOM     22  H   UNL     1      31.612 -36.087 -27.287  0.00  0.00    +0.000 HD
BRANCH  19  23
ATOM     23  C   UNL     1      31.698 -34.681 -28.751  0.00  0.00    +0.024 C 
BRANCH  23  24
ATOM     24  C   UNL     1      32.726 -34.076 -29.684  0.00  0.00    -0.033 A 
ATOM     25  C   UNL     1      33.680 -33.174 -29.188  0.00  0.00    -0.057 A 
ATOM     26  C   UNL     1      34.618 -32.591 -30.039  0.00  0.00    -0.061 A 
ATOM     27  C   UNL     1      34.618 -32.909 -31.397  0.00  0.00    -0.062 A 
ATOM     28  C   UNL     1      33.682 -33.812 -31.900  0.00  0.00    -0.061 A 
ATOM     29  C   UNL     1      32.739 -34.392 -31.049  0.00  0.00    -0.057 A 
ENDBRANCH  23  24
ENDBRANCH  19  23
ENDBRANCH   1  16
TORSDOF 6
ENDMDL
MODEL 4
REMARK VINA RESULT:    -7.483      1.450      2.619
REMARK INTER + INTRA:         -11.032
REMARK INTER:                 -10.285
REMARK INTRA:                  -0.747
REMARK UNBOUND:                -0.924
REMARK  Name = cpd2.pdb
REMARK  8 active torsions:
REMARK  status: ('A' for Active; 'I' for Inactive)
REMARK    1  A    between atoms: C_1  and  O_2
REMARK    2  A    between atoms: O_2  and  C_3
REMARK    3  A    between atoms: C_8  and  O_9
REMARK    4  A    between atoms: O_9  and  C_10
REMARK    5  A    between atoms: C_13  and  C_14
REMARK    6  A    between atoms: C_14  and  C_15
REMARK    7  A    between atoms: N_18  and  C_19
REMARK    8  A    between atoms: C_19  and  C_20
REMARK                            x       y       z     vdW  Elec       q    Type
REMARK                         _______ _______ _______ _____ _____    ______ ____
ROOT
ATOM      1  C   UNL     1      40.547 -20.063 -38.265  0.00  0.00    -0.040 C 
ENDROOT
BRANCH   1  10
ATOM      2  C   UNL     1      39.050 -23.589 -33.558  0.00  0.00    +0.162 A 
ATOM      3  C   UNL     1      38.728 -23.303 -34.901  0.00  0.00    -0.012 A 
ATOM      4  C   UNL     1      39.530 -22.445 -35.628  0.00  0.00    -0.033 A 
ATOM      5  C   UNL     1      40.617 -21.853 -35.011  0.00  0.00    +0.025 A 
ATOM      6  C   UNL     1      40.963 -22.088 -33.692  0.00  0.00    -0.006 A 
ATOM      7  C   UNL     1      40.181 -22.985 -32.950  0.00  0.00    +0.162 A 
ATOM      8  C   UNL     1      41.292 -21.011 -35.989  0.00  0.00    +0.167 C 
ATOM      9  O   UNL     1      42.208 -20.264 -35.698  0.00  0.00    -0.292 OA
ATOM     10  C   UNL     1      40.715 -21.297 -37.370  0.00  0.00    +0.026 C 
ATOM     11  C   UNL     1      39.360 -21.976 -37.037  0.00  0.00    -0.017 C 
BRANCH   2  13
ATOM     12  C   UNL     1      37.378 -25.294 -33.858  0.00  0.00    +0.079 C 
ATOM     13  O   UNL     1      38.154 -24.469 -33.002  0.00  0.00    -0.491 OA
ENDBRANCH   2  13
BRANCH   7  14
ATOM     14  O   UNL     1      40.450 -23.270 -31.638  0.00  0.00    -0.491 OA
ATOM     15  C   UNL     1      41.420 -24.278 -31.372  0.00  0.00    +0.079 C 
ENDBRANCH   7  14
ENDBRANCH   1  10
BRANCH   1  16
ATOM     16  C   UNL     1      41.764 -19.784 -39.180  0.00  0.00    -0.038 C 
ATOM     17  C   UNL     1      42.766 -20.939 -39.204  0.00  0.00    -0.037 C 
ATOM     18  C   UNL     1      44.071 -20.548 -39.898  0.00  0.00    -0.001 C 
ATOM     19  N   UNL     1      44.707 -19.330 -39.380  0.00  0.00    -0.298 N 
ATOM     20  C   UNL     1      43.912 -18.644 -38.356  0.00  0.00    -0.001 C 
ATOM     21  C   UNL     1      42.458 -18.461 -38.796  0.00  0.00    -0.037 C 
ATOM     22  H   UNL     1      44.758 -18.682 -40.166  0.00  0.00    +0.000 HD
BRANCH  19  23
ATOM     23  C   UNL     1      46.081 -19.594 -38.923  0.00  0.00    +0.024 C 
BRANCH  23  24
ATOM     24  C   UNL     1      46.868 -20.469 -39.876  0.00  0.00    -0.033 A 
ATOM     25  C   UNL     1      47.211 -21.779 -39.507  0.00  0.00    -0.057 A 
ATOM     26  C   UNL     1      47.956 -22.587 -40.365  0.00  0.00    -0.061 A 
ATOM     27  C   UNL     1      48.359 -22.098 -41.607  0.00  0.00    -0.062 A 
ATOM     28  C   UNL     1      48.016 -20.803 -41.990  0.00  0.00    -0.061 A 
ATOM     29  C   UNL     1      47.275 -19.990 -41.129  0.00  0.00    -0.057 A 
ENDBRANCH  23  24
ENDBRANCH  19  23
ENDBRANCH   1  16
TORSDOF 6
ENDMDL
MODEL 5
REMARK VINA RESULT:    -7.274      1.644      2.094
REMARK INTER + INTRA:         -10.750
REMARK INTER:                 -10.160
REMARK INTRA:                  -0.590
REMARK UNBOUND:                -0.924
REMARK  Name = cpd2.pdb
REMARK  8 active torsions:
REMARK  status: ('A' for Active; 'I' for Inactive)
REMARK    1  A    between atoms: C_1  and  O_2
REMARK    2  A    between atoms: O_2  and  C_3
REMARK    3  A    between atoms: C_8  and  O_9
REMARK    4  A    between atoms: O_9  and  C_10
REMARK    5  A    between atoms: C_13  and  C_14
REMARK    6  A    between atoms: C_14  and  C_15
REMARK    7  A    between atoms: N_18  and  C_19
REMARK    8  A    between atoms: C_19  and  C_20
REMARK                            x       y       z     vdW  Elec       q    Type
REMARK                         _______ _______ _______ _____ _____    ______ ____
ROOT
ATOM      1  C   UNL     1      40.088 -20.291 -39.357  0.00  0.00    -0.040 C 
ENDROOT
BRANCH   1  10
ATOM      2  C   UNL     1      38.955 -21.682 -33.559  0.00  0.00    +0.162 A 
ATOM      3  C   UNL     1      39.088 -20.601 -34.455  0.00  0.00    -0.012 A 
ATOM      4  C   UNL     1      39.216 -20.847 -35.808  0.00  0.00    -0.033 A 
ATOM      5  C   UNL     1      39.246 -22.155 -36.257  0.00  0.00    +0.025 A 
ATOM      6  C   UNL     1      39.136 -23.248 -35.416  0.00  0.00    -0.006 A 
ATOM      7  C   UNL     1      38.970 -23.016 -34.042  0.00  0.00    +0.162 A 
ATOM      8  C   UNL     1      39.376 -22.136 -37.707  0.00  0.00    +0.167 C 
ATOM      9  O   UNL     1      39.558 -23.142 -38.367  0.00  0.00    -0.292 OA
ATOM     10  C   UNL     1      39.168 -20.710 -38.203  0.00  0.00    +0.026 C 
ATOM     11  C   UNL     1      39.404 -19.867 -36.922  0.00  0.00    -0.017 C 
BRANCH   2  13
ATOM     12  C   UNL     1      38.921 -19.859 -31.989  0.00  0.00    +0.079 C 
ATOM     13  O   UNL     1      38.827 -21.248 -32.263  0.00  0.00    -0.491 OA
ENDBRANCH   2  13
BRANCH   7  14
ATOM     14  O   UNL     1      38.860 -24.041 -33.140  0.00  0.00    -0.491 OA
ATOM     15  C   UNL     1      37.800 -24.972 -33.332  0.00  0.00    +0.079 C 
ENDBRANCH   7  14
ENDBRANCH   1  10
BRANCH   1  16
ATOM     16  C   UNL     1      41.464 -20.999 -39.348  0.00  0.00    -0.038 C 
ATOM     17  C   UNL     1      42.630 -20.029 -39.145  0.00  0.00    -0.037 C 
ATOM     18  C   UNL     1      43.980 -20.700 -39.395  0.00  0.00    -0.001 C 
ATOM     19  N   UNL     1      44.103 -21.383 -40.690  0.00  0.00    -0.298 N 
ATOM     20  C   UNL     1      42.859 -21.390 -41.468  0.00  0.00    -0.001 C 
ATOM     21  C   UNL     1      41.666 -21.842 -40.624  0.00  0.00    -0.037 C 
ATOM     22  H   UNL     1      44.297 -22.361 -40.476  0.00  0.00    +0.000 HD
BRANCH  19  23
ATOM     23  C   UNL     1      45.235 -20.857 -41.469  0.00  0.00    +0.024 C 
BRANCH  23  24
ATOM     24  C   UNL     1      46.434 -21.783 -41.476  0.00  0.00    -0.033 A 
ATOM     25  C   UNL     1      47.492 -21.567 -40.580  0.00  0.00    -0.057 A 
ATOM     26  C   UNL     1      48.613 -22.396 -40.591  0.00  0.00    -0.061 A 
ATOM     27  C   UNL     1      48.684 -23.458 -41.492  0.00  0.00    -0.062 A 
ATOM     28  C   UNL     1      47.635 -23.690 -42.379  0.00  0.00    -0.061 A 
ATOM     29  C   UNL     1      46.515 -22.856 -42.373  0.00  0.00    -0.057 A 
ENDBRANCH  23  24
ENDBRANCH  19  23
ENDBRANCH   1  16
TORSDOF 6
ENDMDL
MODEL 6
REMARK VINA RESULT:    -7.057      2.135      3.913
REMARK INTER + INTRA:         -10.456
REMARK INTER:                  -9.669
REMARK INTRA:                  -0.786
REMARK UNBOUND:                -0.924
REMARK  Name = cpd2.pdb
REMARK  8 active torsions:
REMARK  status: ('A' for Active; 'I' for Inactive)
REMARK    1  A    between atoms: C_1  and  O_2
REMARK    2  A    between atoms: O_2  and  C_3
REMARK    3  A    between atoms: C_8  and  O_9
REMARK    4  A    between atoms: O_9  and  C_10
REMARK    5  A    between atoms: C_13  and  C_14
REMARK    6  A    between atoms: C_14  and  C_15
REMARK    7  A    between atoms: N_18  and  C_19
REMARK    8  A    between atoms: C_19  and  C_20
REMARK                            x       y       z     vdW  Elec       q    Type
REMARK                         _______ _______ _______ _____ _____    ______ ____
ROOT
ATOM      1  C   UNL     1      40.847 -20.184 -38.346  0.00  0.00    -0.040 C 
ENDROOT
BRANCH   1  10
ATOM      2  C   UNL     1      39.209 -23.447 -33.498  0.00  0.00    +0.162 A 
ATOM      3  C   UNL     1      38.927 -23.236 -34.863  0.00  0.00    -0.012 A 
ATOM      4  C   UNL     1      39.751 -22.418 -35.613  0.00  0.00    -0.033 A 
ATOM      5  C   UNL     1      40.819 -21.791 -34.998  0.00  0.00    +0.025 A 
ATOM      6  C   UNL     1      41.126 -21.953 -33.658  0.00  0.00    -0.006 A 
ATOM      7  C   UNL     1      40.321 -22.808 -32.891  0.00  0.00    +0.162 A 
ATOM      8  C   UNL     1      41.524 -21.004 -36.000  0.00  0.00    +0.167 C 
ATOM      9  O   UNL     1      42.431 -20.241 -35.723  0.00  0.00    -0.292 OA
ATOM     10  C   UNL     1      40.987 -21.367 -37.380  0.00  0.00    +0.026 C 
ATOM     11  C   UNL     1      39.623 -22.028 -37.050  0.00  0.00    -0.017 C 
BRANCH   2  13
ATOM     12  C   UNL     1      37.571 -25.192 -33.749  0.00  0.00    +0.079 C 
ATOM     13  O   UNL     1      38.296 -24.295 -32.921  0.00  0.00    -0.491 OA
ENDBRANCH   2  13
BRANCH   7  14
ATOM     14  O   UNL     1      40.552 -23.020 -31.557  0.00  0.00    -0.491 OA
ATOM     15  C   UNL     1      41.607 -23.909 -31.207  0.00  0.00    +0.079 C 
ENDBRANCH   7  14
ENDBRANCH   1  10
BRANCH   1  16
ATOM     16  C   UNL     1      42.043 -20.023 -39.316  0.00  0.00    -0.038 C 
ATOM     17  C   UNL     1      43.018 -21.201 -39.256  0.00  0.00    -0.037 C 
ATOM     18  C   UNL     1      44.310 -20.910 -40.019  0.00  0.00    -0.001 C 
ATOM     19  N   UNL     1      44.989 -19.665 -39.637  0.00  0.00    -0.298 N 
ATOM     20  C   UNL     1      44.239 -18.866 -38.662  0.00  0.00    -0.001 C 
ATOM     21  C   UNL     1      42.778 -18.688 -39.078  0.00  0.00    -0.037 C 
ATOM     22  H   UNL     1      45.031 -19.095 -40.482  0.00  0.00    +0.000 HD
BRANCH  19  23
ATOM     23  C   UNL     1      46.369 -19.919 -39.193  0.00  0.00    +0.024 C 
BRANCH  23  24
ATOM     24  C   UNL     1      46.589 -19.613 -37.727  0.00  0.00    -0.033 A 
ATOM     25  C   UNL     1      46.198 -20.541 -36.749  0.00  0.00    -0.057 A 
ATOM     26  C   UNL     1      46.373 -20.263 -35.394  0.00  0.00    -0.061 A 
ATOM     27  C   UNL     1      46.951 -19.056 -35.001  0.00  0.00    -0.062 A 
ATOM     28  C   UNL     1      47.354 -18.131 -35.962  0.00  0.00    -0.061 A 
ATOM     29  C   UNL     1      47.174 -18.406 -37.319  0.00  0.00    -0.057 A 
ENDBRANCH  23  24
ENDBRANCH  19  23
ENDBRANCH   1  16
TORSDOF 6
ENDMDL
MODEL 7
REMARK VINA RESULT:    -6.950     15.623     21.791
REMARK INTER + INTRA:         -10.312
REMARK INTER:                 -10.036
REMARK INTRA:                  -0.276
REMARK UNBOUND:                -0.924
REMARK  Name = cpd2.pdb
REMARK  8 active torsions:
REMARK  status: ('A' for Active; 'I' for Inactive)
REMARK    1  A    between atoms: C_1  and  O_2
REMARK    2  A    between atoms: O_2  and  C_3
REMARK    3  A    between atoms: C_8  and  O_9
REMARK    4  A    between atoms: O_9  and  C_10
REMARK    5  A    between atoms: C_13  and  C_14
REMARK    6  A    between atoms: C_14  and  C_15
REMARK    7  A    between atoms: N_18  and  C_19
REMARK    8  A    between atoms: C_19  and  C_20
REMARK                            x       y       z     vdW  Elec       q    Type
REMARK                         _______ _______ _______ _____ _____    ______ ____
ROOT
ATOM      1  C   UNL     1      35.084 -37.781 -29.071  0.00  0.00    -0.040 C 
ENDROOT
BRANCH   1  10
ATOM      2  C   UNL     1      40.761 -36.648 -30.893  0.00  0.00    +0.162 A 
ATOM      3  C   UNL     1      39.425 -36.223 -31.035  0.00  0.00    -0.012 A 
ATOM      4  C   UNL     1      38.445 -36.764 -30.225  0.00  0.00    -0.033 A 
ATOM      5  C   UNL     1      38.790 -37.742 -29.311  0.00  0.00    +0.025 A 
ATOM      6  C   UNL     1      40.084 -38.205 -29.146  0.00  0.00    -0.006 A 
ATOM      7  C   UNL     1      41.097 -37.641 -29.935  0.00  0.00    +0.162 A 
ATOM      8  C   UNL     1      37.589 -38.132 -28.586  0.00  0.00    +0.167 C 
ATOM      9  O   UNL     1      37.561 -39.066 -27.806  0.00  0.00    -0.292 OA
ATOM     10  C   UNL     1      36.472 -37.148 -28.915  0.00  0.00    +0.026 C 
ATOM     11  C   UNL     1      36.975 -36.491 -30.227  0.00  0.00    -0.017 C 
BRANCH   2  13
ATOM     12  C   UNL     1      41.125 -35.700 -33.074  0.00  0.00    +0.079 C 
ATOM     13  O   UNL     1      41.594 -35.995 -31.767  0.00  0.00    -0.491 OA
ENDBRANCH   2  13
BRANCH   7  14
ATOM     14  O   UNL     1      42.402 -38.045 -29.839  0.00  0.00    -0.491 OA
ATOM     15  C   UNL     1      42.921 -38.843 -30.898  0.00  0.00    +0.079 C 
ENDBRANCH   7  14
ENDBRANCH   1  10
BRANCH   1  16
ATOM     16  C   UNL     1      34.173 -37.604 -27.833  0.00  0.00    -0.038 C 
ATOM     17  C   UNL     1      34.894 -37.906 -26.517  0.00  0.00    -0.037 C 
ATOM     18  C   UNL     1      33.923 -37.977 -25.339  0.00  0.00    -0.001 C 
ATOM     19  N   UNL     1      32.791 -38.894 -25.523  0.00  0.00    -0.298 N 
ATOM     20  C   UNL     1      32.737 -39.497 -26.859  0.00  0.00    -0.001 C 
ATOM     21  C   UNL     1      32.887 -38.446 -27.961  0.00  0.00    -0.037 C 
ATOM     22  H   UNL     1      31.949 -38.323 -25.447  0.00  0.00    +0.000 HD
BRANCH  19  23
ATOM     23  C   UNL     1      32.743 -39.911 -24.460  0.00  0.00    +0.024 C 
BRANCH  23  24
ATOM     24  C   UNL     1      32.822 -39.321 -23.068  0.00  0.00    -0.033 A 
ATOM     25  C   UNL     1      31.779 -38.512 -22.588  0.00  0.00    -0.057 A 
ATOM     26  C   UNL     1      31.849 -37.943 -21.317  0.00  0.00    -0.061 A 
ATOM     27  C   UNL     1      32.957 -38.184 -20.506  0.00  0.00    -0.062 A 
ATOM     28  C   UNL     1      33.993 -38.995 -20.966  0.00  0.00    -0.061 A 
ATOM     29  C   UNL     1      33.928 -39.561 -22.241  0.00  0.00    -0.057 A 
ENDBRANCH  23  24
ENDBRANCH  19  23
ENDBRANCH   1  16
TORSDOF 6
ENDMDL
MODEL 8
REMARK VINA RESULT:    -6.917     30.394     34.194
REMARK INTER + INTRA:         -10.267
REMARK INTER:                  -9.416
REMARK INTRA:                  -0.851
REMARK UNBOUND:                -0.924
REMARK  Name = cpd2.pdb
REMARK  8 active torsions:
REMARK  status: ('A' for Active; 'I' for Inactive)
REMARK    1  A    between atoms: C_1  and  O_2
REMARK    2  A    between atoms: O_2  and  C_3
REMARK    3  A    between atoms: C_8  and  O_9
REMARK    4  A    between atoms: O_9  and  C_10
REMARK    5  A    between atoms: C_13  and  C_14
REMARK    6  A    between atoms: C_14  and  C_15
REMARK    7  A    between atoms: N_18  and  C_19
REMARK    8  A    between atoms: C_19  and  C_20
REMARK                            x       y       z     vdW  Elec       q    Type
REMARK                         _______ _______ _______ _____ _____    ______ ____
ROOT
ATOM      1  C   UNL     1      62.931 -18.784  -8.616  0.00  0.00    -0.040 C 
ENDROOT
BRANCH   1  10
ATOM      2  C   UNL     1      63.628 -24.125  -5.819  0.00  0.00    +0.162 A 
ATOM      3  C   UNL     1      63.497 -22.740  -5.590  0.00  0.00    -0.012 A 
ATOM      4  C   UNL     1      63.193 -21.898  -6.643  0.00  0.00    -0.033 A 
ATOM      5  C   UNL     1      63.058 -22.429  -7.913  0.00  0.00    +0.025 A 
ATOM      6  C   UNL     1      63.195 -23.777  -8.191  0.00  0.00    -0.006 A 
ATOM      7  C   UNL     1      63.468 -24.651  -7.128  0.00  0.00    +0.162 A 
ATOM      8  C   UNL     1      62.732 -21.343  -8.827  0.00  0.00    +0.167 C 
ATOM      9  O   UNL     1      62.681 -21.489 -10.035  0.00  0.00    -0.292 OA
ATOM     10  C   UNL     1      62.408 -20.095  -8.016  0.00  0.00    +0.026 C 
ATOM     11  C   UNL     1      63.045 -20.411  -6.637  0.00  0.00    -0.017 C 
BRANCH   2  13
ATOM     12  C   UNL     1      64.737 -24.178  -3.684  0.00  0.00    +0.079 C 
ATOM     13  O   UNL     1      63.916 -24.802  -4.660  0.00  0.00    -0.491 OA
ENDBRANCH   2  13
BRANCH   7  14
ATOM     14  O   UNL     1      63.623 -25.999  -7.316  0.00  0.00    -0.491 OA
ATOM     15  C   UNL     1      62.517 -26.837  -6.998  0.00  0.00    +0.079 C 
ENDBRANCH   7  14
ENDBRANCH   1  10
BRANCH   1  16
ATOM     16  C   UNL     1      61.832 -17.912  -9.269  0.00  0.00    -0.038 C 
ATOM     17  C   UNL     1      60.527 -17.905  -8.470  0.00  0.00    -0.037 C 
ATOM     18  C   UNL     1      59.384 -17.257  -9.251  0.00  0.00    -0.001 C 
ATOM     19  N   UNL     1      59.159 -17.810 -10.593  0.00  0.00    -0.298 N 
ATOM     20  C   UNL     1      60.151 -18.817 -10.986  0.00  0.00    -0.001 C 
ATOM     21  C   UNL     1      61.580 -18.334 -10.731  0.00  0.00    -0.037 C 
ATOM     22  H   UNL     1      59.286 -17.034 -11.243  0.00  0.00    +0.000 HD
BRANCH  19  23
ATOM     23  C   UNL     1      57.782 -18.307 -10.746  0.00  0.00    +0.024 C 
BRANCH  23  24
ATOM     24  C   UNL     1      57.488 -18.828 -12.137  0.00  0.00    -0.033 A 
ATOM     25  C   UNL     1      57.159 -20.180 -12.325  0.00  0.00    -0.057 A 
ATOM     26  C   UNL     1      56.909 -20.679 -13.603  0.00  0.00    -0.061 A 
ATOM     27  C   UNL     1      56.976 -19.830 -14.707  0.00  0.00    -0.062 A 
ATOM     28  C   UNL     1      57.291 -18.483 -14.533  0.00  0.00    -0.061 A 
ATOM     29  C   UNL     1      57.547 -17.984 -13.254  0.00  0.00    -0.057 A 
ENDBRANCH  23  24
ENDBRANCH  19  23
ENDBRANCH   1  16
TORSDOF 6
ENDMDL
MODEL 9
REMARK VINA RESULT:    -6.887      1.986      2.363
REMARK INTER + INTRA:         -10.226
REMARK INTER:                  -9.287
REMARK INTRA:                  -0.939
REMARK UNBOUND:                -0.924
REMARK  Name = cpd2.pdb
REMARK  8 active torsions:
REMARK  status: ('A' for Active; 'I' for Inactive)
REMARK    1  A    between atoms: C_1  and  O_2
REMARK    2  A    between atoms: O_2  and  C_3
REMARK    3  A    between atoms: C_8  and  O_9
REMARK    4  A    between atoms: O_9  and  C_10
REMARK    5  A    between atoms: C_13  and  C_14
REMARK    6  A    between atoms: C_14  and  C_15
REMARK    7  A    between atoms: N_18  and  C_19
REMARK    8  A    between atoms: C_19  and  C_20
REMARK                            x       y       z     vdW  Elec       q    Type
REMARK                         _______ _______ _______ _____ _____    ______ ____
ROOT
ATOM      1  C   UNL     1      43.366 -17.904 -35.346  0.00  0.00    -0.040 C 
ENDROOT
BRANCH   1  10
ATOM      2  C   UNL     1      40.367 -22.172 -32.244  0.00  0.00    +0.162 A 
ATOM      3  C   UNL     1      41.658 -21.681 -32.527  0.00  0.00    -0.012 A 
ATOM      4  C   UNL     1      41.801 -20.501 -33.233  0.00  0.00    -0.033 A 
ATOM      5  C   UNL     1      40.671 -19.841 -33.680  0.00  0.00    +0.025 A 
ATOM      6  C   UNL     1      39.384 -20.293 -33.443  0.00  0.00    -0.006 A 
ATOM      7  C   UNL     1      39.220 -21.469 -32.696  0.00  0.00    +0.162 A 
ATOM      8  C   UNL     1      41.094 -18.636 -34.379  0.00  0.00    +0.167 C 
ATOM      9  O   UNL     1      40.322 -17.923 -34.993  0.00  0.00    -0.292 OA
ATOM     10  C   UNL     1      42.582 -18.419 -34.133  0.00  0.00    +0.026 C 
ATOM     11  C   UNL     1      43.058 -19.822 -33.672  0.00  0.00    -0.017 C 
BRANCH   2  13
ATOM     12  C   UNL     1      41.684 -23.844 -31.121  0.00  0.00    +0.079 C 
ATOM     13  O   UNL     1      40.419 -23.340 -31.526  0.00  0.00    -0.491 OA
ENDBRANCH   2  13
BRANCH   7  14
ATOM     14  O   UNL     1      37.982 -21.988 -32.420  0.00  0.00    -0.491 OA
ATOM     15  C   UNL     1      36.851 -21.172 -32.707  0.00  0.00    +0.079 C 
ENDBRANCH   7  14
ENDBRANCH   1  10
BRANCH   1  16
ATOM     16  C   UNL     1      44.182 -19.000 -36.075  0.00  0.00    -0.038 C 
ATOM     17  C   UNL     1      45.572 -18.522 -36.498  0.00  0.00    -0.037 C 
ATOM     18  C   UNL     1      46.258 -19.519 -37.431  0.00  0.00    -0.001 C 
ATOM     19  N   UNL     1      45.471 -19.908 -38.609  0.00  0.00    -0.298 N 
ATOM     20  C   UNL     1      44.115 -19.349 -38.617  0.00  0.00    -0.001 C 
ATOM     21  C   UNL     1      43.404 -19.566 -37.280  0.00  0.00    -0.037 C 
ATOM     22  H   UNL     1      45.349 -20.919 -38.546  0.00  0.00    +0.000 HD
BRANCH  19  23
ATOM     23  C   UNL     1      46.193 -19.617 -39.858  0.00  0.00    +0.024 C 
BRANCH  23  24
ATOM     24  C   UNL     1      46.275 -20.808 -40.789  0.00  0.00    -0.033 A 
ATOM     25  C   UNL     1      47.340 -21.716 -40.676  0.00  0.00    -0.057 A 
ATOM     26  C   UNL     1      47.441 -22.804 -41.542  0.00  0.00    -0.061 A 
ATOM     27  C   UNL     1      46.474 -23.003 -42.526  0.00  0.00    -0.062 A 
ATOM     28  C   UNL     1      45.405 -22.115 -42.642  0.00  0.00    -0.061 A 
ATOM     29  C   UNL     1      45.305 -21.022 -41.779  0.00  0.00    -0.057 A 
ENDBRANCH  23  24
ENDBRANCH  19  23
ENDBRANCH   1  16
TORSDOF 6
ENDMDL
MODEL 10
REMARK VINA RESULT:    -6.857      2.540      3.947
REMARK INTER + INTRA:         -10.186
REMARK INTER:                  -9.519
REMARK INTRA:                  -0.668
REMARK UNBOUND:                -0.924
REMARK  Name = cpd2.pdb
REMARK  8 active torsions:
REMARK  status: ('A' for Active; 'I' for Inactive)
REMARK    1  A    between atoms: C_1  and  O_2
REMARK    2  A    between atoms: O_2  and  C_3
REMARK    3  A    between atoms: C_8  and  O_9
REMARK    4  A    between atoms: O_9  and  C_10
REMARK    5  A    between atoms: C_13  and  C_14
REMARK    6  A    between atoms: C_14  and  C_15
REMARK    7  A    between atoms: N_18  and  C_19
REMARK    8  A    between atoms: C_19  and  C_20
REMARK                            x       y       z     vdW  Elec       q    Type
REMARK                         _______ _______ _______ _____ _____    ______ ____
ROOT
ATOM      1  C   UNL     1      45.663 -17.944 -35.673  0.00  0.00    -0.040 C 
ENDROOT
BRANCH   1  10
ATOM      2  C   UNL     1      40.498 -21.091 -35.178  0.00  0.00    +0.162 A 
ATOM      3  C   UNL     1      41.393 -20.532 -36.113  0.00  0.00    -0.012 A 
ATOM      4  C   UNL     1      42.592 -19.999 -35.678  0.00  0.00    -0.033 A 
ATOM      5  C   UNL     1      42.874 -19.992 -34.324  0.00  0.00    +0.025 A 
ATOM      6  C   UNL     1      42.021 -20.512 -33.367  0.00  0.00    -0.006 A 
ATOM      7  C   UNL     1      40.816 -21.090 -33.795  0.00  0.00    +0.162 A 
ATOM      8  C   UNL     1      44.187 -19.390 -34.137  0.00  0.00    +0.167 C 
ATOM      9  O   UNL     1      44.645 -19.133 -33.039  0.00  0.00    -0.292 OA
ATOM     10  C   UNL     1      44.859 -19.238 -35.496  0.00  0.00    +0.026 C 
ATOM     11  C   UNL     1      43.662 -19.330 -36.479  0.00  0.00    -0.017 C 
BRANCH   2  13
ATOM     12  C   UNL     1      39.312 -22.963 -36.116  0.00  0.00    +0.079 C 
ATOM     13  O   UNL     1      39.372 -21.582 -35.791  0.00  0.00    -0.491 OA
ENDBRANCH   2  13
BRANCH   7  14
ATOM     14  O   UNL     1      39.912 -21.623 -32.914  0.00  0.00    -0.491 OA
ATOM     15  C   UNL     1      38.944 -20.741 -32.355  0.00  0.00    +0.079 C 
ENDBRANCH   7  14
ENDBRANCH   1  10
BRANCH   1  16
ATOM     16  C   UNL     1      46.672 -17.990 -36.846  0.00  0.00    -0.038 C 
ATOM     17  C   UNL     1      46.251 -17.113 -38.027  0.00  0.00    -0.037 C 
ATOM     18  C   UNL     1      47.115 -17.367 -39.262  0.00  0.00    -0.001 C 
ATOM     19  N   UNL     1      47.204 -18.773 -39.677  0.00  0.00    -0.298 N 
ATOM     20  C   UNL     1      46.533 -19.698 -38.757  0.00  0.00    -0.001 C 
ATOM     21  C   UNL     1      46.930 -19.440 -37.303  0.00  0.00    -0.037 C 
ATOM     22  H   UNL     1      48.193 -19.018 -39.635  0.00  0.00    +0.000 HD
BRANCH  19  23
ATOM     23  C   UNL     1      46.751 -18.954 -41.065  0.00  0.00    +0.024 C 
BRANCH  23  24
ATOM     24  C   UNL     1      46.821 -20.393 -41.532  0.00  0.00    -0.033 A 
ATOM     25  C   UNL     1      48.042 -21.085 -41.493  0.00  0.00    -0.057 A 
ATOM     26  C   UNL     1      48.126 -22.403 -41.941  0.00  0.00    -0.061 A 
ATOM     27  C   UNL     1      46.988 -23.048 -42.424  0.00  0.00    -0.062 A 
ATOM     28  C   UNL     1      45.768 -22.376 -42.457  0.00  0.00    -0.061 A 
ATOM     29  C   UNL     1      45.683 -21.054 -42.014  0.00  0.00    -0.057 A 
ENDBRANCH  23  24
ENDBRANCH  19  23
ENDBRANCH   1  16
TORSDOF 6
ENDMDL
MODEL 11
REMARK VINA RESULT:    -6.839     20.851     25.547
REMARK INTER + INTRA:         -10.161
REMARK INTER:                  -9.484
REMARK INTRA:                  -0.677
REMARK UNBOUND:                -0.924
REMARK  Name = cpd2.pdb
REMARK  8 active torsions:
REMARK  status: ('A' for Active; 'I' for Inactive)
REMARK    1  A    between atoms: C_1  and  O_2
REMARK    2  A    between atoms: O_2  and  C_3
REMARK    3  A    between atoms: C_8  and  O_9
REMARK    4  A    between atoms: O_9  and  C_10
REMARK    5  A    between atoms: C_13  and  C_14
REMARK    6  A    between atoms: C_14  and  C_15
REMARK    7  A    between atoms: N_18  and  C_19
REMARK    8  A    between atoms: C_19  and  C_20
REMARK                            x       y       z     vdW  Elec       q    Type
REMARK                         _______ _______ _______ _____ _____    ______ ____
ROOT
ATOM      1  C   UNL     1      55.514 -32.853 -54.337  0.00  0.00    -0.040 C 
ENDROOT
BRANCH   1  10
ATOM      2  C   UNL     1      60.284 -29.532 -56.081  0.00  0.00    +0.162 A 
ATOM      3  C   UNL     1      59.667 -30.790 -56.238  0.00  0.00    -0.012 A 
ATOM      4  C   UNL     1      58.418 -31.012 -55.691  0.00  0.00    -0.033 A 
ATOM      5  C   UNL     1      57.810 -30.003 -54.966  0.00  0.00    +0.025 A 
ATOM      6  C   UNL     1      58.383 -28.759 -54.769  0.00  0.00    -0.006 A 
ATOM      7  C   UNL     1      59.635 -28.504 -55.348  0.00  0.00    +0.162 A 
ATOM      8  C   UNL     1      56.513 -30.486 -54.513  0.00  0.00    +0.167 C 
ATOM      9  O   UNL     1      55.808 -29.861 -53.742  0.00  0.00    -0.292 OA
ATOM     10  C   UNL     1      56.203 -31.803 -55.215  0.00  0.00    +0.026 C 
ATOM     11  C   UNL     1      57.602 -32.264 -55.704  0.00  0.00    -0.017 C 
BRANCH   2  13
ATOM     12  C   UNL     1      61.789 -30.424 -57.732  0.00  0.00    +0.079 C 
ATOM     13  O   UNL     1      61.508 -29.491 -56.700  0.00  0.00    -0.491 OA
ENDBRANCH   2  13
BRANCH   7  14
ATOM     14  O   UNL     1      60.274 -27.302 -55.198  0.00  0.00    -0.491 OA
ATOM     15  C   UNL     1      59.948 -26.525 -54.051  0.00  0.00    +0.079 C 
ENDBRANCH   7  14
ENDBRANCH   1  10
BRANCH   1  16
ATOM     16  C   UNL     1      56.382 -33.348 -53.154  0.00  0.00    -0.038 C 
ATOM     17  C   UNL     1      56.390 -34.872 -53.020  0.00  0.00    -0.037 C 
ATOM     18  C   UNL     1      57.034 -35.325 -51.710  0.00  0.00    -0.001 C 
ATOM     19  N   UNL     1      56.476 -34.708 -50.499  0.00  0.00    -0.298 N 
ATOM     20  C   UNL     1      55.469 -33.678 -50.778  0.00  0.00    -0.001 C 
ATOM     21  C   UNL     1      55.955 -32.681 -51.831  0.00  0.00    -0.037 C 
ATOM     22  H   UNL     1      57.250 -34.218 -50.050  0.00  0.00    +0.000 HD
BRANCH  19  23
ATOM     23  C   UNL     1      55.976 -35.724 -49.559  0.00  0.00    +0.024 C 
BRANCH  23  24
ATOM     24  C   UNL     1      55.633 -35.157 -48.197  0.00  0.00    -0.033 A 
ATOM     25  C   UNL     1      56.351 -34.062 -47.691  0.00  0.00    -0.057 A 
ATOM     26  C   UNL     1      56.061 -33.545 -46.429  0.00  0.00    -0.061 A 
ATOM     27  C   UNL     1      55.043 -34.110 -45.661  0.00  0.00    -0.062 A 
ATOM     28  C   UNL     1      54.316 -35.191 -46.157  0.00  0.00    -0.061 A 
ATOM     29  C   UNL     1      54.609 -35.714 -47.419  0.00  0.00    -0.057 A 
ENDBRANCH  23  24
ENDBRANCH  19  23
ENDBRANCH   1  16
TORSDOF 6
ENDMDL
MODEL 12
REMARK VINA RESULT:    -6.823     14.998     16.804
REMARK INTER + INTRA:         -10.141
REMARK INTER:                  -9.663
REMARK INTRA:                  -0.478
REMARK UNBOUND:                -0.924
REMARK  Name = cpd2.pdb
REMARK  8 active torsions:
REMARK  status: ('A' for Active; 'I' for Inactive)
REMARK    1  A    between atoms: C_1  and  O_2
REMARK    2  A    between atoms: O_2  and  C_3
REMARK    3  A    between atoms: C_8  and  O_9
REMARK    4  A    between atoms: O_9  and  C_10
REMARK    5  A    between atoms: C_13  and  C_14
REMARK    6  A    between atoms: C_14  and  C_15
REMARK    7  A    between atoms: N_18  and  C_19
REMARK    8  A    between atoms: C_19  and  C_20
REMARK                            x       y       z     vdW  Elec       q    Type
REMARK                         _______ _______ _______ _____ _____    ______ ____
ROOT
ATOM      1  C   UNL     1      32.725 -33.931 -30.065  0.00  0.00    -0.040 C 
ENDROOT
BRANCH   1  10
ATOM      2  C   UNL     1      28.129 -30.598 -27.921  0.00  0.00    +0.162 A 
ATOM      3  C   UNL     1      28.703 -31.886 -27.884  0.00  0.00    -0.012 A 
ATOM      4  C   UNL     1      29.928 -32.106 -28.483  0.00  0.00    -0.033 A 
ATOM      5  C   UNL     1      30.554 -31.063 -29.141  0.00  0.00    +0.025 A 
ATOM      6  C   UNL     1      30.023 -29.787 -29.220  0.00  0.00    -0.006 A 
ATOM      7  C   UNL     1      28.797 -29.537 -28.586  0.00  0.00    +0.162 A 
ATOM      8  C   UNL     1      31.820 -31.553 -29.669  0.00  0.00    +0.167 C 
ATOM      9  O   UNL     1      32.528 -30.891 -30.407  0.00  0.00    -0.292 OA
ATOM     10  C   UNL     1      32.098 -32.932 -29.085  0.00  0.00    +0.026 C 
ATOM     11  C   UNL     1      30.697 -33.383 -28.595  0.00  0.00    -0.017 C 
BRANCH   2  13
ATOM     12  C   UNL     1      26.578 -31.640 -26.404  0.00  0.00    +0.079 C 
ATOM     13  O   UNL     1      26.923 -30.565 -27.265  0.00  0.00    -0.491 OA
ENDBRANCH   2  13
BRANCH   7  14
ATOM     14  O   UNL     1      28.199 -28.305 -28.620  0.00  0.00    -0.491 OA
ATOM     15  C   UNL     1      28.524 -27.449 -29.710  0.00  0.00    +0.079 C 
ENDBRANCH   7  14
ENDBRANCH   1  10
BRANCH   1  16
ATOM     16  C   UNL     1      34.250 -34.121 -29.875  0.00  0.00    -0.038 C 
ATOM     17  C   UNL     1      35.007 -34.211 -31.202  0.00  0.00    -0.037 C 
ATOM     18  C   UNL     1      36.457 -34.652 -31.001  0.00  0.00    -0.001 C 
ATOM     19  N   UNL     1      36.627 -35.891 -30.231  0.00  0.00    -0.298 N 
ATOM     20  C   UNL     1      35.370 -36.425 -29.695  0.00  0.00    -0.001 C 
ATOM     21  C   UNL     1      34.552 -35.344 -28.985  0.00  0.00    -0.037 C 
ATOM     22  H   UNL     1      37.187 -35.642 -29.416  0.00  0.00    +0.000 HD
BRANCH  19  23
ATOM     23  C   UNL     1      37.370 -36.904 -30.998  0.00  0.00    +0.024 C 
BRANCH  23  24
ATOM     24  C   UNL     1      38.848 -36.595 -31.116  0.00  0.00    -0.033 A 
ATOM     25  C   UNL     1      39.742 -37.054 -30.136  0.00  0.00    -0.057 A 
ATOM     26  C   UNL     1      41.101 -36.758 -30.220  0.00  0.00    -0.061 A 
ATOM     27  C   UNL     1      41.585 -36.006 -31.290  0.00  0.00    -0.062 A 
ATOM     28  C   UNL     1      40.709 -35.554 -32.276  0.00  0.00    -0.061 A 
ATOM     29  C   UNL     1      39.347 -35.845 -32.190  0.00  0.00    -0.057 A 
ENDBRANCH  23  24
ENDBRANCH  19  23
ENDBRANCH   1  16
TORSDOF 6
ENDMDL
MODEL 13
REMARK VINA RESULT:    -6.761      2.393      3.612
REMARK INTER + INTRA:         -10.057
REMARK INTER:                  -9.281
REMARK INTRA:                  -0.776
REMARK UNBOUND:                -0.924
REMARK  Name = cpd2.pdb
REMARK  8 active torsions:
REMARK  status: ('A' for Active; 'I' for Inactive)
REMARK    1  A    between atoms: C_1  and  O_2
REMARK    2  A    between atoms: O_2  and  C_3
REMARK    3  A    between atoms: C_8  and  O_9
REMARK    4  A    between atoms: O_9  and  C_10
REMARK    5  A    between atoms: C_13  and  C_14
REMARK    6  A    between atoms: C_14  and  C_15
REMARK    7  A    between atoms: N_18  and  C_19
REMARK    8  A    between atoms: C_19  and  C_20
REMARK                            x       y       z     vdW  Elec       q    Type
REMARK                         _______ _______ _______ _____ _____    ______ ____
ROOT
ATOM      1  C   UNL     1      41.396 -21.970 -39.643  0.00  0.00    -0.040 C 
ENDROOT
BRANCH   1  10
ATOM      2  C   UNL     1      37.947 -19.300 -35.423  0.00  0.00    +0.162 A 
ATOM      3  C   UNL     1      38.355 -19.210 -36.769  0.00  0.00    -0.012 A 
ATOM      4  C   UNL     1      39.096 -20.233 -37.330  0.00  0.00    -0.033 A 
ATOM      5  C   UNL     1      39.456 -21.313 -36.545  0.00  0.00    +0.025 A 
ATOM      6  C   UNL     1      39.096 -21.439 -35.215  0.00  0.00    -0.006 A 
ATOM      7  C   UNL     1      38.312 -20.427 -34.640  0.00  0.00    +0.162 A 
ATOM      8  C   UNL     1      40.216 -22.242 -37.370  0.00  0.00    +0.167 C 
ATOM      9  O   UNL     1      40.774 -23.223 -36.916  0.00  0.00    -0.292 OA
ATOM     10  C   UNL     1      40.107 -21.811 -38.827  0.00  0.00    +0.026 C 
ATOM     11  C   UNL     1      39.660 -20.329 -38.711  0.00  0.00    -0.017 C 
BRANCH   2  13
ATOM     12  C   UNL     1      36.086 -17.830 -35.824  0.00  0.00    +0.079 C 
ATOM     13  O   UNL     1      37.211 -18.205 -35.045  0.00  0.00    -0.491 OA
ENDBRANCH   2  13
BRANCH   7  14
ATOM     14  O   UNL     1      37.916 -20.470 -33.329  0.00  0.00    -0.491 OA
ATOM     15  C   UNL     1      36.871 -21.375 -32.990  0.00  0.00    +0.079 C 
ENDBRANCH   7  14
ENDBRANCH   1  10
BRANCH   1  16
ATOM     16  C   UNL     1      42.359 -20.763 -39.533  0.00  0.00    -0.038 C 
ATOM     17  C   UNL     1      43.030 -20.417 -40.864  0.00  0.00    -0.037 C 
ATOM     18  C   UNL     1      44.158 -19.400 -40.686  0.00  0.00    -0.001 C 
ATOM     19  N   UNL     1      45.168 -19.765 -39.684  0.00  0.00    -0.298 N 
ATOM     20  C   UNL     1      44.849 -20.995 -38.951  0.00  0.00    -0.001 C 
ATOM     21  C   UNL     1      43.411 -20.986 -38.428  0.00  0.00    -0.037 C 
ATOM     22  H   UNL     1      45.155 -19.021 -38.986  0.00  0.00    +0.000 HD
BRANCH  19  23
ATOM     23  C   UNL     1      46.517 -19.810 -40.271  0.00  0.00    +0.024 C 
BRANCH  23  24
ATOM     24  C   UNL     1      46.852 -21.150 -40.891  0.00  0.00    -0.033 A 
ATOM     25  C   UNL     1      47.848 -21.958 -40.321  0.00  0.00    -0.057 A 
ATOM     26  C   UNL     1      48.183 -23.184 -40.896  0.00  0.00    -0.061 A 
ATOM     27  C   UNL     1      47.520 -23.621 -42.041  0.00  0.00    -0.062 A 
ATOM     28  C   UNL     1      46.520 -22.832 -42.611  0.00  0.00    -0.061 A 
ATOM     29  C   UNL     1      46.188 -21.602 -42.040  0.00  0.00    -0.057 A 
ENDBRANCH  23  24
ENDBRANCH  19  23
ENDBRANCH   1  16
TORSDOF 6
ENDMDL
MODEL 14
REMARK VINA RESULT:    -6.740      3.545      9.429
REMARK INTER + INTRA:         -10.028
REMARK INTER:                  -9.328
REMARK INTRA:                  -0.700
REMARK UNBOUND:                -0.924
REMARK  Name = cpd2.pdb
REMARK  8 active torsions:
REMARK  status: ('A' for Active; 'I' for Inactive)
REMARK    1  A    between atoms: C_1  and  O_2
REMARK    2  A    between atoms: O_2  and  C_3
REMARK    3  A    between atoms: C_8  and  O_9
REMARK    4  A    between atoms: O_9  and  C_10
REMARK    5  A    between atoms: C_13  and  C_14
REMARK    6  A    between atoms: C_14  and  C_15
REMARK    7  A    between atoms: N_18  and  C_19
REMARK    8  A    between atoms: C_19  and  C_20
REMARK                            x       y       z     vdW  Elec       q    Type
REMARK                         _______ _______ _______ _____ _____    ______ ____
ROOT
ATOM      1  C   UNL     1      40.384 -20.732 -38.285  0.00  0.00    -0.040 C 
ENDROOT
BRANCH   1  10
ATOM      2  C   UNL     1      45.862 -20.745 -40.896  0.00  0.00    +0.162 A 
ATOM      3  C   UNL     1      44.814 -21.586 -40.469  0.00  0.00    -0.012 A 
ATOM      4  C   UNL     1      43.626 -21.030 -40.034  0.00  0.00    -0.033 A 
ATOM      5  C   UNL     1      43.501 -19.653 -39.993  0.00  0.00    +0.025 A 
ATOM      6  C   UNL     1      44.506 -18.787 -40.384  0.00  0.00    -0.006 A 
ATOM      7  C   UNL     1      45.706 -19.335 -40.862  0.00  0.00    +0.162 A 
ATOM      8  C   UNL     1      42.164 -19.332 -39.512  0.00  0.00    +0.167 C 
ATOM      9  O   UNL     1      41.811 -18.197 -39.249  0.00  0.00    -0.292 OA
ATOM     10  C   UNL     1      41.329 -20.607 -39.487  0.00  0.00    +0.026 C 
ATOM     11  C   UNL     1      42.409 -21.721 -39.509  0.00  0.00    -0.017 C 
BRANCH   2  13
ATOM     12  C   UNL     1      47.576 -22.355 -40.385  0.00  0.00    +0.079 C 
ATOM     13  O   UNL     1      46.954 -21.470 -41.304  0.00  0.00    -0.491 OA
ENDBRANCH   2  13
BRANCH   7  14
ATOM     14  O   UNL     1      46.754 -18.549 -41.264  0.00  0.00    -0.491 OA
ATOM     15  C   UNL     1      47.058 -17.406 -40.472  0.00  0.00    +0.079 C 
ENDBRANCH   7  14
ENDBRANCH   1  10
BRANCH   1  16
ATOM     16  C   UNL     1      40.967 -21.558 -37.113  0.00  0.00    -0.038 C 
ATOM     17  C   UNL     1      39.894 -22.310 -36.325  0.00  0.00    -0.037 C 
ATOM     18  C   UNL     1      40.449 -22.906 -35.031  0.00  0.00    -0.001 C 
ATOM     19  N   UNL     1      41.149 -21.952 -34.160  0.00  0.00    -0.298 N 
ATOM     20  C   UNL     1      41.284 -20.614 -34.746  0.00  0.00    -0.001 C 
ATOM     21  C   UNL     1      41.819 -20.675 -36.179  0.00  0.00    -0.037 C 
ATOM     22  H   UNL     1      42.101 -22.305 -34.062  0.00  0.00    +0.000 HD
BRANCH  19  23
ATOM     23  C   UNL     1      40.544 -21.905 -32.819  0.00  0.00    +0.024 C 
BRANCH  23  24
ATOM     24  C   UNL     1      39.208 -21.192 -32.793  0.00  0.00    -0.033 A 
ATOM     25  C   UNL     1      38.022 -21.918 -32.980  0.00  0.00    -0.057 A 
ATOM     26  C   UNL     1      36.786 -21.272 -32.982  0.00  0.00    -0.061 A 
ATOM     27  C   UNL     1      36.722 -19.893 -32.786  0.00  0.00    -0.062 A 
ATOM     28  C   UNL     1      37.892 -19.162 -32.588  0.00  0.00    -0.061 A 
ATOM     29  C   UNL     1      39.131 -19.808 -32.592  0.00  0.00    -0.057 A 
ENDBRANCH  23  24
ENDBRANCH  19  23
ENDBRANCH   1  16
TORSDOF 6
ENDMDL
MODEL 15
REMARK VINA RESULT:    -6.630     15.304     16.901
REMARK INTER + INTRA:          -9.879
REMARK INTER:                  -9.014
REMARK INTRA:                  -0.866
REMARK UNBOUND:                -0.924
REMARK  Name = cpd2.pdb
REMARK  8 active torsions:
REMARK  status: ('A' for Active; 'I' for Inactive)
REMARK    1  A    between atoms: C_1  and  O_2
REMARK    2  A    between atoms: O_2  and  C_3
REMARK    3  A    between atoms: C_8  and  O_9
REMARK    4  A    between atoms: O_9  and  C_10
REMARK    5  A    between atoms: C_13  and  C_14
REMARK    6  A    between atoms: C_14  and  C_15
REMARK    7  A    between atoms: N_18  and  C_19
REMARK    8  A    between atoms: C_19  and  C_20
REMARK                            x       y       z     vdW  Elec       q    Type
REMARK                         _______ _______ _______ _____ _____    ______ ____
ROOT
ATOM      1  C   UNL     1      32.000 -32.810 -29.360  0.00  0.00    -0.040 C 
ENDROOT
BRANCH   1  10
ATOM      2  C   UNL     1      27.965 -30.612 -33.325  0.00  0.00    +0.162 A 
ATOM      3  C   UNL     1      28.894 -30.234 -32.335  0.00  0.00    -0.012 A 
ATOM      4  C   UNL     1      29.733 -31.185 -31.786  0.00  0.00    -0.033 A 
ATOM      5  C   UNL     1      29.619 -32.501 -32.195  0.00  0.00    +0.025 A 
ATOM      6  C   UNL     1      28.712 -32.924 -33.150  0.00  0.00    -0.006 A 
ATOM      7  C   UNL     1      27.877 -31.966 -33.744  0.00  0.00    +0.162 A 
ATOM      8  C   UNL     1      30.613 -33.288 -31.477  0.00  0.00    +0.167 C 
ATOM      9  O   UNL     1      30.662 -34.503 -31.537  0.00  0.00    -0.292 OA
ATOM     10  C   UNL     1      31.564 -32.342 -30.754  0.00  0.00    +0.026 C 
ATOM     11  C   UNL     1      30.757 -31.018 -30.709  0.00  0.00    -0.017 C 
BRANCH   2  13
ATOM     12  C   UNL     1      27.496 -29.001 -35.049  0.00  0.00    +0.079 C 
ATOM     13  O   UNL     1      27.230 -29.538 -33.762  0.00  0.00    -0.491 OA
ENDBRANCH   2  13
BRANCH   7  14
ATOM     14  O   UNL     1      26.948 -32.299 -34.693  0.00  0.00    -0.491 OA
ATOM     15  C   UNL     1      25.722 -32.863 -34.241  0.00  0.00    +0.079 C 
ENDBRANCH   7  14
ENDBRANCH   1  10
BRANCH   1  16
ATOM     16  C   UNL     1      33.466 -33.301 -29.295  0.00  0.00    -0.038 C 
ATOM     17  C   UNL     1      34.271 -32.934 -30.544  0.00  0.00    -0.037 C 
ATOM     18  C   UNL     1      35.626 -33.640 -30.577  0.00  0.00    -0.001 C 
ATOM     19  N   UNL     1      35.569 -35.099 -30.416  0.00  0.00    -0.298 N 
ATOM     20  C   UNL     1      34.220 -35.605 -30.140  0.00  0.00    -0.001 C 
ATOM     21  C   UNL     1      33.536 -34.817 -29.021  0.00  0.00    -0.037 C 
ATOM     22  H   UNL     1      36.116 -35.313 -29.582  0.00  0.00    +0.000 HD
BRANCH  19  23
ATOM     23  C   UNL     1      36.192 -35.791 -31.555  0.00  0.00    +0.024 C 
BRANCH  23  24
ATOM     24  C   UNL     1      37.669 -36.058 -31.354  0.00  0.00    -0.033 A 
ATOM     25  C   UNL     1      38.089 -37.018 -30.420  0.00  0.00    -0.057 A 
ATOM     26  C   UNL     1      39.446 -37.258 -30.208  0.00  0.00    -0.061 A 
ATOM     27  C   UNL     1      40.400 -36.546 -30.933  0.00  0.00    -0.062 A 
ATOM     28  C   UNL     1      39.997 -35.597 -31.871  0.00  0.00    -0.061 A 
ATOM     29  C   UNL     1      38.638 -35.352 -32.081  0.00  0.00    -0.057 A 
ENDBRANCH  23  24
ENDBRANCH  19  23
ENDBRANCH   1  16
TORSDOF 6
ENDMDL
MODEL 16
REMARK VINA RESULT:    -6.610      3.487      8.578
REMARK INTER + INTRA:          -9.853
REMARK INTER:                  -9.019
REMARK INTRA:                  -0.834
REMARK UNBOUND:                -0.924
REMARK  Name = cpd2.pdb
REMARK  8 active torsions:
REMARK  status: ('A' for Active; 'I' for Inactive)
REMARK    1  A    between atoms: C_1  and  O_2
REMARK    2  A    between atoms: O_2  and  C_3
REMARK    3  A    between atoms: C_8  and  O_9
REMARK    4  A    between atoms: O_9  and  C_10
REMARK    5  A    between atoms: C_13  and  C_14
REMARK    6  A    between atoms: C_14  and  C_15
REMARK    7  A    between atoms: N_18  and  C_19
REMARK    8  A    between atoms: C_19  and  C_20
REMARK                            x       y       z     vdW  Elec       q    Type
REMARK                         _______ _______ _______ _____ _____    ______ ____
ROOT
ATOM      1  C   UNL     1      39.947 -21.071 -38.796  0.00  0.00    -0.040 C 
ENDROOT
BRANCH   1  10
ATOM      2  C   UNL     1      45.959 -20.513 -39.409  0.00  0.00    +0.162 A 
ATOM      3  C   UNL     1      44.905 -20.407 -38.478  0.00  0.00    -0.012 A 
ATOM      4  C   UNL     1      43.633 -20.813 -38.836  0.00  0.00    -0.033 A 
ATOM      5  C   UNL     1      43.411 -21.284 -40.117  0.00  0.00    +0.025 A 
ATOM      6  C   UNL     1      44.409 -21.390 -41.071  0.00  0.00    -0.006 A 
ATOM      7  C   UNL     1      45.713 -21.016 -40.713  0.00  0.00    +0.162 A 
ATOM      8  C   UNL     1      42.006 -21.649 -40.230  0.00  0.00    +0.167 C 
ATOM      9  O   UNL     1      41.491 -21.974 -41.284  0.00  0.00    -0.292 OA
ATOM     10  C   UNL     1      41.376 -21.625 -38.843  0.00  0.00    +0.026 C 
ATOM     11  C   UNL     1      42.374 -20.757 -38.032  0.00  0.00    -0.017 C 
BRANCH   2  13
ATOM     12  C   UNL     1      47.147 -19.488 -37.584  0.00  0.00    +0.079 C 
ATOM     13  O   UNL     1      47.147 -20.078 -38.875  0.00  0.00    -0.491 OA
ENDBRANCH   2  13
BRANCH   7  14
ATOM     14  O   UNL     1      46.757 -21.085 -41.597  0.00  0.00    -0.491 OA
ATOM     15  C   UNL     1      47.455 -22.322 -41.692  0.00  0.00    +0.079 C 
ENDBRANCH   7  14
ENDBRANCH   1  10
BRANCH   1  16
ATOM     16  C   UNL     1      39.122 -21.569 -37.584  0.00  0.00    -0.038 C 
ATOM     17  C   UNL     1      39.009 -20.523 -36.473  0.00  0.00    -0.037 C 
ATOM     18  C   UNL     1      38.420 -21.114 -35.192  0.00  0.00    -0.001 C 
ATOM     19  N   UNL     1      39.100 -22.317 -34.694  0.00  0.00    -0.298 N 
ATOM     20  C   UNL     1      40.161 -22.800 -35.585  0.00  0.00    -0.001 C 
ATOM     21  C   UNL     1      39.684 -22.896 -37.035  0.00  0.00    -0.037 C 
ATOM     22  H   UNL     1      38.396 -23.055 -34.683  0.00  0.00    +0.000 HD
BRANCH  19  23
ATOM     23  C   UNL     1      39.582 -22.130 -33.317  0.00  0.00    +0.024 C 
BRANCH  23  24
ATOM     24  C   UNL     1      40.366 -20.849 -33.128  0.00  0.00    -0.033 A 
ATOM     25  C   UNL     1      39.808 -19.785 -32.401  0.00  0.00    -0.057 A 
ATOM     26  C   UNL     1      40.509 -18.591 -32.239  0.00  0.00    -0.061 A 
ATOM     27  C   UNL     1      41.780 -18.448 -32.794  0.00  0.00    -0.062 A 
ATOM     28  C   UNL     1      42.349 -19.501 -33.509  0.00  0.00    -0.061 A 
ATOM     29  C   UNL     1      41.646 -20.695 -33.676  0.00  0.00    -0.057 A 
ENDBRANCH  23  24
ENDBRANCH  19  23
ENDBRANCH   1  16
TORSDOF 6
ENDMDL
MODEL 17
REMARK VINA RESULT:    -6.555      1.948      2.864
REMARK INTER + INTRA:          -9.778
REMARK INTER:                  -9.166
REMARK INTRA:                  -0.612
REMARK UNBOUND:                -0.924
REMARK  Name = cpd2.pdb
REMARK  8 active torsions:
REMARK  status: ('A' for Active; 'I' for Inactive)
REMARK    1  A    between atoms: C_1  and  O_2
REMARK    2  A    between atoms: O_2  and  C_3
REMARK    3  A    between atoms: C_8  and  O_9
REMARK    4  A    between atoms: O_9  and  C_10
REMARK    5  A    between atoms: C_13  and  C_14
REMARK    6  A    between atoms: C_14  and  C_15
REMARK    7  A    between atoms: N_18  and  C_19
REMARK    8  A    between atoms: C_19  and  C_20
REMARK                            x       y       z     vdW  Elec       q    Type
REMARK                         _______ _______ _______ _____ _____    ______ ____
ROOT
ATOM      1  C   UNL     1      40.957 -20.540 -38.890  0.00  0.00    -0.040 C 
ENDROOT
BRANCH   1  10
ATOM      2  C   UNL     1      39.855 -20.313 -32.926  0.00  0.00    +0.162 A 
ATOM      3  C   UNL     1      39.778 -19.563 -34.117  0.00  0.00    -0.012 A 
ATOM      4  C   UNL     1      40.038 -20.174 -35.329  0.00  0.00    -0.033 A 
ATOM      5  C   UNL     1      40.406 -21.507 -35.346  0.00  0.00    +0.025 A 
ATOM      6  C   UNL     1      40.513 -22.280 -34.204  0.00  0.00    -0.006 A 
ATOM      7  C   UNL     1      40.217 -21.685 -32.969  0.00  0.00    +0.162 A 
ATOM      8  C   UNL     1      40.612 -21.904 -36.732  0.00  0.00    +0.167 C 
ATOM      9  O   UNL     1      41.068 -22.988 -37.048  0.00  0.00    -0.292 OA
ATOM     10  C   UNL     1      40.099 -20.796 -37.645  0.00  0.00    +0.026 C 
ATOM     11  C   UNL     1      40.051 -19.570 -36.696  0.00  0.00    -0.017 C 
BRANCH   2  13
ATOM     12  C   UNL     1      39.519 -18.135 -31.962  0.00  0.00    +0.079 C 
ATOM     13  O   UNL     1      39.551 -19.548 -31.828  0.00  0.00    -0.491 OA
ENDBRANCH   2  13
BRANCH   7  14
ATOM     14  O   UNL     1      40.302 -22.377 -31.789  0.00  0.00    -0.491 OA
ATOM     15  C   UNL     1      41.208 -23.474 -31.737  0.00  0.00    +0.079 C 
ENDBRANCH   7  14
ENDBRANCH   1  10
BRANCH   1  16
ATOM     16  C   UNL     1      42.239 -19.720 -38.608  0.00  0.00    -0.038 C 
ATOM     17  C   UNL     1      42.701 -18.906 -39.819  0.00  0.00    -0.037 C 
ATOM     18  C   UNL     1      44.094 -18.312 -39.608  0.00  0.00    -0.001 C 
ATOM     19  N   UNL     1      45.128 -19.280 -39.218  0.00  0.00    -0.298 N 
ATOM     20  C   UNL     1      44.608 -20.633 -38.992  0.00  0.00    -0.001 C 
ATOM     21  C   UNL     1      43.375 -20.623 -38.086  0.00  0.00    -0.037 C 
ATOM     22  H   UNL     1      45.479 -18.969 -38.313  0.00  0.00    +0.000 HD
BRANCH  19  23
ATOM     23  C   UNL     1      46.253 -19.276 -40.166  0.00  0.00    +0.024 C 
BRANCH  23  24
ATOM     24  C   UNL     1      46.336 -20.539 -40.998  0.00  0.00    -0.033 A 
ATOM     25  C   UNL     1      45.405 -20.767 -42.023  0.00  0.00    -0.057 A 
ATOM     26  C   UNL     1      45.455 -21.936 -42.781  0.00  0.00    -0.061 A 
ATOM     27  C   UNL     1      46.443 -22.887 -42.530  0.00  0.00    -0.062 A 
ATOM     28  C   UNL     1      47.381 -22.667 -41.522  0.00  0.00    -0.061 A 
ATOM     29  C   UNL     1      47.328 -21.499 -40.758  0.00  0.00    -0.057 A 
ENDBRANCH  23  24
ENDBRANCH  19  23
ENDBRANCH   1  16
TORSDOF 6
ENDMDL
MODEL 18
REMARK VINA RESULT:    -6.453      1.753      2.806
REMARK INTER + INTRA:          -9.640
REMARK INTER:                  -9.068
REMARK INTRA:                  -0.572
REMARK UNBOUND:                -0.924
REMARK  Name = cpd2.pdb
REMARK  8 active torsions:
REMARK  status: ('A' for Active; 'I' for Inactive)
REMARK    1  A    between atoms: C_1  and  O_2
REMARK    2  A    between atoms: O_2  and  C_3
REMARK    3  A    between atoms: C_8  and  O_9
REMARK    4  A    between atoms: O_9  and  C_10
REMARK    5  A    between atoms: C_13  and  C_14
REMARK    6  A    between atoms: C_14  and  C_15
REMARK    7  A    between atoms: N_18  and  C_19
REMARK    8  A    between atoms: C_19  and  C_20
REMARK                            x       y       z     vdW  Elec       q    Type
REMARK                         _______ _______ _______ _____ _____    ______ ____
ROOT
ATOM      1  C   UNL     1      42.143 -20.526 -39.100  0.00  0.00    -0.040 C 
ENDROOT
BRANCH   1  10
ATOM      2  C   UNL     1      39.297 -22.391 -34.075  0.00  0.00    +0.162 A 
ATOM      3  C   UNL     1      40.184 -22.806 -35.089  0.00  0.00    -0.012 A 
ATOM      4  C   UNL     1      40.671 -21.881 -35.993  0.00  0.00    -0.033 A 
ATOM      5  C   UNL     1      40.248 -20.567 -35.906  0.00  0.00    +0.025 A 
ATOM      6  C   UNL     1      39.365 -20.115 -34.941  0.00  0.00    -0.006 A 
ATOM      7  C   UNL     1      38.890 -21.034 -33.994  0.00  0.00    +0.162 A 
ATOM      8  C   UNL     1      40.910 -19.806 -36.957  0.00  0.00    +0.167 C 
ATOM      9  O   UNL     1      40.634 -18.647 -37.207  0.00  0.00    -0.292 OA
ATOM     10  C   UNL     1      42.001 -20.669 -37.580  0.00  0.00    +0.026 C 
ATOM     11  C   UNL     1      41.583 -22.102 -37.157  0.00  0.00    -0.017 C 
BRANCH   2  13
ATOM     12  C   UNL     1      38.052 -24.428 -33.777  0.00  0.00    +0.079 C 
ATOM     13  O   UNL     1      38.932 -23.438 -33.266  0.00  0.00    -0.491 OA
ENDBRANCH   2  13
BRANCH   7  14
ATOM     14  O   UNL     1      38.010 -20.671 -33.008  0.00  0.00    -0.491 OA
ATOM     15  C   UNL     1      37.903 -19.285 -32.702  0.00  0.00    +0.079 C 
ENDBRANCH   7  14
ENDBRANCH   1  10
BRANCH   1  16
ATOM     16  C   UNL     1      43.205 -19.486 -39.533  0.00  0.00    -0.038 C 
ATOM     17  C   UNL     1      43.540 -19.566 -41.025  0.00  0.00    -0.037 C 
ATOM     18  C   UNL     1      44.761 -18.718 -41.380  0.00  0.00    -0.001 C 
ATOM     19  N   UNL     1      45.958 -18.987 -40.573  0.00  0.00    -0.298 N 
ATOM     20  C   UNL     1      45.730 -19.950 -39.490  0.00  0.00    -0.001 C 
ATOM     21  C   UNL     1      44.482 -19.602 -38.676  0.00  0.00    -0.037 C 
ATOM     22  H   UNL     1      46.191 -18.108 -40.111  0.00  0.00    +0.000 HD
BRANCH  19  23
ATOM     23  C   UNL     1      47.101 -19.371 -41.416  0.00  0.00    +0.024 C 
BRANCH  23  24
ATOM     24  C   UNL     1      47.213 -20.867 -41.624  0.00  0.00    -0.033 A 
ATOM     25  C   UNL     1      46.270 -21.538 -42.418  0.00  0.00    -0.057 A 
ATOM     26  C   UNL     1      46.346 -22.919 -42.598  0.00  0.00    -0.061 A 
ATOM     27  C   UNL     1      47.372 -23.644 -41.994  0.00  0.00    -0.062 A 
ATOM     28  C   UNL     1      48.322 -22.988 -41.212  0.00  0.00    -0.061 A 
ATOM     29  C   UNL     1      48.243 -21.606 -41.026  0.00  0.00    -0.057 A 
ENDBRANCH  23  24
ENDBRANCH  19  23
ENDBRANCH   1  16
TORSDOF 6
ENDMDL
MODEL 19
REMARK VINA RESULT:    -6.421     15.709     16.789
REMARK INTER + INTRA:          -9.597
REMARK INTER:                  -8.882
REMARK INTRA:                  -0.715
REMARK UNBOUND:                -0.924
REMARK  Name = cpd2.pdb
REMARK  8 active torsions:
REMARK  status: ('A' for Active; 'I' for Inactive)
REMARK    1  A    between atoms: C_1  and  O_2
REMARK    2  A    between atoms: O_2  and  C_3
REMARK    3  A    between atoms: C_8  and  O_9
REMARK    4  A    between atoms: O_9  and  C_10
REMARK    5  A    between atoms: C_13  and  C_14
REMARK    6  A    between atoms: C_14  and  C_15
REMARK    7  A    between atoms: N_18  and  C_19
REMARK    8  A    between atoms: C_19  and  C_20
REMARK                            x       y       z     vdW  Elec       q    Type
REMARK                         _______ _______ _______ _____ _____    ______ ____
ROOT
ATOM      1  C   UNL     1      31.932 -32.568 -29.669  0.00  0.00    -0.040 C 
ENDROOT
BRANCH   1  10
ATOM      2  C   UNL     1      27.741 -28.178 -29.629  0.00  0.00    +0.162 A 
ATOM      3  C   UNL     1      28.846 -28.689 -28.919  0.00  0.00    -0.012 A 
ATOM      4  C   UNL     1      29.606 -29.702 -29.473  0.00  0.00    -0.033 A 
ATOM      5  C   UNL     1      29.245 -30.221 -30.702  0.00  0.00    +0.025 A 
ATOM      6  C   UNL     1      28.158 -29.766 -31.429  0.00  0.00    -0.006 A 
ATOM      7  C   UNL     1      27.398 -28.713 -30.898  0.00  0.00    +0.162 A 
ATOM      8  C   UNL     1      30.204 -31.257 -31.059  0.00  0.00    +0.167 C 
ATOM      9  O   UNL     1      30.066 -31.979 -32.029  0.00  0.00    -0.292 OA
ATOM     10  C   UNL     1      31.376 -31.200 -30.086  0.00  0.00    +0.026 C 
ATOM     11  C   UNL     1      30.786 -30.410 -28.888  0.00  0.00    -0.017 C 
BRANCH   2  13
ATOM     12  C   UNL     1      26.896 -27.333 -27.541  0.00  0.00    +0.079 C 
ATOM     13  O   UNL     1      27.117 -27.172 -28.934  0.00  0.00    -0.491 OA
ENDBRANCH   2  13
BRANCH   7  14
ATOM     14  O   UNL     1      26.304 -28.207 -31.549  0.00  0.00    -0.491 OA
ATOM     15  C   UNL     1      26.174 -28.499 -32.936  0.00  0.00    +0.079 C 
ENDBRANCH   7  14
ENDBRANCH   1  10
BRANCH   1  16
ATOM     16  C   UNL     1      33.180 -33.007 -30.473  0.00  0.00    -0.038 C 
ATOM     17  C   UNL     1      32.945 -34.283 -31.284  0.00  0.00    -0.037 C 
ATOM     18  C   UNL     1      34.247 -34.840 -31.859  0.00  0.00    -0.001 C 
ATOM     19  N   UNL     1      35.319 -35.049 -30.877  0.00  0.00    -0.298 N 
ATOM     20  C   UNL     1      34.980 -34.577 -29.531  0.00  0.00    -0.001 C 
ATOM     21  C   UNL     1      34.410 -33.158 -29.554  0.00  0.00    -0.037 C 
ATOM     22  H   UNL     1      36.099 -34.466 -31.182  0.00  0.00    +0.000 HD
BRANCH  19  23
ATOM     23  C   UNL     1      35.777 -36.448 -30.870  0.00  0.00    +0.024 C 
BRANCH  23  24
ATOM     24  C   UNL     1      37.271 -36.584 -30.670  0.00  0.00    -0.033 A 
ATOM     25  C   UNL     1      38.155 -35.793 -31.419  0.00  0.00    -0.057 A 
ATOM     26  C   UNL     1      39.535 -35.924 -31.262  0.00  0.00    -0.061 A 
ATOM     27  C   UNL     1      40.047 -36.843 -30.347  0.00  0.00    -0.062 A 
ATOM     28  C   UNL     1      39.179 -37.627 -29.588  0.00  0.00    -0.061 A 
ATOM     29  C   UNL     1      37.798 -37.500 -29.749  0.00  0.00    -0.057 A 
ENDBRANCH  23  24
ENDBRANCH  19  23
ENDBRANCH   1  16
TORSDOF 6
ENDMDL
MODEL 20
REMARK VINA RESULT:    -6.326      4.146      9.748
REMARK INTER + INTRA:          -9.469
REMARK INTER:                  -8.585
REMARK INTRA:                  -0.885
REMARK UNBOUND:                -0.924
REMARK  Name = cpd2.pdb
REMARK  8 active torsions:
REMARK  status: ('A' for Active; 'I' for Inactive)
REMARK    1  A    between atoms: C_1  and  O_2
REMARK    2  A    between atoms: O_2  and  C_3
REMARK    3  A    between atoms: C_8  and  O_9
REMARK    4  A    between atoms: O_9  and  C_10
REMARK    5  A    between atoms: C_13  and  C_14
REMARK    6  A    between atoms: C_14  and  C_15
REMARK    7  A    between atoms: N_18  and  C_19
REMARK    8  A    between atoms: C_19  and  C_20
REMARK                            x       y       z     vdW  Elec       q    Type
REMARK                         _______ _______ _______ _____ _____    ______ ____
ROOT
ATOM      1  C   UNL     1      45.546 -17.404 -35.794  0.00  0.00    -0.040 C 
ENDROOT
BRANCH   1  10
ATOM      2  C   UNL     1      45.983 -20.346 -41.085  0.00  0.00    +0.162 A 
ATOM      3  C   UNL     1      45.591 -19.123 -40.503  0.00  0.00    -0.012 A 
ATOM      4  C   UNL     1      45.849 -18.888 -39.166  0.00  0.00    -0.033 A 
ATOM      5  C   UNL     1      46.457 -19.876 -38.413  0.00  0.00    +0.025 A 
ATOM      6  C   UNL     1      46.843 -21.098 -38.933  0.00  0.00    -0.006 A 
ATOM      7  C   UNL     1      46.622 -21.339 -40.297  0.00  0.00    +0.162 A 
ATOM      8  C   UNL     1      46.620 -19.377 -37.054  0.00  0.00    +0.167 C 
ATOM      9  O   UNL     1      47.010 -20.075 -36.136  0.00  0.00    -0.292 OA
ATOM     10  C   UNL     1      46.308 -17.885 -37.035  0.00  0.00    +0.026 C 
ATOM     11  C   UNL     1      45.494 -17.692 -38.342  0.00  0.00    -0.017 C 
BRANCH   2  13
ATOM     12  C   UNL     1      44.478 -19.748 -42.864  0.00  0.00    +0.079 C 
ATOM     13  O   UNL     1      45.660 -20.395 -42.418  0.00  0.00    -0.491 OA
ENDBRANCH   2  13
BRANCH   7  14
ATOM     14  O   UNL     1      46.969 -22.523 -40.892  0.00  0.00    -0.491 OA
ATOM     15  C   UNL     1      48.346 -22.730 -41.187  0.00  0.00    +0.079 C 
ENDBRANCH   7  14
ENDBRANCH   1  10
BRANCH   1  16
ATOM     16  C   UNL     1      44.368 -18.323 -35.389  0.00  0.00    -0.038 C 
ATOM     17  C   UNL     1      43.003 -17.657 -35.578  0.00  0.00    -0.037 C 
ATOM     18  C   UNL     1      41.878 -18.470 -34.938  0.00  0.00    -0.001 C 
ATOM     19  N   UNL     1      42.088 -18.814 -33.526  0.00  0.00    -0.298 N 
ATOM     20  C   UNL     1      43.400 -18.405 -33.012  0.00  0.00    -0.001 C 
ATOM     21  C   UNL     1      44.533 -18.837 -33.944  0.00  0.00    -0.037 C 
ATOM     22  H   UNL     1      42.082 -19.833 -33.479  0.00  0.00    +0.000 HD
BRANCH  19  23
ATOM     23  C   UNL     1      40.989 -18.317 -32.682  0.00  0.00    +0.024 C 
BRANCH  23  24
ATOM     24  C   UNL     1      39.793 -19.245 -32.655  0.00  0.00    -0.033 A 
ATOM     25  C   UNL     1      39.983 -20.634 -32.591  0.00  0.00    -0.057 A 
ATOM     26  C   UNL     1      38.891 -21.501 -32.589  0.00  0.00    -0.061 A 
ATOM     27  C   UNL     1      37.595 -20.990 -32.641  0.00  0.00    -0.062 A 
ATOM     28  C   UNL     1      37.393 -19.611 -32.693  0.00  0.00    -0.061 A 
ATOM     29  C   UNL     1      38.486 -18.742 -32.701  0.00  0.00    -0.057 A 
ENDBRANCH  23  24
ENDBRANCH  19  23
ENDBRANCH   1  16
TORSDOF 6
ENDMDL
