REMARK  Name = cpd2.pdb
REMARK  8 active torsions:
REMARK  status: ('A' for Active; 'I' for Inactive)
REMARK    1  A    between atoms: C_1  and  O_2
REMARK    2  A    between atoms: O_2  and  C_3
REMARK    3  A    between atoms: C_8  and  O_9
REMARK    4  A    between atoms: O_9  and  C_10
REMARK    5  A    between atoms: C_13  and  C_14
REMARK    6  A    between atoms: C_14  and  C_15
REMARK    7  A    between atoms: N_18  and  C_19
REMARK    8  A    between atoms: C_19  and  C_20
REMARK                            x       y       z     vdW  Elec       q    Type
REMARK                         _______ _______ _______ _____ _____    ______ ____
ROOT
ATOM      1  C   UNL     1      -1.648   0.074   0.168  0.00  0.00    -0.040 C 
ENDROOT
BRANCH   1  10
ATOM      2  C   UNL     1       4.146  -1.716  -0.074  0.00  0.00    +0.162 A 
ATOM      3  C   UNL     1       3.308  -0.658   0.334  0.00  0.00    -0.012 A 
ATOM      4  C   UNL     1       1.936  -0.819   0.297  0.00  0.00    -0.033 A 
ATOM      5  C   UNL     1       1.409  -2.007  -0.175  0.00  0.00    +0.025 A 
ATOM      6  C   UNL     1       2.189  -3.067  -0.603  0.00  0.00    -0.006 A 
ATOM      7  C   UNL     1       3.584  -2.934  -0.538  0.00  0.00    +0.162 A 
ATOM      8  C   UNL     1      -0.043  -1.922  -0.101  0.00  0.00    +0.167 C 
ATOM      9  O   UNL     1      -0.779  -2.771  -0.569  0.00  0.00    -0.292 OA
ATOM     10  C   UNL     1      -0.425  -0.683   0.700  0.00  0.00    +0.026 C 
ATOM     11  C   UNL     1       0.870   0.170   0.644  0.00  0.00    -0.017 C 
BRANCH   2  13
ATOM     12  C   UNL     1       6.455  -2.388  -0.147  0.00  0.00    +0.079 C 
ATOM     13  O   UNL     1       5.472  -1.382   0.044  0.00  0.00    -0.491 OA
ENDBRANCH   2  13
BRANCH   7  14
ATOM     14  O   UNL     1       4.429  -3.932  -0.946  0.00  0.00    -0.491 OA
ATOM     15  C   UNL     1       3.897  -5.250  -1.025  0.00  0.00    +0.079 C 
ENDBRANCH   7  14
ENDBRANCH   1  10
BRANCH   1  16
ATOM     16  C   UNL     1      -2.975  -0.313   0.865  0.00  0.00    -0.038 C 
ATOM     17  C   UNL     1      -3.374  -1.769   0.615  0.00  0.00    -0.037 C 
ATOM     18  C   UNL     1      -4.798  -2.059   1.089  0.00  0.00    -0.001 C 
ATOM     19  N   UNL     1      -5.824  -1.150   0.561  0.00  0.00    -0.298 N 
ATOM     20  C   UNL     1      -5.276  -0.053  -0.244  0.00  0.00    -0.001 C 
ATOM     21  C   UNL     1      -4.115   0.646   0.466  0.00  0.00    -0.037 C 
ATOM     22  H   UNL     1      -6.252  -0.705   1.373  0.00  0.00    +0.000 HD
BRANCH  19  23
ATOM     23  C   UNL     1      -6.876  -1.886  -0.158  0.00  0.00    +0.024 C 
BRANCH  23  24
ATOM     24  C   UNL     1      -8.166  -1.104  -0.290  0.00  0.00    -0.033 A 
ATOM     25  C   UNL     1      -8.974  -0.887   0.837  0.00  0.00    -0.057 A 
ATOM     26  C   UNL     1     -10.176  -0.189   0.726  0.00  0.00    -0.061 A 
ATOM     27  C   UNL     1     -10.580   0.309  -0.512  0.00  0.00    -0.062 A 
ATOM     28  C   UNL     1      -9.781   0.110  -1.637  0.00  0.00    -0.061 A 
ATOM     29  C   UNL     1      -8.580  -0.594  -1.528  0.00  0.00    -0.057 A 
ENDBRANCH  23  24
ENDBRANCH  19  23
ENDBRANCH   1  16
TORSDOF 6
