MODEL 1
REMARK VINA RESULT:    -9.110      0.000      0.000
REMARK INTER + INTRA:         -11.285
REMARK INTER:                 -10.707
REMARK INTRA:                  -0.577
REMARK UNBOUND:                -0.577
REMARK  Name = cpd117.pdb
REMARK  5 active torsions:
REMARK  status: ('A' for Active; 'I' for Inactive)
REMARK    1  A    between atoms: C_1  and  C_2
REMARK    2  A    between atoms: C_6  and  C_7
REMARK    3  A    between atoms: C_9  and  N_10
REMARK    4  A    between atoms: C_11  and  C_12
REMARK    5  A    between atoms: C_15  and  C_16
REMARK                            x       y       z     vdW  Elec       q    Type
REMARK                         _______ _______ _______ _____ _____    ______ ____
ROOT
ATOM      1  C   UNL A   1      34.571 -32.150 -30.819  0.00  0.00    -0.046 C 
ATOM      2  C   UNL A   1      35.243 -33.471 -30.609  0.00  0.00    -0.085 C 
ATOM      3  C   UNL A   1      34.673 -34.669 -30.355  0.00  0.00    -0.035 C 
ATOM      4  C   UNL A   1      33.177 -34.882 -30.201  0.00  0.00    +0.006 C 
ATOM      5  C   UNL A   1      32.673 -36.101 -30.942  0.00  0.00    -0.077 C 
ATOM      6  C   UNL A   1      33.458 -37.114 -31.349  0.00  0.00    -0.073 C 
ATOM      7  C   UNL A   1      32.925 -38.305 -32.087  0.00  0.00    -0.044 C 
ATOM      8  C   UNL A   1      34.944 -37.097 -31.074  0.00  0.00    +0.001 C 
ATOM      9  C   UNL A   1      35.411 -35.983 -30.074  0.00  0.00    +0.113 C 
ATOM     10  C   UNL A   1      35.067 -36.449 -28.646  0.00  0.00    -0.000 C 
ATOM     11  C   UNL A   1      35.839 -37.256 -27.897  0.00  0.00    -0.068 C 
ATOM     12  C   UNL A   1      35.479 -37.710 -26.526  0.00  0.00    +0.045 C 
ATOM     13  C   UNL A   1      34.123 -37.227 -26.037  0.00  0.00    +0.240 C 
ATOM     14  O   UNL A   1      33.715 -37.607 -24.940  0.00  0.00    -0.273 OA
ATOM     15  N   UNL A   1      33.388 -36.365 -26.814  0.00  0.00    -0.185 NA
ATOM     16  C   UNL A   1      33.795 -36.010 -27.990  0.00  0.00    +0.040 C 
ATOM     17  C   UNL A   1      32.890 -35.011 -28.709  0.00  0.00    -0.002 C 
ENDROOT
BRANCH   9  18
ATOM     18  N   UNL A   1      36.888 -35.836 -30.118  0.00  0.00    -0.275 NA
ATOM     19  C   UNL A   1      37.597 -36.636 -30.829  0.00  0.00    +0.031 C 
BRANCH  19  20
ATOM     20  C   UNL A   1      39.069 -36.517 -30.877  0.00  0.00    -0.007 A 
ATOM     21  C   UNL A   1      39.645 -35.551 -31.706  0.00  0.00    -0.052 A 
ATOM     22  C   UNL A   1      41.037 -35.426 -31.762  0.00  0.00    -0.044 A 
ATOM     23  C   UNL A   1      41.852 -36.262 -30.987  0.00  0.00    +0.052 A 
ATOM     24  C   UNL A   1      41.269 -37.226 -30.157  0.00  0.00    -0.044 A 
ATOM     25  C   UNL A   1      39.878 -37.354 -30.101  0.00  0.00    -0.052 A 
BRANCH  23  26
ATOM     26  C   UNL A   1      43.279 -36.132 -31.046  0.00  0.00    +0.099 C 
ATOM     27  N   UNL A   1      44.434 -36.030 -31.098  0.00  0.00    -0.191 NA
ENDBRANCH  23  26
ENDBRANCH  19  20
ENDBRANCH   9  18
TORSDOF 3
ENDMDL
MODEL 2
REMARK VINA RESULT:    -8.591      3.136      7.165
REMARK INTER + INTRA:         -10.675
REMARK INTER:                 -10.044
REMARK INTRA:                  -0.632
REMARK UNBOUND:                -0.577
REMARK  Name = cpd117.pdb
REMARK  5 active torsions:
REMARK  status: ('A' for Active; 'I' for Inactive)
REMARK    1  A    between atoms: C_1  and  C_2
REMARK    2  A    between atoms: C_6  and  C_7
REMARK    3  A    between atoms: C_9  and  N_10
REMARK    4  A    between atoms: C_11  and  C_12
REMARK    5  A    between atoms: C_15  and  C_16
REMARK                            x       y       z     vdW  Elec       q    Type
REMARK                         _______ _______ _______ _____ _____    ______ ____
ROOT
ATOM      1  C   UNL A   1      34.893 -37.946 -26.021  0.00  0.00    -0.046 C 
ATOM      2  C   UNL A   1      35.006 -37.400 -27.411  0.00  0.00    -0.085 C 
ATOM      3  C   UNL A   1      35.674 -37.921 -28.463  0.00  0.00    -0.035 C 
ATOM      4  C   UNL A   1      36.491 -39.200 -28.400  0.00  0.00    +0.006 C 
ATOM      5  C   UNL A   1      36.252 -40.114 -29.583  0.00  0.00    -0.077 C 
ATOM      6  C   UNL A   1      35.719 -39.713 -30.750  0.00  0.00    -0.073 C 
ATOM      7  C   UNL A   1      35.489 -40.649 -31.899  0.00  0.00    -0.044 C 
ATOM      8  C   UNL A   1      35.317 -38.271 -30.960  0.00  0.00    +0.001 C 
ATOM      9  C   UNL A   1      35.821 -37.285 -29.849  0.00  0.00    +0.113 C 
ATOM     10  C   UNL A   1      37.312 -36.995 -30.107  0.00  0.00    -0.000 C 
ATOM     11  C   UNL A   1      37.776 -36.063 -30.957  0.00  0.00    -0.068 C 
ATOM     12  C   UNL A   1      39.221 -35.812 -31.206  0.00  0.00    +0.045 C 
ATOM     13  C   UNL A   1      40.161 -36.739 -30.452  0.00  0.00    +0.240 C 
ATOM     14  O   UNL A   1      41.373 -36.647 -30.647  0.00  0.00    -0.273 OA
ATOM     15  N   UNL A   1      39.648 -37.647 -29.558  0.00  0.00    -0.185 NA
ATOM     16  C   UNL A   1      38.371 -37.778 -29.395  0.00  0.00    +0.040 C 
ATOM     17  C   UNL A   1      37.960 -38.795 -28.332  0.00  0.00    -0.002 C 
ENDROOT
BRANCH   9  18
ATOM     18  N   UNL A   1      35.120 -35.980 -29.962  0.00  0.00    -0.275 NA
ATOM     19  C   UNL A   1      33.953 -35.916 -30.494  0.00  0.00    +0.031 C 
BRANCH  19  20
ATOM     20  C   UNL A   1      33.243 -34.628 -30.629  0.00  0.00    -0.007 A 
ATOM     21  C   UNL A   1      32.131 -34.552 -31.473  0.00  0.00    -0.052 A 
ATOM     22  C   UNL A   1      31.448 -33.339 -31.611  0.00  0.00    -0.044 A 
ATOM     23  C   UNL A   1      31.871 -32.206 -30.905  0.00  0.00    +0.052 A 
ATOM     24  C   UNL A   1      32.983 -32.290 -30.059  0.00  0.00    -0.044 A 
ATOM     25  C   UNL A   1      33.669 -33.500 -29.921  0.00  0.00    -0.052 A 
BRANCH  23  26
ATOM     26  C   UNL A   1      31.168 -30.964 -31.048  0.00  0.00    +0.099 C 
ATOM     27  N   UNL A   1      30.595 -29.962 -31.163  0.00  0.00    -0.191 NA
ENDBRANCH  23  26
ENDBRANCH  19  20
ENDBRANCH   9  18
TORSDOF 3
ENDMDL
MODEL 3
REMARK VINA RESULT:    -8.534     17.019     20.379
REMARK INTER + INTRA:         -10.608
REMARK INTER:                 -10.164
REMARK INTRA:                  -0.444
REMARK UNBOUND:                -0.577
REMARK  Name = cpd117.pdb
REMARK  5 active torsions:
REMARK  status: ('A' for Active; 'I' for Inactive)
REMARK    1  A    between atoms: C_1  and  C_2
REMARK    2  A    between atoms: C_6  and  C_7
REMARK    3  A    between atoms: C_9  and  N_10
REMARK    4  A    between atoms: C_11  and  C_12
REMARK    5  A    between atoms: C_15  and  C_16
REMARK                            x       y       z     vdW  Elec       q    Type
REMARK                         _______ _______ _______ _____ _____    ______ ____
ROOT
ATOM      1  C   UNL A   1      41.382 -22.552 -42.733  0.00  0.00    -0.046 C 
ATOM      2  C   UNL A   1      42.098 -22.019 -41.531  0.00  0.00    -0.085 C 
ATOM      3  C   UNL A   1      43.162 -21.188 -41.490  0.00  0.00    -0.035 C 
ATOM      4  C   UNL A   1      43.867 -20.650 -42.723  0.00  0.00    +0.006 C 
ATOM      5  C   UNL A   1      44.175 -19.171 -42.632  0.00  0.00    -0.077 C 
ATOM      6  C   UNL A   1      44.212 -18.479 -41.480  0.00  0.00    -0.073 C 
ATOM      7  C   UNL A   1      44.514 -17.011 -41.427  0.00  0.00    -0.044 C 
ATOM      8  C   UNL A   1      43.946 -19.164 -40.159  0.00  0.00    +0.001 C 
ATOM      9  C   UNL A   1      43.907 -20.730 -40.231  0.00  0.00    +0.113 C 
ATOM     10  C   UNL A   1      45.359 -21.241 -40.300  0.00  0.00    -0.000 C 
ATOM     11  C   UNL A   1      46.151 -21.444 -39.233  0.00  0.00    -0.068 C 
ATOM     12  C   UNL A   1      47.558 -21.921 -39.323  0.00  0.00    +0.045 C 
ATOM     13  C   UNL A   1      48.067 -22.121 -40.741  0.00  0.00    +0.240 C 
ATOM     14  O   UNL A   1      49.240 -22.451 -40.912  0.00  0.00    -0.273 OA
ATOM     15  N   UNL A   1      47.211 -21.948 -41.801  0.00  0.00    -0.185 NA
ATOM     16  C   UNL A   1      45.993 -21.548 -41.621  0.00  0.00    +0.040 C 
ATOM     17  C   UNL A   1      45.154 -21.450 -42.893  0.00  0.00    -0.002 C 
ENDROOT
BRANCH   9  18
ATOM     18  N   UNL A   1      43.329 -21.289 -38.983  0.00  0.00    -0.275 NA
ATOM     19  C   UNL A   1      42.270 -20.773 -38.471  0.00  0.00    +0.031 C 
BRANCH  19  20
ATOM     20  C   UNL A   1      41.686 -21.303 -37.223  0.00  0.00    -0.007 A 
ATOM     21  C   UNL A   1      40.718 -22.309 -37.301  0.00  0.00    -0.052 A 
ATOM     22  C   UNL A   1      40.156 -22.822 -36.127  0.00  0.00    -0.044 A 
ATOM     23  C   UNL A   1      40.562 -22.334 -34.878  0.00  0.00    +0.052 A 
ATOM     24  C   UNL A   1      41.533 -21.329 -34.807  0.00  0.00    -0.044 A 
ATOM     25  C   UNL A   1      42.095 -20.814 -35.979  0.00  0.00    -0.052 A 
BRANCH  23  26
ATOM     26  C   UNL A   1      39.984 -22.862 -33.676  0.00  0.00    +0.099 C 
ATOM     27  N   UNL A   1      39.518 -23.285 -32.702  0.00  0.00    -0.191 NA
ENDBRANCH  23  26
ENDBRANCH  19  20
ENDBRANCH   9  18
TORSDOF 3
ENDMDL
MODEL 4
REMARK VINA RESULT:    -8.521      2.194      3.901
REMARK INTER + INTRA:         -10.593
REMARK INTER:                  -9.920
REMARK INTRA:                  -0.672
REMARK UNBOUND:                -0.577
REMARK  Name = cpd117.pdb
REMARK  5 active torsions:
REMARK  status: ('A' for Active; 'I' for Inactive)
REMARK    1  A    between atoms: C_1  and  C_2
REMARK    2  A    between atoms: C_6  and  C_7
REMARK    3  A    between atoms: C_9  and  N_10
REMARK    4  A    between atoms: C_11  and  C_12
REMARK    5  A    between atoms: C_15  and  C_16
REMARK                            x       y       z     vdW  Elec       q    Type
REMARK                         _______ _______ _______ _____ _____    ______ ____
ROOT
ATOM      1  C   UNL A   1      33.239 -38.765 -32.624  0.00  0.00    -0.046 C 
ATOM      2  C   UNL A   1      34.089 -37.910 -31.737  0.00  0.00    -0.085 C 
ATOM      3  C   UNL A   1      33.702 -37.136 -30.700  0.00  0.00    -0.035 C 
ATOM      4  C   UNL A   1      32.258 -36.972 -30.256  0.00  0.00    +0.006 C 
ATOM      5  C   UNL A   1      32.087 -37.053 -28.754  0.00  0.00    -0.077 C 
ATOM      6  C   UNL A   1      33.086 -36.881 -27.871  0.00  0.00    -0.073 C 
ATOM      7  C   UNL A   1      32.881 -36.976 -26.389  0.00  0.00    -0.044 C 
ATOM      8  C   UNL A   1      34.490 -36.577 -28.344  0.00  0.00    +0.001 C 
ATOM      9  C   UNL A   1      34.603 -36.219 -29.866  0.00  0.00    +0.113 C 
ATOM     10  C   UNL A   1      34.136 -34.762 -30.050  0.00  0.00    -0.000 C 
ATOM     11  C   UNL A   1      34.914 -33.681 -29.876  0.00  0.00    -0.068 C 
ATOM     12  C   UNL A   1      34.437 -32.280 -30.040  0.00  0.00    +0.045 C 
ATOM     13  C   UNL A   1      32.961 -32.152 -30.380  0.00  0.00    +0.240 C 
ATOM     14  O   UNL A   1      32.465 -31.030 -30.471  0.00  0.00    -0.273 OA
ATOM     15  N   UNL A   1      32.213 -33.283 -30.597  0.00  0.00    -0.185 NA
ATOM     16  C   UNL A   1      32.724 -34.464 -30.448  0.00  0.00    +0.040 C 
ATOM     17  C   UNL A   1      31.779 -35.619 -30.771  0.00  0.00    -0.002 C 
ENDROOT
BRANCH   9  18
ATOM     18  N   UNL A   1      36.023 -36.257 -30.300  0.00  0.00    -0.275 NA
ATOM     19  C   UNL A   1      36.904 -36.853 -29.581  0.00  0.00    +0.031 C 
BRANCH  19  20
ATOM     20  C   UNL A   1      38.324 -36.892 -29.985  0.00  0.00    -0.007 A 
ATOM     21  C   UNL A   1      39.221 -37.663 -29.240  0.00  0.00    -0.052 A 
ATOM     22  C   UNL A   1      40.569 -37.709 -29.611  0.00  0.00    -0.044 A 
ATOM     23  C   UNL A   1      41.020 -36.991 -30.727  0.00  0.00    +0.052 A 
ATOM     24  C   UNL A   1      40.116 -36.223 -31.470  0.00  0.00    -0.044 A 
ATOM     25  C   UNL A   1      38.769 -36.173 -31.100  0.00  0.00    -0.052 A 
BRANCH  23  26
ATOM     26  C   UNL A   1      42.402 -37.041 -31.105  0.00  0.00    +0.099 C 
ATOM     27  N   UNL A   1      43.522 -37.084 -31.406  0.00  0.00    -0.191 NA
ENDBRANCH  23  26
ENDBRANCH  19  20
ENDBRANCH   9  18
TORSDOF 3
ENDMDL
MODEL 5
REMARK VINA RESULT:    -7.935      3.185      7.499
REMARK INTER + INTRA:          -9.904
REMARK INTER:                  -9.260
REMARK INTRA:                  -0.644
REMARK UNBOUND:                -0.577
REMARK  Name = cpd117.pdb
REMARK  5 active torsions:
REMARK  status: ('A' for Active; 'I' for Inactive)
REMARK    1  A    between atoms: C_1  and  C_2
REMARK    2  A    between atoms: C_6  and  C_7
REMARK    3  A    between atoms: C_9  and  N_10
REMARK    4  A    between atoms: C_11  and  C_12
REMARK    5  A    between atoms: C_15  and  C_16
REMARK                            x       y       z     vdW  Elec       q    Type
REMARK                         _______ _______ _______ _____ _____    ______ ____
ROOT
ATOM      1  C   UNL A   1      39.177 -38.220 -28.053  0.00  0.00    -0.046 C 
ATOM      2  C   UNL A   1      37.721 -37.886 -27.964  0.00  0.00    -0.085 C 
ATOM      3  C   UNL A   1      36.864 -37.600 -28.968  0.00  0.00    -0.035 C 
ATOM      4  C   UNL A   1      37.264 -37.537 -30.432  0.00  0.00    +0.006 C 
ATOM      5  C   UNL A   1      36.280 -38.235 -31.346  0.00  0.00    -0.077 C 
ATOM      6  C   UNL A   1      35.011 -38.525 -31.006  0.00  0.00    -0.073 C 
ATOM      7  C   UNL A   1      34.065 -39.226 -31.934  0.00  0.00    -0.044 C 
ATOM      8  C   UNL A   1      34.472 -38.151 -29.644  0.00  0.00    +0.001 C 
ATOM      9  C   UNL A   1      35.395 -37.189 -28.818  0.00  0.00    +0.113 C 
ATOM     10  C   UNL A   1      35.219 -35.763 -29.374  0.00  0.00    -0.000 C 
ATOM     11  C   UNL A   1      34.240 -34.916 -29.012  0.00  0.00    -0.068 C 
ATOM     12  C   UNL A   1      34.076 -33.548 -29.575  0.00  0.00    +0.045 C 
ATOM     13  C   UNL A   1      35.087 -33.183 -30.651  0.00  0.00    +0.240 C 
ATOM     14  O   UNL A   1      34.988 -32.096 -31.218  0.00  0.00    -0.273 OA
ATOM     15  N   UNL A   1      36.100 -34.059 -30.956  0.00  0.00    -0.185 NA
ATOM     16  C   UNL A   1      36.171 -35.224 -30.396  0.00  0.00    +0.040 C 
ATOM     17  C   UNL A   1      37.379 -36.063 -30.806  0.00  0.00    -0.002 C 
ENDROOT
BRANCH   9  18
ATOM     18  N   UNL A   1      34.952 -37.140 -27.402  0.00  0.00    -0.275 NA
ATOM     19  C   UNL A   1      34.263 -38.103 -26.905  0.00  0.00    +0.031 C 
BRANCH  19  20
ATOM     20  C   UNL A   1      33.799 -38.070 -25.503  0.00  0.00    -0.007 A 
ATOM     21  C   UNL A   1      33.445 -36.843 -24.935  0.00  0.00    -0.052 A 
ATOM     22  C   UNL A   1      33.003 -36.795 -23.608  0.00  0.00    -0.044 A 
ATOM     23  C   UNL A   1      32.911 -37.971 -22.852  0.00  0.00    +0.052 A 
ATOM     24  C   UNL A   1      33.264 -39.197 -23.428  0.00  0.00    -0.044 A 
ATOM     25  C   UNL A   1      33.708 -39.247 -24.753  0.00  0.00    -0.052 A 
BRANCH  23  26
ATOM     26  C   UNL A   1      32.457 -37.919 -21.493  0.00  0.00    +0.099 C 
ATOM     27  N   UNL A   1      32.095 -37.875 -20.392  0.00  0.00    -0.191 NA
ENDBRANCH  23  26
ENDBRANCH  19  20
ENDBRANCH   9  18
TORSDOF 3
ENDMDL
MODEL 6
REMARK VINA RESULT:    -7.756      2.634      4.311
REMARK INTER + INTRA:          -9.693
REMARK INTER:                  -9.824
REMARK INTRA:                   0.131
REMARK UNBOUND:                -0.577
REMARK  Name = cpd117.pdb
REMARK  5 active torsions:
REMARK  status: ('A' for Active; 'I' for Inactive)
REMARK    1  A    between atoms: C_1  and  C_2
REMARK    2  A    between atoms: C_6  and  C_7
REMARK    3  A    between atoms: C_9  and  N_10
REMARK    4  A    between atoms: C_11  and  C_12
REMARK    5  A    between atoms: C_15  and  C_16
REMARK                            x       y       z     vdW  Elec       q    Type
REMARK                         _______ _______ _______ _____ _____    ______ ____
ROOT
ATOM      1  C   UNL A   1      33.908 -36.914 -26.863  0.00  0.00    -0.046 C 
ATOM      2  C   UNL A   1      34.472 -36.174 -28.036  0.00  0.00    -0.085 C 
ATOM      3  C   UNL A   1      33.823 -35.384 -28.918  0.00  0.00    -0.035 C 
ATOM      4  C   UNL A   1      32.327 -35.123 -28.884  0.00  0.00    +0.006 C 
ATOM      5  C   UNL A   1      31.974 -33.666 -29.087  0.00  0.00    -0.077 C 
ATOM      6  C   UNL A   1      32.803 -32.759 -29.634  0.00  0.00    -0.073 C 
ATOM      7  C   UNL A   1      32.422 -31.320 -29.814  0.00  0.00    -0.044 C 
ATOM      8  C   UNL A   1      34.184 -33.159 -30.103  0.00  0.00    +0.001 C 
ATOM      9  C   UNL A   1      34.435 -34.706 -30.149  0.00  0.00    +0.113 C 
ATOM     10  C   UNL A   1      33.753 -35.264 -31.413  0.00  0.00    -0.000 C 
ATOM     11  C   UNL A   1      34.303 -35.273 -32.639  0.00  0.00    -0.068 C 
ATOM     12  C   UNL A   1      33.618 -35.800 -33.851  0.00  0.00    +0.045 C 
ATOM     13  C   UNL A   1      32.201 -36.293 -33.612  0.00  0.00    +0.240 C 
ATOM     14  O   UNL A   1      31.536 -36.685 -34.570  0.00  0.00    -0.273 OA
ATOM     15  N   UNL A   1      31.694 -36.310 -32.335  0.00  0.00    -0.185 NA
ATOM     16  C   UNL A   1      32.376 -35.846 -31.337  0.00  0.00    +0.040 C 
ATOM     17  C   UNL A   1      31.695 -35.979 -29.976  0.00  0.00    -0.002 C 
ENDROOT
BRANCH   9  18
ATOM     18  N   UNL A   1      35.885 -34.988 -30.302  0.00  0.00    -0.275 NA
ATOM     19  C   UNL A   1      36.306 -36.200 -30.366  0.00  0.00    +0.031 C 
BRANCH  19  20
ATOM     20  C   UNL A   1      37.744 -36.505 -30.503  0.00  0.00    -0.007 A 
ATOM     21  C   UNL A   1      38.428 -36.054 -31.635  0.00  0.00    -0.052 A 
ATOM     22  C   UNL A   1      39.792 -36.334 -31.779  0.00  0.00    -0.044 A 
ATOM     23  C   UNL A   1      40.471 -37.060 -30.792  0.00  0.00    +0.052 A 
ATOM     24  C   UNL A   1      39.780 -37.507 -29.659  0.00  0.00    -0.044 A 
ATOM     25  C   UNL A   1      38.418 -37.229 -29.514  0.00  0.00    -0.052 A 
BRANCH  23  26
ATOM     26  C   UNL A   1      41.868 -37.346 -30.942  0.00  0.00    +0.099 C 
ATOM     27  N   UNL A   1      42.998 -37.579 -31.058  0.00  0.00    -0.191 NA
ENDBRANCH  23  26
ENDBRANCH  19  20
ENDBRANCH   9  18
TORSDOF 3
ENDMDL
MODEL 7
REMARK VINA RESULT:    -7.551      2.825      4.713
REMARK INTER + INTRA:          -9.452
REMARK INTER:                  -8.810
REMARK INTRA:                  -0.643
REMARK UNBOUND:                -0.577
REMARK  Name = cpd117.pdb
REMARK  5 active torsions:
REMARK  status: ('A' for Active; 'I' for Inactive)
REMARK    1  A    between atoms: C_1  and  C_2
REMARK    2  A    between atoms: C_6  and  C_7
REMARK    3  A    between atoms: C_9  and  N_10
REMARK    4  A    between atoms: C_11  and  C_12
REMARK    5  A    between atoms: C_15  and  C_16
REMARK                            x       y       z     vdW  Elec       q    Type
REMARK                         _______ _______ _______ _____ _____    ______ ____
ROOT
ATOM      1  C   UNL A   1      35.150 -42.130 -28.465  0.00  0.00    -0.046 C 
ATOM      2  C   UNL A   1      35.483 -40.731 -28.879  0.00  0.00    -0.085 C 
ATOM      3  C   UNL A   1      34.672 -39.651 -28.906  0.00  0.00    -0.035 C 
ATOM      4  C   UNL A   1      33.201 -39.684 -28.528  0.00  0.00    +0.006 C 
ATOM      5  C   UNL A   1      32.789 -38.527 -27.644  0.00  0.00    -0.077 C 
ATOM      6  C   UNL A   1      33.489 -37.385 -27.523  0.00  0.00    -0.073 C 
ATOM      7  C   UNL A   1      33.055 -36.260 -26.631  0.00  0.00    -0.044 C 
ATOM      8  C   UNL A   1      34.772 -37.180 -28.296  0.00  0.00    +0.001 C 
ATOM      9  C   UNL A   1      35.042 -38.251 -29.410  0.00  0.00    +0.113 C 
ATOM     10  C   UNL A   1      34.156 -37.911 -30.624  0.00  0.00    -0.000 C 
ATOM     11  C   UNL A   1      34.479 -37.028 -31.584  0.00  0.00    -0.068 C 
ATOM     12  C   UNL A   1      33.601 -36.700 -32.740  0.00  0.00    +0.045 C 
ATOM     13  C   UNL A   1      32.258 -37.413 -32.734  0.00  0.00    +0.240 C 
ATOM     14  O   UNL A   1      31.441 -37.153 -33.617  0.00  0.00    -0.273 OA
ATOM     15  N   UNL A   1      31.987 -38.343 -31.761  0.00  0.00    -0.185 NA
ATOM     16  C   UNL A   1      32.826 -38.576 -30.803  0.00  0.00    +0.040 C 
ATOM     17  C   UNL A   1      32.401 -39.670 -29.827  0.00  0.00    -0.002 C 
ENDROOT
BRANCH   9  18
ATOM     18  N   UNL A   1      36.446 -38.161 -29.882  0.00  0.00    -0.275 NA
ATOM     19  C   UNL A   1      37.286 -37.402 -29.277  0.00  0.00    +0.031 C 
BRANCH  19  20
ATOM     20  C   UNL A   1      38.685 -37.285 -29.738  0.00  0.00    -0.007 A 
ATOM     21  C   UNL A   1      39.680 -38.005 -29.072  0.00  0.00    -0.052 A 
ATOM     22  C   UNL A   1      41.010 -37.906 -29.497  0.00  0.00    -0.044 A 
ATOM     23  C   UNL A   1      41.342 -37.092 -30.588  0.00  0.00    +0.052 A 
ATOM     24  C   UNL A   1      40.340 -36.376 -31.252  0.00  0.00    -0.044 A 
ATOM     25  C   UNL A   1      39.012 -36.472 -30.828  0.00  0.00    -0.052 A 
BRANCH  23  26
ATOM     26  C   UNL A   1      42.706 -36.992 -31.022  0.00  0.00    +0.099 C 
ATOM     27  N   UNL A   1      43.808 -36.916 -31.375  0.00  0.00    -0.191 NA
ENDBRANCH  23  26
ENDBRANCH  19  20
ENDBRANCH   9  18
TORSDOF 3
ENDMDL
MODEL 8
REMARK VINA RESULT:    -7.397     14.640     17.321
REMARK INTER + INTRA:          -9.271
REMARK INTER:                  -8.624
REMARK INTRA:                  -0.647
REMARK UNBOUND:                -0.577
REMARK  Name = cpd117.pdb
REMARK  5 active torsions:
REMARK  status: ('A' for Active; 'I' for Inactive)
REMARK    1  A    between atoms: C_1  and  C_2
REMARK    2  A    between atoms: C_6  and  C_7
REMARK    3  A    between atoms: C_9  and  N_10
REMARK    4  A    between atoms: C_11  and  C_12
REMARK    5  A    between atoms: C_15  and  C_16
REMARK                            x       y       z     vdW  Elec       q    Type
REMARK                         _______ _______ _______ _____ _____    ______ ____
ROOT
ATOM      1  C   UNL A   1      42.942 -19.012 -32.815  0.00  0.00    -0.046 C 
ATOM      2  C   UNL A   1      42.166 -19.570 -33.967  0.00  0.00    -0.085 C 
ATOM      3  C   UNL A   1      40.837 -19.797 -34.050  0.00  0.00    -0.035 C 
ATOM      4  C   UNL A   1      39.859 -19.539 -32.915  0.00  0.00    +0.006 C 
ATOM      5  C   UNL A   1      38.595 -18.843 -33.370  0.00  0.00    -0.077 C 
ATOM      6  C   UNL A   1      38.170 -18.809 -34.645  0.00  0.00    -0.073 C 
ATOM      7  C   UNL A   1      36.914 -18.103 -35.062  0.00  0.00    -0.044 C 
ATOM      8  C   UNL A   1      38.956 -19.496 -35.739  0.00  0.00    +0.001 C 
ATOM      9  C   UNL A   1      40.098 -20.441 -35.228  0.00  0.00    +0.113 C 
ATOM     10  C   UNL A   1      39.452 -21.756 -34.751  0.00  0.00    -0.000 C 
ATOM     11  C   UNL A   1      39.139 -22.789 -35.550  0.00  0.00    -0.068 C 
ATOM     12  C   UNL A   1      38.498 -24.044 -35.071  0.00  0.00    +0.045 C 
ATOM     13  C   UNL A   1      38.168 -24.058 -33.588  0.00  0.00    +0.240 C 
ATOM     14  O   UNL A   1      37.578 -25.030 -33.117  0.00  0.00    -0.273 OA
ATOM     15  N   UNL A   1      38.549 -23.001 -32.797  0.00  0.00    -0.185 NA
ATOM     16  C   UNL A   1      39.122 -21.957 -33.304  0.00  0.00    +0.040 C 
ATOM     17  C   UNL A   1      39.526 -20.889 -32.290  0.00  0.00    -0.002 C 
ENDROOT
BRANCH   9  18
ATOM     18  N   UNL A   1      41.004 -20.806 -36.346  0.00  0.00    -0.275 NA
ATOM     19  C   UNL A   1      40.871 -20.249 -37.496  0.00  0.00    +0.031 C 
BRANCH  19  20
ATOM     20  C   UNL A   1      41.751 -20.607 -38.627  0.00  0.00    -0.007 A 
ATOM     21  C   UNL A   1      43.102 -20.251 -38.574  0.00  0.00    -0.052 A 
ATOM     22  C   UNL A   1      43.948 -20.584 -39.637  0.00  0.00    -0.044 A 
ATOM     23  C   UNL A   1      43.448 -21.273 -40.749  0.00  0.00    +0.052 A 
ATOM     24  C   UNL A   1      42.095 -21.629 -40.795  0.00  0.00    -0.044 A 
ATOM     25  C   UNL A   1      41.246 -21.296 -39.734  0.00  0.00    -0.052 A 
BRANCH  23  26
ATOM     26  C   UNL A   1      44.318 -21.613 -41.837  0.00  0.00    +0.099 C 
ATOM     27  N   UNL A   1      45.024 -21.891 -42.714  0.00  0.00    -0.191 NA
ENDBRANCH  23  26
ENDBRANCH  19  20
ENDBRANCH   9  18
TORSDOF 3
ENDMDL
MODEL 9
REMARK VINA RESULT:    -7.391      2.605      4.310
REMARK INTER + INTRA:          -9.264
REMARK INTER:                  -8.591
REMARK INTRA:                  -0.673
REMARK UNBOUND:                -0.577
REMARK  Name = cpd117.pdb
REMARK  5 active torsions:
REMARK  status: ('A' for Active; 'I' for Inactive)
REMARK    1  A    between atoms: C_1  and  C_2
REMARK    2  A    between atoms: C_6  and  C_7
REMARK    3  A    between atoms: C_9  and  N_10
REMARK    4  A    between atoms: C_11  and  C_12
REMARK    5  A    between atoms: C_15  and  C_16
REMARK                            x       y       z     vdW  Elec       q    Type
REMARK                         _______ _______ _______ _____ _____    ______ ____
ROOT
ATOM      1  C   UNL A   1      32.250 -38.543 -32.891  0.00  0.00    -0.046 C 
ATOM      2  C   UNL A   1      33.089 -37.621 -32.063  0.00  0.00    -0.085 C 
ATOM      3  C   UNL A   1      32.693 -36.789 -31.075  0.00  0.00    -0.035 C 
ATOM      4  C   UNL A   1      31.248 -36.619 -30.637  0.00  0.00    +0.006 C 
ATOM      5  C   UNL A   1      31.082 -36.608 -29.133  0.00  0.00    -0.077 C 
ATOM      6  C   UNL A   1      32.081 -36.365 -28.266  0.00  0.00    -0.073 C 
ATOM      7  C   UNL A   1      31.882 -36.370 -26.780  0.00  0.00    -0.044 C 
ATOM      8  C   UNL A   1      33.479 -36.071 -28.762  0.00  0.00    +0.001 C 
ATOM      9  C   UNL A   1      33.583 -35.808 -30.304  0.00  0.00    +0.113 C 
ATOM     10  C   UNL A   1      33.093 -34.373 -30.578  0.00  0.00    -0.000 C 
ATOM     11  C   UNL A   1      33.855 -33.271 -30.475  0.00  0.00    -0.068 C 
ATOM     12  C   UNL A   1      33.357 -31.891 -30.726  0.00  0.00    +0.045 C 
ATOM     13  C   UNL A   1      31.878 -31.807 -31.067  0.00  0.00    +0.240 C 
ATOM     14  O   UNL A   1      31.365 -30.700 -31.227  0.00  0.00    -0.273 OA
ATOM     15  N   UNL A   1      31.147 -32.960 -31.210  0.00  0.00    -0.185 NA
ATOM     16  C   UNL A   1      31.675 -34.121 -30.989  0.00  0.00    +0.040 C 
ATOM     17  C   UNL A   1      30.747 -35.309 -31.235  0.00  0.00    -0.002 C 
ENDROOT
BRANCH   9  18
ATOM     18  N   UNL A   1      35.002 -35.852 -30.740  0.00  0.00    -0.275 NA
ATOM     19  C   UNL A   1      35.886 -36.429 -30.009  0.00  0.00    +0.031 C 
BRANCH  19  20
ATOM     20  C   UNL A   1      37.306 -36.473 -30.415  0.00  0.00    -0.007 A 
ATOM     21  C   UNL A   1      37.717 -35.728 -31.524  0.00  0.00    -0.052 A 
ATOM     22  C   UNL A   1      39.058 -35.759 -31.920  0.00  0.00    -0.044 A 
ATOM     23  C   UNL A   1      39.987 -36.528 -31.208  0.00  0.00    +0.052 A 
ATOM     24  C   UNL A   1      39.569 -37.270 -30.097  0.00  0.00    -0.044 A 
ATOM     25  C   UNL A   1      38.229 -37.242 -29.700  0.00  0.00    -0.052 A 
BRANCH  23  26
ATOM     26  C   UNL A   1      41.362 -36.558 -31.617  0.00  0.00    +0.099 C 
ATOM     27  N   UNL A   1      42.472 -36.582 -31.952  0.00  0.00    -0.191 NA
ENDBRANCH  23  26
ENDBRANCH  19  20
ENDBRANCH   9  18
TORSDOF 3
ENDMDL
MODEL 10
REMARK VINA RESULT:    -7.345      2.905      6.856
REMARK INTER + INTRA:          -9.210
REMARK INTER:                  -8.566
REMARK INTRA:                  -0.644
REMARK UNBOUND:                -0.577
REMARK  Name = cpd117.pdb
REMARK  5 active torsions:
REMARK  status: ('A' for Active; 'I' for Inactive)
REMARK    1  A    between atoms: C_1  and  C_2
REMARK    2  A    between atoms: C_6  and  C_7
REMARK    3  A    between atoms: C_9  and  N_10
REMARK    4  A    between atoms: C_11  and  C_12
REMARK    5  A    between atoms: C_15  and  C_16
REMARK                            x       y       z     vdW  Elec       q    Type
REMARK                         _______ _______ _______ _____ _____    ______ ____
ROOT
ATOM      1  C   UNL A   1      33.187 -39.121 -32.856  0.00  0.00    -0.046 C 
ATOM      2  C   UNL A   1      33.489 -38.006 -31.904  0.00  0.00    -0.085 C 
ATOM      3  C   UNL A   1      34.446 -37.954 -30.952  0.00  0.00    -0.035 C 
ATOM      4  C   UNL A   1      35.408 -39.091 -30.653  0.00  0.00    +0.006 C 
ATOM      5  C   UNL A   1      36.838 -38.626 -30.477  0.00  0.00    -0.077 C 
ATOM      6  C   UNL A   1      37.189 -37.357 -30.204  0.00  0.00    -0.073 C 
ATOM      7  C   UNL A   1      38.618 -36.930 -30.043  0.00  0.00    -0.044 C 
ATOM      8  C   UNL A   1      36.139 -36.282 -30.046  0.00  0.00    +0.001 C 
ATOM      9  C   UNL A   1      34.667 -36.815 -29.950  0.00  0.00    +0.113 C 
ATOM     10  C   UNL A   1      34.447 -37.359 -28.525  0.00  0.00    -0.000 C 
ATOM     11  C   UNL A   1      34.102 -36.609 -27.465  0.00  0.00    -0.068 C 
ATOM     12  C   UNL A   1      33.913 -37.152 -26.092  0.00  0.00    +0.045 C 
ATOM     13  C   UNL A   1      34.193 -38.639 -25.957  0.00  0.00    +0.240 C 
ATOM     14  O   UNL A   1      34.125 -39.161 -24.844  0.00  0.00    -0.273 OA
ATOM     15  N   UNL A   1      34.497 -39.378 -27.074  0.00  0.00    -0.185 NA
ATOM     16  C   UNL A   1      34.620 -38.817 -28.235  0.00  0.00    +0.040 C 
ATOM     17  C   UNL A   1      34.914 -39.778 -29.385  0.00  0.00    -0.002 C 
ENDROOT
BRANCH   9  18
ATOM     18  N   UNL A   1      33.702 -35.700 -30.122  0.00  0.00    -0.275 NA
ATOM     19  C   UNL A   1      34.118 -34.525 -30.430  0.00  0.00    +0.031 C 
BRANCH  19  20
ATOM     20  C   UNL A   1      33.178 -33.397 -30.592  0.00  0.00    -0.007 A 
ATOM     21  C   UNL A   1      33.501 -32.159 -30.029  0.00  0.00    -0.052 A 
ATOM     22  C   UNL A   1      32.620 -31.081 -30.175  0.00  0.00    -0.044 A 
ATOM     23  C   UNL A   1      31.423 -31.239 -30.885  0.00  0.00    +0.052 A 
ATOM     24  C   UNL A   1      31.108 -32.481 -31.449  0.00  0.00    -0.044 A 
ATOM     25  C   UNL A   1      31.984 -33.560 -31.302  0.00  0.00    -0.052 A 
BRANCH  23  26
ATOM     26  C   UNL A   1      30.523 -30.132 -31.034  0.00  0.00    +0.099 C 
ATOM     27  N   UNL A   1      29.798 -29.235 -31.150  0.00  0.00    -0.191 NA
ENDBRANCH  23  26
ENDBRANCH  19  20
ENDBRANCH   9  18
TORSDOF 3
ENDMDL
MODEL 11
REMARK VINA RESULT:    -6.838     17.534     20.987
REMARK INTER + INTRA:          -8.615
REMARK INTER:                  -7.995
REMARK INTRA:                  -0.620
REMARK UNBOUND:                -0.577
REMARK  Name = cpd117.pdb
REMARK  5 active torsions:
REMARK  status: ('A' for Active; 'I' for Inactive)
REMARK    1  A    between atoms: C_1  and  C_2
REMARK    2  A    between atoms: C_6  and  C_7
REMARK    3  A    between atoms: C_9  and  N_10
REMARK    4  A    between atoms: C_11  and  C_12
REMARK    5  A    between atoms: C_15  and  C_16
REMARK                            x       y       z     vdW  Elec       q    Type
REMARK                         _______ _______ _______ _____ _____    ______ ____
ROOT
ATOM      1  C   UNL A   1      43.258 -15.531 -37.666  0.00  0.00    -0.046 C 
ATOM      2  C   UNL A   1      43.663 -16.913 -37.255  0.00  0.00    -0.085 C 
ATOM      3  C   UNL A   1      44.898 -17.460 -37.263  0.00  0.00    -0.035 C 
ATOM      4  C   UNL A   1      46.144 -16.737 -37.743  0.00  0.00    +0.006 C 
ATOM      5  C   UNL A   1      47.330 -16.924 -36.821  0.00  0.00    -0.077 C 
ATOM      6  C   UNL A   1      47.433 -17.915 -35.918  0.00  0.00    -0.073 C 
ATOM      7  C   UNL A   1      48.621 -18.067 -35.015  0.00  0.00    -0.044 C 
ATOM      8  C   UNL A   1      46.332 -18.941 -35.768  0.00  0.00    +0.001 C 
ATOM      9  C   UNL A   1      45.251 -18.908 -36.902  0.00  0.00    +0.113 C 
ATOM     10  C   UNL A   1      45.841 -19.599 -38.146  0.00  0.00    -0.000 C 
ATOM     11  C   UNL A   1      45.833 -20.926 -38.362  0.00  0.00    -0.068 C 
ATOM     12  C   UNL A   1      46.426 -21.575 -39.562  0.00  0.00    +0.045 C 
ATOM     13  C   UNL A   1      47.103 -20.617 -40.528  0.00  0.00    +0.240 C 
ATOM     14  O   UNL A   1      47.678 -21.073 -41.516  0.00  0.00    -0.273 OA
ATOM     15  N   UNL A   1      47.047 -19.265 -40.295  0.00  0.00    -0.185 NA
ATOM     16  C   UNL A   1      46.489 -18.791 -39.227  0.00  0.00    +0.040 C 
ATOM     17  C   UNL A   1      46.466 -17.267 -39.136  0.00  0.00    -0.002 C 
ENDROOT
BRANCH   9  18
ATOM     18  N   UNL A   1      44.064 -19.709 -36.507  0.00  0.00    -0.275 NA
ATOM     19  C   UNL A   1      43.761 -19.848 -35.267  0.00  0.00    +0.031 C 
BRANCH  19  20
ATOM     20  C   UNL A   1      42.595 -20.652 -34.849  0.00  0.00    -0.007 A 
ATOM     21  C   UNL A   1      42.294 -20.754 -33.488  0.00  0.00    -0.052 A 
ATOM     22  C   UNL A   1      41.191 -21.511 -33.077  0.00  0.00    -0.044 A 
ATOM     23  C   UNL A   1      40.389 -22.161 -34.023  0.00  0.00    +0.052 A 
ATOM     24  C   UNL A   1      40.694 -22.053 -35.385  0.00  0.00    -0.044 A 
ATOM     25  C   UNL A   1      41.796 -21.298 -35.798  0.00  0.00    -0.052 A 
BRANCH  23  26
ATOM     26  C   UNL A   1      39.259 -22.936 -33.599  0.00  0.00    +0.099 C 
ATOM     27  N   UNL A   1      38.343 -23.559 -33.257  0.00  0.00    -0.191 NA
ENDBRANCH  23  26
ENDBRANCH  19  20
ENDBRANCH   9  18
TORSDOF 3
ENDMDL
MODEL 12
REMARK VINA RESULT:    -6.758     15.714     18.333
REMARK INTER + INTRA:          -8.521
REMARK INTER:                  -7.862
REMARK INTRA:                  -0.658
REMARK UNBOUND:                -0.577
REMARK  Name = cpd117.pdb
REMARK  5 active torsions:
REMARK  status: ('A' for Active; 'I' for Inactive)
REMARK    1  A    between atoms: C_1  and  C_2
REMARK    2  A    between atoms: C_6  and  C_7
REMARK    3  A    between atoms: C_9  and  N_10
REMARK    4  A    between atoms: C_11  and  C_12
REMARK    5  A    between atoms: C_15  and  C_16
REMARK                            x       y       z     vdW  Elec       q    Type
REMARK                         _______ _______ _______ _____ _____    ______ ____
ROOT
ATOM      1  C   UNL A   1      44.743 -17.992 -32.930  0.00  0.00    -0.046 C 
ATOM      2  C   UNL A   1      44.066 -18.718 -34.050  0.00  0.00    -0.085 C 
ATOM      3  C   UNL A   1      42.742 -18.857 -34.278  0.00  0.00    -0.035 C 
ATOM      4  C   UNL A   1      41.660 -18.296 -33.371  0.00  0.00    +0.006 C 
ATOM      5  C   UNL A   1      40.542 -17.618 -34.132  0.00  0.00    -0.077 C 
ATOM      6  C   UNL A   1      40.287 -17.820 -35.437  0.00  0.00    -0.073 C 
ATOM      7  C   UNL A   1      39.173 -17.125 -36.161  0.00  0.00    -0.044 C 
ATOM      8  C   UNL A   1      41.131 -18.776 -36.249  0.00  0.00    +0.001 C 
ATOM      9  C   UNL A   1      42.096 -19.676 -35.402  0.00  0.00    +0.113 C 
ATOM     10  C   UNL A   1      41.264 -20.811 -34.774  0.00  0.00    -0.000 C 
ATOM     11  C   UNL A   1      40.950 -21.962 -35.391  0.00  0.00    -0.068 C 
ATOM     12  C   UNL A   1      40.128 -23.038 -34.773  0.00  0.00    +0.045 C 
ATOM     13  C   UNL A   1      39.613 -22.717 -33.379  0.00  0.00    +0.240 C 
ATOM     14  O   UNL A   1      38.871 -23.522 -32.817  0.00  0.00    -0.273 OA
ATOM     15  N   UNL A   1      39.997 -21.550 -32.766  0.00  0.00    -0.185 NA
ATOM     16  C   UNL A   1      40.734 -20.680 -33.380  0.00  0.00    +0.040 C 
ATOM     17  C   UNL A   1      41.114 -19.457 -32.548  0.00  0.00    -0.002 C 
ENDROOT
BRANCH   9  18
ATOM     18  N   UNL A   1      43.094 -20.333 -36.283  0.00  0.00    -0.275 NA
ATOM     19  C   UNL A   1      43.278 -19.911 -37.482  0.00  0.00    +0.031 C 
BRANCH  19  20
ATOM     20  C   UNL A   1      44.255 -20.557 -38.381  0.00  0.00    -0.007 A 
ATOM     21  C   UNL A   1      43.803 -21.134 -39.571  0.00  0.00    -0.052 A 
ATOM     22  C   UNL A   1      44.716 -21.750 -40.434  0.00  0.00    -0.044 A 
ATOM     23  C   UNL A   1      46.079 -21.785 -40.110  0.00  0.00    +0.052 A 
ATOM     24  C   UNL A   1      46.525 -21.204 -38.918  0.00  0.00    -0.044 A 
ATOM     25  C   UNL A   1      45.614 -20.590 -38.054  0.00  0.00    -0.052 A 
BRANCH  23  26
ATOM     26  C   UNL A   1      47.013 -22.417 -40.996  0.00  0.00    +0.099 C 
ATOM     27  N   UNL A   1      47.770 -22.923 -41.715  0.00  0.00    -0.191 NA
ENDBRANCH  23  26
ENDBRANCH  19  20
ENDBRANCH   9  18
TORSDOF 3
ENDMDL
MODEL 13
REMARK VINA RESULT:    -6.671     15.753     18.254
REMARK INTER + INTRA:          -8.418
REMARK INTER:                  -7.799
REMARK INTRA:                  -0.619
REMARK UNBOUND:                -0.577
REMARK  Name = cpd117.pdb
REMARK  5 active torsions:
REMARK  status: ('A' for Active; 'I' for Inactive)
REMARK    1  A    between atoms: C_1  and  C_2
REMARK    2  A    between atoms: C_6  and  C_7
REMARK    3  A    between atoms: C_9  and  N_10
REMARK    4  A    between atoms: C_11  and  C_12
REMARK    5  A    between atoms: C_15  and  C_16
REMARK                            x       y       z     vdW  Elec       q    Type
REMARK                         _______ _______ _______ _____ _____    ______ ____
ROOT
ATOM      1  C   UNL A   1      40.233 -22.274 -37.817  0.00  0.00    -0.046 C 
ATOM      2  C   UNL A   1      40.780 -21.449 -36.694  0.00  0.00    -0.085 C 
ATOM      3  C   UNL A   1      40.451 -21.492 -35.385  0.00  0.00    -0.035 C 
ATOM      4  C   UNL A   1      39.390 -22.414 -34.807  0.00  0.00    +0.006 C 
ATOM      5  C   UNL A   1      39.829 -23.092 -33.527  0.00  0.00    -0.077 C 
ATOM      6  C   UNL A   1      40.839 -22.659 -32.752  0.00  0.00    -0.073 C 
ATOM      7  C   UNL A   1      41.251 -23.360 -31.492  0.00  0.00    -0.044 C 
ATOM      8  C   UNL A   1      41.620 -21.419 -33.124  0.00  0.00    +0.001 C 
ATOM      9  C   UNL A   1      40.989 -20.572 -34.283  0.00  0.00    +0.113 C 
ATOM     10  C   UNL A   1      39.817 -19.760 -33.698  0.00  0.00    -0.000 C 
ATOM     11  C   UNL A   1      39.940 -18.574 -33.080  0.00  0.00    -0.068 C 
ATOM     12  C   UNL A   1      38.797 -17.815 -32.505  0.00  0.00    +0.045 C 
ATOM     13  C   UNL A   1      37.452 -18.513 -32.624  0.00  0.00    +0.240 C 
ATOM     14  O   UNL A   1      36.461 -17.988 -32.118  0.00  0.00    -0.273 OA
ATOM     15  N   UNL A   1      37.362 -19.702 -33.305  0.00  0.00    -0.185 NA
ATOM     16  C   UNL A   1      38.415 -20.279 -33.789  0.00  0.00    +0.040 C 
ATOM     17  C   UNL A   1      38.145 -21.570 -34.560  0.00  0.00    -0.002 C 
ENDROOT
BRANCH   9  18
ATOM     18  N   UNL A   1      41.969 -19.579 -34.789  0.00  0.00    -0.275 NA
ATOM     19  C   UNL A   1      43.230 -19.799 -34.681  0.00  0.00    +0.031 C 
BRANCH  19  20
ATOM     20  C   UNL A   1      44.224 -18.820 -35.164  0.00  0.00    -0.007 A 
ATOM     21  C   UNL A   1      45.297 -19.268 -35.938  0.00  0.00    -0.052 A 
ATOM     22  C   UNL A   1      46.246 -18.352 -36.404  0.00  0.00    -0.044 A 
ATOM     23  C   UNL A   1      46.121 -16.990 -36.101  0.00  0.00    +0.052 A 
ATOM     24  C   UNL A   1      45.041 -16.547 -35.327  0.00  0.00    -0.044 A 
ATOM     25  C   UNL A   1      44.093 -17.461 -34.859  0.00  0.00    -0.052 A 
BRANCH  23  26
ATOM     26  C   UNL A   1      47.095 -16.053 -36.580  0.00  0.00    +0.099 C 
ATOM     27  N   UNL A   1      47.879 -15.291 -36.968  0.00  0.00    -0.191 NA
ENDBRANCH  23  26
ENDBRANCH  19  20
ENDBRANCH   9  18
TORSDOF 3
ENDMDL
MODEL 14
REMARK VINA RESULT:    -6.658     17.654     20.979
REMARK INTER + INTRA:          -8.403
REMARK INTER:                  -7.755
REMARK INTRA:                  -0.648
REMARK UNBOUND:                -0.577
REMARK  Name = cpd117.pdb
REMARK  5 active torsions:
REMARK  status: ('A' for Active; 'I' for Inactive)
REMARK    1  A    between atoms: C_1  and  C_2
REMARK    2  A    between atoms: C_6  and  C_7
REMARK    3  A    between atoms: C_9  and  N_10
REMARK    4  A    between atoms: C_11  and  C_12
REMARK    5  A    between atoms: C_15  and  C_16
REMARK                            x       y       z     vdW  Elec       q    Type
REMARK                         _______ _______ _______ _____ _____    ______ ____
ROOT
ATOM      1  C   UNL A   1      41.483 -16.536 -39.813  0.00  0.00    -0.046 C 
ATOM      2  C   UNL A   1      42.244 -17.557 -39.026  0.00  0.00    -0.085 C 
ATOM      3  C   UNL A   1      43.582 -17.713 -38.929  0.00  0.00    -0.035 C 
ATOM      4  C   UNL A   1      44.592 -16.851 -39.667  0.00  0.00    +0.006 C 
ATOM      5  C   UNL A   1      45.746 -16.411 -38.792  0.00  0.00    -0.077 C 
ATOM      6  C   UNL A   1      46.088 -17.010 -37.638  0.00  0.00    -0.073 C 
ATOM      7  C   UNL A   1      47.235 -16.543 -36.792  0.00  0.00    -0.044 C 
ATOM      8  C   UNL A   1      45.316 -18.207 -37.131  0.00  0.00    +0.001 C 
ATOM      9  C   UNL A   1      44.313 -18.824 -38.167  0.00  0.00    +0.113 C 
ATOM     10  C   UNL A   1      45.122 -19.666 -39.173  0.00  0.00    -0.000 C 
ATOM     11  C   UNL A   1      45.495 -20.942 -38.977  0.00  0.00    -0.068 C 
ATOM     12  C   UNL A   1      46.294 -21.732 -39.954  0.00  0.00    +0.045 C 
ATOM     13  C   UNL A   1      46.711 -20.963 -41.197  0.00  0.00    +0.240 C 
ATOM     14  O   UNL A   1      47.428 -21.517 -42.029  0.00  0.00    -0.273 OA
ATOM     15  N   UNL A   1      46.268 -19.676 -41.380  0.00  0.00    -0.185 NA
ATOM     16  C   UNL A   1      45.558 -19.076 -40.478  0.00  0.00    +0.040 C 
ATOM     17  C   UNL A   1      45.104 -17.666 -40.849  0.00  0.00    -0.002 C 
ENDROOT
BRANCH   9  18
ATOM     18  N   UNL A   1      43.386 -19.765 -37.490  0.00  0.00    -0.275 NA
ATOM     19  C   UNL A   1      43.132 -19.636 -36.238  0.00  0.00    +0.031 C 
BRANCH  19  20
ATOM     20  C   UNL A   1      42.224 -20.569 -35.540  0.00  0.00    -0.007 A 
ATOM     21  C   UNL A   1      41.588 -21.573 -36.274  0.00  0.00    -0.052 A 
ATOM     22  C   UNL A   1      40.725 -22.464 -35.627  0.00  0.00    -0.044 A 
ATOM     23  C   UNL A   1      40.503 -22.355 -34.248  0.00  0.00    +0.052 A 
ATOM     24  C   UNL A   1      41.146 -21.349 -33.518  0.00  0.00    -0.044 A 
ATOM     25  C   UNL A   1      42.007 -20.456 -34.163  0.00  0.00    -0.052 A 
BRANCH  23  26
ATOM     26  C   UNL A   1      39.619 -23.271 -33.587  0.00  0.00    +0.099 C 
ATOM     27  N   UNL A   1      38.900 -24.010 -33.056  0.00  0.00    -0.191 NA
ENDBRANCH  23  26
ENDBRANCH  19  20
ENDBRANCH   9  18
TORSDOF 3
ENDMDL
MODEL 15
REMARK VINA RESULT:    -6.585     16.749     20.117
REMARK INTER + INTRA:          -8.317
REMARK INTER:                  -7.723
REMARK INTRA:                  -0.594
REMARK UNBOUND:                -0.577
REMARK  Name = cpd117.pdb
REMARK  5 active torsions:
REMARK  status: ('A' for Active; 'I' for Inactive)
REMARK    1  A    between atoms: C_1  and  C_2
REMARK    2  A    between atoms: C_6  and  C_7
REMARK    3  A    between atoms: C_9  and  N_10
REMARK    4  A    between atoms: C_11  and  C_12
REMARK    5  A    between atoms: C_15  and  C_16
REMARK                            x       y       z     vdW  Elec       q    Type
REMARK                         _______ _______ _______ _____ _____    ______ ____
ROOT
ATOM      1  C   UNL A   1      43.587 -21.433 -41.515  0.00  0.00    -0.046 C 
ATOM      2  C   UNL A   1      43.320 -20.997 -40.108  0.00  0.00    -0.085 C 
ATOM      3  C   UNL A   1      43.749 -19.881 -39.481  0.00  0.00    -0.035 C 
ATOM      4  C   UNL A   1      44.649 -18.839 -40.124  0.00  0.00    +0.006 C 
ATOM      5  C   UNL A   1      44.199 -17.420 -39.855  0.00  0.00    -0.077 C 
ATOM      6  C   UNL A   1      43.371 -17.068 -38.856  0.00  0.00    -0.073 C 
ATOM      7  C   UNL A   1      42.939 -15.651 -38.623  0.00  0.00    -0.044 C 
ATOM      8  C   UNL A   1      42.825 -18.108 -37.904  0.00  0.00    +0.001 C 
ATOM      9  C   UNL A   1      43.509 -19.515 -38.012  0.00  0.00    +0.113 C 
ATOM     10  C   UNL A   1      44.868 -19.444 -37.289  0.00  0.00    -0.000 C 
ATOM     11  C   UNL A   1      45.042 -19.611 -35.967  0.00  0.00    -0.068 C 
ATOM     12  C   UNL A   1      46.361 -19.519 -35.286  0.00  0.00    +0.045 C 
ATOM     13  C   UNL A   1      47.522 -19.165 -36.203  0.00  0.00    +0.240 C 
ATOM     14  O   UNL A   1      48.640 -19.004 -35.714  0.00  0.00    -0.273 OA
ATOM     15  N   UNL A   1      47.309 -19.051 -37.554  0.00  0.00    -0.185 NA
ATOM     16  C   UNL A   1      46.122 -19.168 -38.059  0.00  0.00    +0.040 C 
ATOM     17  C   UNL A   1      46.057 -19.061 -39.581  0.00  0.00    -0.002 C 
ENDROOT
BRANCH   9  18
ATOM     18  N   UNL A   1      42.707 -20.535 -37.289  0.00  0.00    -0.275 NA
ATOM     19  C   UNL A   1      41.650 -20.191 -36.646  0.00  0.00    +0.031 C 
BRANCH  19  20
ATOM     20  C   UNL A   1      40.845 -21.185 -35.908  0.00  0.00    -0.007 A 
ATOM     21  C   UNL A   1      40.901 -21.200 -34.511  0.00  0.00    -0.052 A 
ATOM     22  C   UNL A   1      40.144 -22.136 -33.797  0.00  0.00    -0.044 A 
ATOM     23  C   UNL A   1      39.329 -23.051 -34.477  0.00  0.00    +0.052 A 
ATOM     24  C   UNL A   1      39.276 -23.029 -35.876  0.00  0.00    -0.044 A 
ATOM     25  C   UNL A   1      40.033 -22.096 -36.591  0.00  0.00    -0.052 A 
BRANCH  23  26
ATOM     26  C   UNL A   1      38.554 -24.008 -33.743  0.00  0.00    +0.099 C 
ATOM     27  N   UNL A   1      37.923 -24.780 -33.150  0.00  0.00    -0.191 NA
ENDBRANCH  23  26
ENDBRANCH  19  20
ENDBRANCH   9  18
TORSDOF 3
ENDMDL
MODEL 16
REMARK VINA RESULT:    -6.566      3.803      7.247
REMARK INTER + INTRA:          -8.295
REMARK INTER:                  -7.707
REMARK INTRA:                  -0.588
REMARK UNBOUND:                -0.577
REMARK  Name = cpd117.pdb
REMARK  5 active torsions:
REMARK  status: ('A' for Active; 'I' for Inactive)
REMARK    1  A    between atoms: C_1  and  C_2
REMARK    2  A    between atoms: C_6  and  C_7
REMARK    3  A    between atoms: C_9  and  N_10
REMARK    4  A    between atoms: C_11  and  C_12
REMARK    5  A    between atoms: C_15  and  C_16
REMARK                            x       y       z     vdW  Elec       q    Type
REMARK                         _______ _______ _______ _____ _____    ______ ____
ROOT
ATOM      1  C   UNL A   1      33.162 -39.625 -27.326  0.00  0.00    -0.046 C 
ATOM      2  C   UNL A   1      33.670 -39.247 -28.682  0.00  0.00    -0.085 C 
ATOM      3  C   UNL A   1      34.590 -38.310 -29.000  0.00  0.00    -0.035 C 
ATOM      4  C   UNL A   1      35.278 -37.416 -27.983  0.00  0.00    +0.006 C 
ATOM      5  C   UNL A   1      36.768 -37.292 -28.214  0.00  0.00    -0.077 C 
ATOM      6  C   UNL A   1      37.377 -37.578 -29.378  0.00  0.00    -0.073 C 
ATOM      7  C   UNL A   1      38.859 -37.451 -29.570  0.00  0.00    -0.044 C 
ATOM      8  C   UNL A   1      36.578 -38.051 -30.571  0.00  0.00    +0.001 C 
ATOM      9  C   UNL A   1      35.024 -37.908 -30.415  0.00  0.00    +0.113 C 
ATOM     10  C   UNL A   1      34.654 -36.430 -30.646  0.00  0.00    -0.000 C 
ATOM     11  C   UNL A   1      34.448 -35.872 -31.850  0.00  0.00    -0.068 C 
ATOM     12  C   UNL A   1      34.110 -34.437 -32.053  0.00  0.00    +0.045 C 
ATOM     13  C   UNL A   1      34.060 -33.614 -30.776  0.00  0.00    +0.240 C 
ATOM     14  O   UNL A   1      33.852 -32.404 -30.854  0.00  0.00    -0.273 OA
ATOM     15  N   UNL A   1      34.229 -34.233 -29.562  0.00  0.00    -0.185 NA
ATOM     16  C   UNL A   1      34.501 -35.496 -29.485  0.00  0.00    +0.040 C 
ATOM     17  C   UNL A   1      34.613 -36.046 -28.065  0.00  0.00    -0.002 C 
ENDROOT
BRANCH   9  18
ATOM     18  N   UNL A   1      34.326 -38.681 -31.473  0.00  0.00    -0.275 NA
ATOM     19  C   UNL A   1      34.847 -39.758 -31.940  0.00  0.00    +0.031 C 
BRANCH  19  20
ATOM     20  C   UNL A   1      34.178 -40.535 -33.002  0.00  0.00    -0.007 A 
ATOM     21  C   UNL A   1      34.597 -41.845 -33.251  0.00  0.00    -0.052 A 
ATOM     22  C   UNL A   1      33.973 -42.594 -34.254  0.00  0.00    -0.044 A 
ATOM     23  C   UNL A   1      32.929 -42.037 -35.004  0.00  0.00    +0.052 A 
ATOM     24  C   UNL A   1      32.512 -40.725 -34.749  0.00  0.00    -0.044 A 
ATOM     25  C   UNL A   1      33.136 -39.974 -33.748  0.00  0.00    -0.052 A 
BRANCH  23  26
ATOM     26  C   UNL A   1      32.290 -42.807 -36.032  0.00  0.00    +0.099 C 
ATOM     27  N   UNL A   1      31.778 -43.430 -36.865  0.00  0.00    -0.191 NA
ENDBRANCH  23  26
ENDBRANCH  19  20
ENDBRANCH   9  18
TORSDOF 3
ENDMDL
MODEL 17
REMARK VINA RESULT:    -6.481     16.140     18.775
REMARK INTER + INTRA:          -8.195
REMARK INTER:                  -7.545
REMARK INTRA:                  -0.650
REMARK UNBOUND:                -0.577
REMARK  Name = cpd117.pdb
REMARK  5 active torsions:
REMARK  status: ('A' for Active; 'I' for Inactive)
REMARK    1  A    between atoms: C_1  and  C_2
REMARK    2  A    between atoms: C_6  and  C_7
REMARK    3  A    between atoms: C_9  and  N_10
REMARK    4  A    between atoms: C_11  and  C_12
REMARK    5  A    between atoms: C_15  and  C_16
REMARK                            x       y       z     vdW  Elec       q    Type
REMARK                         _______ _______ _______ _____ _____    ______ ____
ROOT
ATOM      1  C   UNL A   1      44.995 -17.656 -34.386  0.00  0.00    -0.046 C 
ATOM      2  C   UNL A   1      44.338 -18.536 -35.404  0.00  0.00    -0.085 C 
ATOM      3  C   UNL A   1      43.019 -18.699 -35.644  0.00  0.00    -0.035 C 
ATOM      4  C   UNL A   1      41.921 -18.001 -34.860  0.00  0.00    +0.006 C 
ATOM      5  C   UNL A   1      40.830 -17.436 -35.743  0.00  0.00    -0.077 C 
ATOM      6  C   UNL A   1      40.607 -17.828 -37.009  0.00  0.00    -0.073 C 
ATOM      7  C   UNL A   1      39.519 -17.241 -37.859  0.00  0.00    -0.044 C 
ATOM      8  C   UNL A   1      41.460 -18.900 -37.647  0.00  0.00    +0.001 C 
ATOM      9  C   UNL A   1      42.394 -19.671 -36.651  0.00  0.00    +0.113 C 
ATOM     10  C   UNL A   1      41.533 -20.694 -35.884  0.00  0.00    -0.000 C 
ATOM     11  C   UNL A   1      41.223 -21.922 -36.332  0.00  0.00    -0.068 C 
ATOM     12  C   UNL A   1      40.374 -22.888 -35.583  0.00  0.00    +0.045 C 
ATOM     13  C   UNL A   1      39.827 -22.360 -34.266  0.00  0.00    +0.240 C 
ATOM     14  O   UNL A   1      39.063 -23.067 -33.611  0.00  0.00    -0.273 OA
ATOM     15  N   UNL A   1      40.208 -21.117 -33.823  0.00  0.00    -0.185 NA
ATOM     16  C   UNL A   1      40.969 -20.353 -34.539  0.00  0.00    +0.040 C 
ATOM     17  C   UNL A   1      41.341 -19.023 -33.888  0.00  0.00    -0.002 C 
ENDROOT
BRANCH   9  18
ATOM     18  N   UNL A   1      43.407 -20.459 -37.397  0.00  0.00    -0.275 NA
ATOM     19  C   UNL A   1      43.701 -20.152 -38.609  0.00  0.00    +0.031 C 
BRANCH  19  20
ATOM     20  C   UNL A   1      44.695 -20.930 -39.376  0.00  0.00    -0.007 A 
ATOM     21  C   UNL A   1      45.933 -21.213 -38.792  0.00  0.00    -0.052 A 
ATOM     22  C   UNL A   1      46.884 -21.949 -39.506  0.00  0.00    -0.044 A 
ATOM     23  C   UNL A   1      46.599 -22.406 -40.799  0.00  0.00    +0.052 A 
ATOM     24  C   UNL A   1      45.356 -22.121 -41.378  0.00  0.00    -0.044 A 
ATOM     25  C   UNL A   1      44.405 -21.384 -40.667  0.00  0.00    -0.052 A 
BRANCH  23  26
ATOM     26  C   UNL A   1      47.576 -23.161 -41.528  0.00  0.00    +0.099 C 
ATOM     27  N   UNL A   1      48.369 -23.772 -42.114  0.00  0.00    -0.191 NA
ENDBRANCH  23  26
ENDBRANCH  19  20
ENDBRANCH   9  18
TORSDOF 3
ENDMDL
MODEL 18
REMARK VINA RESULT:    -6.319     20.507     23.119
REMARK INTER + INTRA:          -8.004
REMARK INTER:                  -7.354
REMARK INTRA:                  -0.651
REMARK UNBOUND:                -0.577
REMARK  Name = cpd117.pdb
REMARK  5 active torsions:
REMARK  status: ('A' for Active; 'I' for Inactive)
REMARK    1  A    between atoms: C_1  and  C_2
REMARK    2  A    between atoms: C_6  and  C_7
REMARK    3  A    between atoms: C_9  and  N_10
REMARK    4  A    between atoms: C_11  and  C_12
REMARK    5  A    between atoms: C_15  and  C_16
REMARK                            x       y       z     vdW  Elec       q    Type
REMARK                         _______ _______ _______ _____ _____    ______ ____
ROOT
ATOM      1  C   UNL A   1      42.010 -16.659 -39.766  0.00  0.00    -0.046 C 
ATOM      2  C   UNL A   1      43.464 -16.981 -39.614  0.00  0.00    -0.085 C 
ATOM      3  C   UNL A   1      44.037 -18.184 -39.392  0.00  0.00    -0.035 C 
ATOM      4  C   UNL A   1      43.256 -19.477 -39.221  0.00  0.00    +0.006 C 
ATOM      5  C   UNL A   1      43.850 -20.634 -39.995  0.00  0.00    -0.077 C 
ATOM      6  C   UNL A   1      45.114 -20.667 -40.450  0.00  0.00    -0.073 C 
ATOM      7  C   UNL A   1      45.668 -21.828 -41.220  0.00  0.00    -0.044 C 
ATOM      8  C   UNL A   1      46.055 -19.510 -40.200  0.00  0.00    +0.001 C 
ATOM      9  C   UNL A   1      45.529 -18.452 -39.169  0.00  0.00    +0.113 C 
ATOM     10  C   UNL A   1      45.724 -19.026 -37.752  0.00  0.00    -0.000 C 
ATOM     11  C   UNL A   1      46.865 -18.950 -37.046  0.00  0.00    -0.068 C 
ATOM     12  C   UNL A   1      47.038 -19.528 -35.686  0.00  0.00    +0.045 C 
ATOM     13  C   UNL A   1      45.823 -20.273 -35.157  0.00  0.00    +0.240 C 
ATOM     14  O   UNL A   1      45.898 -20.840 -34.067  0.00  0.00    -0.273 OA
ATOM     15  N   UNL A   1      44.662 -20.287 -35.891  0.00  0.00    -0.185 NA
ATOM     16  C   UNL A   1      44.602 -19.736 -37.061  0.00  0.00    +0.040 C 
ATOM     17  C   UNL A   1      43.230 -19.794 -37.730  0.00  0.00    -0.002 C 
ENDROOT
BRANCH   9  18
ATOM     18  N   UNL A   1      46.352 -17.217 -39.233  0.00  0.00    -0.275 NA
ATOM     19  C   UNL A   1      47.043 -16.953 -40.282  0.00  0.00    +0.031 C 
BRANCH  19  20
ATOM     20  C   UNL A   1      47.880 -15.738 -40.362  0.00  0.00    -0.007 A 
ATOM     21  C   UNL A   1      48.289 -15.279 -41.617  0.00  0.00    -0.052 A 
ATOM     22  C   UNL A   1      49.081 -14.129 -41.709  0.00  0.00    -0.044 A 
ATOM     23  C   UNL A   1      49.460 -13.438 -40.551  0.00  0.00    +0.052 A 
ATOM     24  C   UNL A   1      49.044 -13.902 -39.298  0.00  0.00    -0.044 A 
ATOM     25  C   UNL A   1      48.254 -15.051 -39.203  0.00  0.00    -0.052 A 
BRANCH  23  26
ATOM     26  C   UNL A   1      50.272 -12.259 -40.649  0.00  0.00    +0.099 C 
ATOM     27  N   UNL A   1      50.930 -11.307 -40.723  0.00  0.00    -0.191 NA
ENDBRANCH  23  26
ENDBRANCH  19  20
ENDBRANCH   9  18
TORSDOF 3
ENDMDL
MODEL 19
REMARK VINA RESULT:    -6.170     17.728     21.042
REMARK INTER + INTRA:          -7.829
REMARK INTER:                  -7.159
REMARK INTRA:                  -0.670
REMARK UNBOUND:                -0.577
REMARK  Name = cpd117.pdb
REMARK  5 active torsions:
REMARK  status: ('A' for Active; 'I' for Inactive)
REMARK    1  A    between atoms: C_1  and  C_2
REMARK    2  A    between atoms: C_6  and  C_7
REMARK    3  A    between atoms: C_9  and  N_10
REMARK    4  A    between atoms: C_11  and  C_12
REMARK    5  A    between atoms: C_15  and  C_16
REMARK                            x       y       z     vdW  Elec       q    Type
REMARK                         _______ _______ _______ _____ _____    ______ ____
ROOT
ATOM      1  C   UNL A   1      47.240 -19.756 -37.088  0.00  0.00    -0.046 C 
ATOM      2  C   UNL A   1      45.818 -19.844 -37.549  0.00  0.00    -0.085 C 
ATOM      3  C   UNL A   1      45.328 -19.650 -38.793  0.00  0.00    -0.035 C 
ATOM      4  C   UNL A   1      46.179 -19.260 -39.989  0.00  0.00    +0.006 C 
ATOM      5  C   UNL A   1      45.846 -20.050 -41.236  0.00  0.00    -0.077 C 
ATOM      6  C   UNL A   1      44.694 -20.719 -41.419  0.00  0.00    -0.073 C 
ATOM      7  C   UNL A   1      44.400 -21.499 -42.666  0.00  0.00    -0.044 C 
ATOM      8  C   UNL A   1      43.621 -20.715 -40.353  0.00  0.00    +0.001 C 
ATOM      9  C   UNL A   1      43.850 -19.678 -39.200  0.00  0.00    +0.113 C 
ATOM     10  C   UNL A   1      43.453 -18.284 -39.724  0.00  0.00    -0.000 C 
ATOM     11  C   UNL A   1      42.201 -17.797 -39.731  0.00  0.00    -0.068 C 
ATOM     12  C   UNL A   1      41.836 -16.455 -40.260  0.00  0.00    +0.045 C 
ATOM     13  C   UNL A   1      42.997 -15.673 -40.852  0.00  0.00    +0.240 C 
ATOM     14  O   UNL A   1      42.776 -14.579 -41.371  0.00  0.00    -0.273 OA
ATOM     15  N   UNL A   1      44.268 -16.186 -40.781  0.00  0.00    -0.185 NA
ATOM     16  C   UNL A   1      44.490 -17.360 -40.283  0.00  0.00    +0.040 C 
ATOM     17  C   UNL A   1      45.961 -17.770 -40.232  0.00  0.00    -0.002 C 
ENDROOT
BRANCH   9  18
ATOM     18  N   UNL A   1      42.944 -19.966 -38.060  0.00  0.00    -0.275 NA
ATOM     19  C   UNL A   1      42.351 -21.102 -37.975  0.00  0.00    +0.031 C 
BRANCH  19  20
ATOM     20  C   UNL A   1      41.434 -21.406 -36.858  0.00  0.00    -0.007 A 
ATOM     21  C   UNL A   1      41.727 -20.909 -35.585  0.00  0.00    -0.052 A 
ATOM     22  C   UNL A   1      40.868 -21.188 -34.517  0.00  0.00    -0.044 A 
ATOM     23  C   UNL A   1      39.715 -21.957 -34.721  0.00  0.00    +0.052 A 
ATOM     24  C   UNL A   1      39.425 -22.449 -35.999  0.00  0.00    -0.044 A 
ATOM     25  C   UNL A   1      40.283 -22.173 -37.067  0.00  0.00    -0.052 A 
BRANCH  23  26
ATOM     26  C   UNL A   1      38.835 -22.241 -33.624  0.00  0.00    +0.099 C 
ATOM     27  N   UNL A   1      38.127 -22.473 -32.735  0.00  0.00    -0.191 NA
ENDBRANCH  23  26
ENDBRANCH  19  20
ENDBRANCH   9  18
TORSDOF 3
ENDMDL
MODEL 20
REMARK VINA RESULT:    -6.118     21.118     24.007
REMARK INTER + INTRA:          -7.768
REMARK INTER:                  -7.190
REMARK INTRA:                  -0.577
REMARK UNBOUND:                -0.577
REMARK  Name = cpd117.pdb
REMARK  5 active torsions:
REMARK  status: ('A' for Active; 'I' for Inactive)
REMARK    1  A    between atoms: C_1  and  C_2
REMARK    2  A    between atoms: C_6  and  C_7
REMARK    3  A    between atoms: C_9  and  N_10
REMARK    4  A    between atoms: C_11  and  C_12
REMARK    5  A    between atoms: C_15  and  C_16
REMARK                            x       y       z     vdW  Elec       q    Type
REMARK                         _______ _______ _______ _____ _____    ______ ____
ROOT
ATOM      1  C   UNL A   1      47.487 -18.449 -35.391  0.00  0.00    -0.046 C 
ATOM      2  C   UNL A   1      47.269 -18.064 -36.822  0.00  0.00    -0.085 C 
ATOM      3  C   UNL A   1      46.341 -18.535 -37.683  0.00  0.00    -0.035 C 
ATOM      4  C   UNL A   1      45.329 -19.614 -37.334  0.00  0.00    +0.006 C 
ATOM      5  C   UNL A   1      43.931 -19.292 -37.816  0.00  0.00    -0.077 C 
ATOM      6  C   UNL A   1      43.653 -18.393 -38.777  0.00  0.00    -0.073 C 
ATOM      7  C   UNL A   1      42.254 -18.094 -39.226  0.00  0.00    -0.044 C 
ATOM      8  C   UNL A   1      44.763 -17.629 -39.463  0.00  0.00    +0.001 C 
ATOM      9  C   UNL A   1      46.206 -18.163 -39.164  0.00  0.00    +0.113 C 
ATOM     10  C   UNL A   1      46.435 -19.426 -40.016  0.00  0.00    -0.000 C 
ATOM     11  C   UNL A   1      46.848 -19.422 -41.295  0.00  0.00    -0.068 C 
ATOM     12  C   UNL A   1      47.044 -20.654 -42.107  0.00  0.00    +0.045 C 
ATOM     13  C   UNL A   1      46.691 -21.946 -41.389  0.00  0.00    +0.240 C 
ATOM     14  O   UNL A   1      46.761 -23.009 -42.006  0.00  0.00    -0.273 OA
ATOM     15  N   UNL A   1      46.319 -21.909 -40.068  0.00  0.00    -0.185 NA
ATOM     16  C   UNL A   1      46.194 -20.785 -39.437  0.00  0.00    +0.040 C 
ATOM     17  C   UNL A   1      45.820 -20.913 -37.962  0.00  0.00    -0.002 C 
ENDROOT
BRANCH   9  18
ATOM     18  N   UNL A   1      47.223 -17.175 -39.605  0.00  0.00    -0.275 NA
ATOM     19  C   UNL A   1      46.957 -15.919 -39.585  0.00  0.00    +0.031 C 
BRANCH  19  20
ATOM     20  C   UNL A   1      47.948 -14.919 -40.033  0.00  0.00    -0.007 A 
ATOM     21  C   UNL A   1      47.994 -14.568 -41.385  0.00  0.00    -0.052 A 
ATOM     22  C   UNL A   1      48.927 -13.621 -41.823  0.00  0.00    -0.044 A 
ATOM     23  C   UNL A   1      49.808 -13.024 -40.913  0.00  0.00    +0.052 A 
ATOM     24  C   UNL A   1      49.755 -13.378 -39.560  0.00  0.00    -0.044 A 
ATOM     25  C   UNL A   1      48.825 -14.325 -39.119  0.00  0.00    -0.052 A 
BRANCH  23  26
ATOM     26  C   UNL A   1      50.763 -12.054 -41.365  0.00  0.00    +0.099 C 
ATOM     27  N   UNL A   1      51.538 -11.271 -41.727  0.00  0.00    -0.191 NA
ENDBRANCH  23  26
ENDBRANCH  19  20
ENDBRANCH   9  18
TORSDOF 3
ENDMDL
