MODEL 1
REMARK VINA RESULT:    -5.926      0.000      0.000
REMARK INTER + INTRA:          -6.445
REMARK INTER:                  -6.445
REMARK INTRA:                   0.000
REMARK UNBOUND:                 0.000
REMARK  Name = cpd213.pdb
REMARK  5 active torsions:
REMARK  status: ('A' for Active; 'I' for Inactive)
REMARK    1  A    between atoms: C_1  and  N_2
REMARK    2  A    between atoms: N_2  and  C_3
REMARK    3  A    between atoms: N_2  and  C_4
REMARK    4  A    between atoms: N_2  and  C_5
REMARK    5  A    between atoms: C_9  and  N_10
REMARK                            x       y       z     vdW  Elec       q    Type
REMARK                         _______ _______ _______ _____ _____    ______ ____
ROOT
ATOM      1  C   UNL A   1      40.107 -36.245 -31.540  0.00  0.00    +0.017 A 
ATOM      2  C   UNL A   1      41.126 -36.535 -32.617  0.00  0.00    -0.042 A 
ATOM      3  C   UNL A   1      42.150 -37.475 -32.475  0.00  0.00    -0.058 A 
ATOM      4  C   UNL A   1      42.285 -38.196 -31.286  0.00  0.00    -0.041 A 
ATOM      5  C   UNL A   1      41.451 -37.979 -30.188  0.00  0.00    +0.026 A 
ATOM      6  C   UNL A   1      40.377 -37.084 -30.316  0.00  0.00    -0.021 A 
ENDROOT
BRANCH   1   8
ATOM      7  C   UNL A   1      40.018 -34.858 -31.801  0.00  0.00    -0.015 C 
ATOM      8  N   UNL A   1      39.357 -35.589 -31.633  0.00  0.00    -0.390 NA
ATOM      9  C   UNL A   1      38.608 -34.933 -31.727  0.00  0.00    -0.015 C 
ATOM     10  C   UNL A   1      38.696 -36.321 -31.466  0.00  0.00    -0.015 C 
ENDBRANCH   1   8
BRANCH   5  11
ATOM     11  N   UNL A   1      41.535 -38.813 -29.072  0.00  0.00    -0.358 N 
ATOM     12  H   UNL A   1      41.036 -38.590 -28.253  0.00  0.00    +0.000 HD
ATOM     13  H   UNL A   1      42.093 -39.623 -29.104  0.00  0.00    +0.000 HD
ENDBRANCH   5  11
TORSDOF 2
ENDMDL
MODEL 2
REMARK VINA RESULT:    -5.839      1.453      3.837
REMARK INTER + INTRA:          -6.350
REMARK INTER:                  -6.277
REMARK INTRA:                  -0.074
REMARK UNBOUND:                 0.000
REMARK  Name = cpd213.pdb
REMARK  5 active torsions:
REMARK  status: ('A' for Active; 'I' for Inactive)
REMARK    1  A    between atoms: C_1  and  N_2
REMARK    2  A    between atoms: N_2  and  C_3
REMARK    3  A    between atoms: N_2  and  C_4
REMARK    4  A    between atoms: N_2  and  C_5
REMARK    5  A    between atoms: C_9  and  N_10
REMARK                            x       y       z     vdW  Elec       q    Type
REMARK                         _______ _______ _______ _____ _____    ______ ____
ROOT
ATOM      1  C   UNL A   1      41.154 -36.914 -30.993  0.00  0.00    +0.017 A 
ATOM      2  C   UNL A   1      40.395 -37.475 -29.813  0.00  0.00    -0.042 A 
ATOM      3  C   UNL A   1      39.005 -37.408 -29.687  0.00  0.00    -0.058 A 
ATOM      4  C   UNL A   1      38.239 -36.783 -30.674  0.00  0.00    -0.041 A 
ATOM      5  C   UNL A   1      38.818 -36.167 -31.785  0.00  0.00    +0.026 A 
ATOM      6  C   UNL A   1      40.206 -36.265 -31.970  0.00  0.00    -0.021 A 
ENDROOT
BRANCH   1   8
ATOM      7  C   UNL A   1      42.060 -37.934 -31.365  0.00  0.00    -0.015 C 
ATOM      8  N   UNL A   1      42.146 -36.972 -31.105  0.00  0.00    -0.390 NA
ATOM      9  C   UNL A   1      43.138 -37.030 -31.218  0.00  0.00    -0.015 C 
ATOM     10  C   UNL A   1      42.231 -36.011 -30.845  0.00  0.00    -0.015 C 
ENDBRANCH   1   8
BRANCH   5  11
ATOM     11  N   UNL A   1      38.011 -35.674 -32.811  0.00  0.00    -0.358 N 
ATOM     12  H   UNL A   1      38.274 -35.804 -33.750  0.00  0.00    +0.000 HD
ATOM     13  H   UNL A   1      37.178 -35.196 -32.595  0.00  0.00    +0.000 HD
ENDBRANCH   5  11
TORSDOF 2
ENDMDL
MODEL 3
REMARK VINA RESULT:    -5.490      1.315      2.531
REMARK INTER + INTRA:          -5.971
REMARK INTER:                  -6.125
REMARK INTRA:                   0.154
REMARK UNBOUND:                 0.000
REMARK  Name = cpd213.pdb
REMARK  5 active torsions:
REMARK  status: ('A' for Active; 'I' for Inactive)
REMARK    1  A    between atoms: C_1  and  N_2
REMARK    2  A    between atoms: N_2  and  C_3
REMARK    3  A    between atoms: N_2  and  C_4
REMARK    4  A    between atoms: N_2  and  C_5
REMARK    5  A    between atoms: C_9  and  N_10
REMARK                            x       y       z     vdW  Elec       q    Type
REMARK                         _______ _______ _______ _____ _____    ______ ____
ROOT
ATOM      1  C   UNL A   1      40.273 -36.795 -30.976  0.00  0.00    +0.017 A 
ATOM      2  C   UNL A   1      38.846 -36.854 -30.484  0.00  0.00    -0.042 A 
ATOM      3  C   UNL A   1      38.454 -37.555 -29.341  0.00  0.00    -0.058 A 
ATOM      4  C   UNL A   1      39.395 -38.265 -28.593  0.00  0.00    -0.041 A 
ATOM      5  C   UNL A   1      40.736 -38.348 -28.973  0.00  0.00    +0.026 A 
ATOM      6  C   UNL A   1      41.175 -37.610 -30.083  0.00  0.00    -0.021 A 
ENDROOT
BRANCH   1   8
ATOM      7  C   UNL A   1      41.197 -37.024 -32.023  0.00  0.00    -0.015 C 
ATOM      8  N   UNL A   1      40.572 -36.282 -31.781  0.00  0.00    -0.390 NA
ATOM      9  C   UNL A   1      40.871 -35.769 -32.586  0.00  0.00    -0.015 C 
ATOM     10  C   UNL A   1      39.948 -35.539 -31.539  0.00  0.00    -0.015 C 
ENDBRANCH   1   8
BRANCH   5  11
ATOM     11  N   UNL A   1      41.666 -38.955 -28.127  0.00  0.00    -0.358 N 
ATOM     12  H   UNL A   1      42.465 -39.388 -28.504  0.00  0.00    +0.000 HD
ATOM     13  H   UNL A   1      41.522 -38.949 -27.153  0.00  0.00    +0.000 HD
ENDBRANCH   5  11
TORSDOF 2
ENDMDL
MODEL 4
REMARK VINA RESULT:    -5.461      1.622      3.338
REMARK INTER + INTRA:          -5.940
REMARK INTER:                  -5.863
REMARK INTRA:                  -0.077
REMARK UNBOUND:                 0.000
REMARK  Name = cpd213.pdb
REMARK  5 active torsions:
REMARK  status: ('A' for Active; 'I' for Inactive)
REMARK    1  A    between atoms: C_1  and  N_2
REMARK    2  A    between atoms: N_2  and  C_3
REMARK    3  A    between atoms: N_2  and  C_4
REMARK    4  A    between atoms: N_2  and  C_5
REMARK    5  A    between atoms: C_9  and  N_10
REMARK                            x       y       z     vdW  Elec       q    Type
REMARK                         _______ _______ _______ _____ _____    ______ ____
ROOT
ATOM      1  C   UNL A   1      41.434 -36.783 -31.400  0.00  0.00    +0.017 A 
ATOM      2  C   UNL A   1      40.845 -36.059 -32.588  0.00  0.00    -0.042 A 
ATOM      3  C   UNL A   1      39.487 -35.749 -32.705  0.00  0.00    -0.058 A 
ATOM      4  C   UNL A   1      38.590 -36.124 -31.703  0.00  0.00    -0.041 A 
ATOM      5  C   UNL A   1      38.991 -36.855 -30.583  0.00  0.00    +0.026 A 
ATOM      6  C   UNL A   1      40.355 -37.133 -30.405  0.00  0.00    -0.021 A 
ENDROOT
BRANCH   1   8
ATOM      7  C   UNL A   1      42.226 -37.946 -31.542  0.00  0.00    -0.015 C 
ATOM      8  N   UNL A   1      42.406 -36.994 -31.293  0.00  0.00    -0.390 NA
ATOM      9  C   UNL A   1      43.378 -37.205 -31.186  0.00  0.00    -0.015 C 
ATOM     10  C   UNL A   1      42.585 -36.042 -31.044  0.00  0.00    -0.015 C 
ENDBRANCH   1   8
BRANCH   5  11
ATOM     11  N   UNL A   1      38.090 -37.092 -29.544  0.00  0.00    -0.358 N 
ATOM     12  H   UNL A   1      37.391 -36.431 -29.339  0.00  0.00    +0.000 HD
ATOM     13  H   UNL A   1      38.156 -37.920 -29.015  0.00  0.00    +0.000 HD
ENDBRANCH   5  11
TORSDOF 2
ENDMDL
MODEL 5
REMARK VINA RESULT:    -5.325     20.848     22.414
REMARK INTER + INTRA:          -5.791
REMARK INTER:                  -5.689
REMARK INTRA:                  -0.103
REMARK UNBOUND:                 0.000
REMARK  Name = cpd213.pdb
REMARK  5 active torsions:
REMARK  status: ('A' for Active; 'I' for Inactive)
REMARK    1  A    between atoms: C_1  and  N_2
REMARK    2  A    between atoms: N_2  and  C_3
REMARK    3  A    between atoms: N_2  and  C_4
REMARK    4  A    between atoms: N_2  and  C_5
REMARK    5  A    between atoms: C_9  and  N_10
REMARK                            x       y       z     vdW  Elec       q    Type
REMARK                         _______ _______ _______ _____ _____    ______ ____
ROOT
ATOM      1  C   UNL A   1      56.007 -35.726 -48.011  0.00  0.00    +0.017 A 
ATOM      2  C   UNL A   1      56.516 -34.314 -47.834  0.00  0.00    -0.042 A 
ATOM      3  C   UNL A   1      56.163 -33.497 -46.757  0.00  0.00    -0.058 A 
ATOM      4  C   UNL A   1      55.284 -33.963 -45.777  0.00  0.00    -0.041 A 
ATOM      5  C   UNL A   1      54.689 -35.224 -45.853  0.00  0.00    +0.026 A 
ATOM      6  C   UNL A   1      55.065 -36.092 -46.890  0.00  0.00    -0.021 A 
ENDROOT
BRANCH   1   8
ATOM      7  C   UNL A   1      55.532 -35.943 -49.325  0.00  0.00    -0.015 C 
ATOM      8  N   UNL A   1      56.266 -36.329 -48.765  0.00  0.00    -0.390 NA
ATOM      9  C   UNL A   1      56.524 -36.932 -49.520  0.00  0.00    -0.015 C 
ATOM     10  C   UNL A   1      56.999 -36.714 -48.206  0.00  0.00    -0.015 C 
ENDBRANCH   1   8
BRANCH   5  11
ATOM     11  N   UNL A   1      53.925 -35.701 -44.788  0.00  0.00    -0.358 N 
ATOM     12  H   UNL A   1      53.955 -35.244 -43.917  0.00  0.00    +0.000 HD
ATOM     13  H   UNL A   1      53.356 -36.496 -44.908  0.00  0.00    +0.000 HD
ENDBRANCH   5  11
TORSDOF 2
ENDMDL
MODEL 6
REMARK VINA RESULT:    -5.199      2.034      3.911
REMARK INTER + INTRA:          -5.655
REMARK INTER:                  -5.655
REMARK INTRA:                   0.000
REMARK UNBOUND:                 0.000
REMARK  Name = cpd213.pdb
REMARK  5 active torsions:
REMARK  status: ('A' for Active; 'I' for Inactive)
REMARK    1  A    between atoms: C_1  and  N_2
REMARK    2  A    between atoms: N_2  and  C_3
REMARK    3  A    between atoms: N_2  and  C_4
REMARK    4  A    between atoms: N_2  and  C_5
REMARK    5  A    between atoms: C_9  and  N_10
REMARK                            x       y       z     vdW  Elec       q    Type
REMARK                         _______ _______ _______ _____ _____    ______ ____
ROOT
ATOM      1  C   UNL A   1      39.826 -35.767 -31.589  0.00  0.00    +0.017 A 
ATOM      2  C   UNL A   1      39.612 -36.760 -30.471  0.00  0.00    -0.042 A 
ATOM      3  C   UNL A   1      38.370 -36.992 -29.874  0.00  0.00    -0.058 A 
ATOM      4  C   UNL A   1      37.244 -36.278 -30.290  0.00  0.00    -0.041 A 
ATOM      5  C   UNL A   1      37.315 -35.285 -31.268  0.00  0.00    +0.026 A 
ATOM      6  C   UNL A   1      38.534 -35.066 -31.929  0.00  0.00    -0.021 A 
ENDROOT
BRANCH   1   8
ATOM      7  C   UNL A   1      40.303 -35.868 -32.916  0.00  0.00    -0.015 C 
ATOM      8  N   UNL A   1      40.704 -35.604 -32.039  0.00  0.00    -0.390 NA
ATOM      9  C   UNL A   1      41.582 -35.441 -32.489  0.00  0.00    -0.015 C 
ATOM     10  C   UNL A   1      41.105 -35.339 -31.162  0.00  0.00    -0.015 C 
ENDBRANCH   1   8
BRANCH   5  11
ATOM     11  N   UNL A   1      36.146 -34.692 -31.748  0.00  0.00    -0.358 N 
ATOM     12  H   UNL A   1      35.998 -34.609 -32.718  0.00  0.00    +0.000 HD
ATOM     13  H   UNL A   1      35.469 -34.357 -31.116  0.00  0.00    +0.000 HD
ENDBRANCH   5  11
TORSDOF 2
ENDMDL
MODEL 7
REMARK VINA RESULT:    -5.140     26.392     26.900
REMARK INTER + INTRA:          -5.590
REMARK INTER:                  -5.597
REMARK INTRA:                   0.007
REMARK UNBOUND:                 0.000
REMARK  Name = cpd213.pdb
REMARK  5 active torsions:
REMARK  status: ('A' for Active; 'I' for Inactive)
REMARK    1  A    between atoms: C_1  and  N_2
REMARK    2  A    between atoms: N_2  and  C_3
REMARK    3  A    between atoms: N_2  and  C_4
REMARK    4  A    between atoms: N_2  and  C_5
REMARK    5  A    between atoms: C_9  and  N_10
REMARK                            x       y       z     vdW  Elec       q    Type
REMARK                         _______ _______ _______ _____ _____    ______ ____
ROOT
ATOM      1  C   UNL A   1      56.694 -22.343 -47.265  0.00  0.00    +0.017 A 
ATOM      2  C   UNL A   1      55.433 -22.050 -48.043  0.00  0.00    -0.042 A 
ATOM      3  C   UNL A   1      54.849 -22.954 -48.935  0.00  0.00    -0.058 A 
ATOM      4  C   UNL A   1      55.438 -24.200 -49.160  0.00  0.00    -0.041 A 
ATOM      5  C   UNL A   1      56.640 -24.574 -48.555  0.00  0.00    +0.026 A 
ATOM      6  C   UNL A   1      57.222 -23.713 -47.612  0.00  0.00    -0.021 A 
ENDROOT
BRANCH   1   8
ATOM      7  C   UNL A   1      56.282 -21.741 -46.053  0.00  0.00    -0.015 C 
ATOM      8  N   UNL A   1      57.113 -21.714 -46.609  0.00  0.00    -0.390 NA
ATOM      9  C   UNL A   1      57.531 -21.085 -45.954  0.00  0.00    -0.015 C 
ATOM     10  C   UNL A   1      57.943 -21.688 -47.165  0.00  0.00    -0.015 C 
ENDBRANCH   1   8
BRANCH   5  11
ATOM     11  N   UNL A   1      57.121 -25.875 -48.703  0.00  0.00    -0.358 N 
ATOM     12  H   UNL A   1      58.045 -26.026 -49.007  0.00  0.00    +0.000 HD
ATOM     13  H   UNL A   1      56.536 -26.641 -48.504  0.00  0.00    +0.000 HD
ENDBRANCH   5  11
TORSDOF 2
ENDMDL
MODEL 8
REMARK VINA RESULT:    -5.089      1.261      1.933
REMARK INTER + INTRA:          -5.535
REMARK INTER:                  -5.687
REMARK INTRA:                   0.152
REMARK UNBOUND:                 0.000
REMARK  Name = cpd213.pdb
REMARK  5 active torsions:
REMARK  status: ('A' for Active; 'I' for Inactive)
REMARK    1  A    between atoms: C_1  and  N_2
REMARK    2  A    between atoms: N_2  and  C_3
REMARK    3  A    between atoms: N_2  and  C_4
REMARK    4  A    between atoms: N_2  and  C_5
REMARK    5  A    between atoms: C_9  and  N_10
REMARK                            x       y       z     vdW  Elec       q    Type
REMARK                         _______ _______ _______ _____ _____    ______ ____
ROOT
ATOM      1  C   UNL A   1      39.776 -35.873 -31.218  0.00  0.00    +0.017 A 
ATOM      2  C   UNL A   1      39.038 -36.757 -30.240  0.00  0.00    -0.042 A 
ATOM      3  C   UNL A   1      39.649 -37.786 -29.518  0.00  0.00    -0.058 A 
ATOM      4  C   UNL A   1      41.008 -38.057 -29.691  0.00  0.00    -0.041 A 
ATOM      5  C   UNL A   1      41.793 -37.359 -30.611  0.00  0.00    +0.026 A 
ATOM      6  C   UNL A   1      41.225 -36.282 -31.310  0.00  0.00    -0.021 A 
ENDROOT
BRANCH   1   8
ATOM      7  C   UNL A   1      40.195 -34.586 -31.626  0.00  0.00    -0.015 C 
ATOM      8  N   UNL A   1      39.357 -35.121 -31.727  0.00  0.00    -0.390 NA
ATOM      9  C   UNL A   1      38.937 -34.369 -32.235  0.00  0.00    -0.015 C 
ATOM     10  C   UNL A   1      38.518 -35.657 -31.827  0.00  0.00    -0.015 C 
ENDBRANCH   1   8
BRANCH   5  11
ATOM     11  N   UNL A   1      43.171 -37.570 -30.655  0.00  0.00    -0.358 N 
ATOM     12  H   UNL A   1      43.667 -37.761 -29.827  0.00  0.00    +0.000 HD
ATOM     13  H   UNL A   1      43.648 -37.526 -31.516  0.00  0.00    +0.000 HD
ENDBRANCH   5  11
TORSDOF 2
ENDMDL
MODEL 9
REMARK VINA RESULT:    -5.059     18.591     19.007
REMARK INTER + INTRA:          -5.503
REMARK INTER:                  -5.449
REMARK INTRA:                  -0.054
REMARK UNBOUND:                 0.000
REMARK  Name = cpd213.pdb
REMARK  5 active torsions:
REMARK  status: ('A' for Active; 'I' for Inactive)
REMARK    1  A    between atoms: C_1  and  N_2
REMARK    2  A    between atoms: N_2  and  C_3
REMARK    3  A    between atoms: N_2  and  C_4
REMARK    4  A    between atoms: N_2  and  C_5
REMARK    5  A    between atoms: C_9  and  N_10
REMARK                            x       y       z     vdW  Elec       q    Type
REMARK                         _______ _______ _______ _____ _____    ______ ____
ROOT
ATOM      1  C   UNL A   1      45.879 -21.719 -41.724  0.00  0.00    +0.017 A 
ATOM      2  C   UNL A   1      46.213 -22.928 -42.568  0.00  0.00    -0.042 A 
ATOM      3  C   UNL A   1      47.407 -23.644 -42.449  0.00  0.00    -0.058 A 
ATOM      4  C   UNL A   1      48.377 -23.248 -41.526  0.00  0.00    -0.041 A 
ATOM      5  C   UNL A   1      48.224 -22.111 -40.730  0.00  0.00    +0.026 A 
ATOM      6  C   UNL A   1      47.015 -21.402 -40.783  0.00  0.00    -0.021 A 
ENDROOT
BRANCH   1   8
ATOM      7  C   UNL A   1      45.281 -20.880 -42.693  0.00  0.00    -0.015 C 
ATOM      8  N   UNL A   1      45.022 -21.208 -41.785  0.00  0.00    -0.390 NA
ATOM      9  C   UNL A   1      44.164 -20.697 -41.845  0.00  0.00    -0.015 C 
ATOM     10  C   UNL A   1      44.763 -21.536 -40.876  0.00  0.00    -0.015 C 
ENDBRANCH   1   8
BRANCH   5  11
ATOM     11  N   UNL A   1      49.155 -21.828 -39.730  0.00  0.00    -0.358 N 
ATOM     12  H   UNL A   1      49.879 -22.467 -39.537  0.00  0.00    +0.000 HD
ATOM     13  H   UNL A   1      49.087 -20.991 -39.216  0.00  0.00    +0.000 HD
ENDBRANCH   5  11
TORSDOF 2
ENDMDL
MODEL 10
REMARK VINA RESULT:    -5.054      7.208      8.456
REMARK INTER + INTRA:          -5.497
REMARK INTER:                  -5.529
REMARK INTRA:                   0.032
REMARK UNBOUND:                 0.000
REMARK  Name = cpd213.pdb
REMARK  5 active torsions:
REMARK  status: ('A' for Active; 'I' for Inactive)
REMARK    1  A    between atoms: C_1  and  N_2
REMARK    2  A    between atoms: N_2  and  C_3
REMARK    3  A    between atoms: N_2  and  C_4
REMARK    4  A    between atoms: N_2  and  C_5
REMARK    5  A    between atoms: C_9  and  N_10
REMARK                            x       y       z     vdW  Elec       q    Type
REMARK                         _______ _______ _______ _____ _____    ______ ____
ROOT
ATOM      1  C   UNL A   1      48.506 -38.897 -29.683  0.00  0.00    +0.017 A 
ATOM      2  C   UNL A   1      48.546 -40.025 -30.687  0.00  0.00    -0.042 A 
ATOM      3  C   UNL A   1      47.543 -40.991 -30.801  0.00  0.00    -0.058 A 
ATOM      4  C   UNL A   1      46.435 -40.959 -29.952  0.00  0.00    -0.041 A 
ATOM      5  C   UNL A   1      46.304 -40.010 -28.936  0.00  0.00    +0.026 A 
ATOM      6  C   UNL A   1      47.264 -38.991 -28.831  0.00  0.00    -0.021 A 
ENDROOT
BRANCH   1   8
ATOM      7  C   UNL A   1      48.504 -37.483 -29.703  0.00  0.00    -0.015 C 
ATOM      8  N   UNL A   1      49.206 -38.187 -29.602  0.00  0.00    -0.390 NA
ATOM      9  C   UNL A   1      49.906 -37.478 -29.521  0.00  0.00    -0.015 C 
ATOM     10  C   UNL A   1      49.908 -38.892 -29.501  0.00  0.00    -0.015 C 
ENDBRANCH   1   8
BRANCH   5  11
ATOM     11  N   UNL A   1      45.121 -39.932 -28.200  0.00  0.00    -0.358 N 
ATOM     12  H   UNL A   1      44.605 -40.748 -28.011  0.00  0.00    +0.000 HD
ATOM     13  H   UNL A   1      44.803 -39.060 -27.871  0.00  0.00    +0.000 HD
ENDBRANCH   5  11
TORSDOF 2
ENDMDL
MODEL 11
REMARK VINA RESULT:    -5.010      2.153      2.840
REMARK INTER + INTRA:          -5.449
REMARK INTER:                  -5.498
REMARK INTRA:                   0.049
REMARK UNBOUND:                 0.000
REMARK  Name = cpd213.pdb
REMARK  5 active torsions:
REMARK  status: ('A' for Active; 'I' for Inactive)
REMARK    1  A    between atoms: C_1  and  N_2
REMARK    2  A    between atoms: N_2  and  C_3
REMARK    3  A    between atoms: N_2  and  C_4
REMARK    4  A    between atoms: N_2  and  C_5
REMARK    5  A    between atoms: C_9  and  N_10
REMARK                            x       y       z     vdW  Elec       q    Type
REMARK                         _______ _______ _______ _____ _____    ______ ____
ROOT
ATOM      1  C   UNL A   1      38.125 -37.362 -29.844  0.00  0.00    +0.017 A 
ATOM      2  C   UNL A   1      38.980 -36.732 -30.919  0.00  0.00    -0.042 A 
ATOM      3  C   UNL A   1      40.374 -36.815 -30.942  0.00  0.00    -0.058 A 
ATOM      4  C   UNL A   1      41.056 -37.493 -29.930  0.00  0.00    -0.041 A 
ATOM      5  C   UNL A   1      40.393 -38.065 -28.842  0.00  0.00    +0.026 A 
ATOM      6  C   UNL A   1      38.990 -38.049 -28.817  0.00  0.00    -0.021 A 
ENDROOT
BRANCH   1   8
ATOM      7  C   UNL A   1      37.094 -37.713 -30.747  0.00  0.00    -0.015 C 
ATOM      8  N   UNL A   1      37.126 -37.327 -29.825  0.00  0.00    -0.390 NA
ATOM      9  C   UNL A   1      36.126 -37.292 -29.805  0.00  0.00    -0.015 C 
ATOM     10  C   UNL A   1      37.157 -36.941 -28.903  0.00  0.00    -0.015 C 
ENDBRANCH   1   8
BRANCH   5  11
ATOM     11  N   UNL A   1      41.098 -38.846 -27.926  0.00  0.00    -0.358 N 
ATOM     12  H   UNL A   1      42.043 -38.647 -27.734  0.00  0.00    +0.000 HD
ATOM     13  H   UNL A   1      40.651 -39.597 -27.473  0.00  0.00    +0.000 HD
ENDBRANCH   5  11
TORSDOF 2
ENDMDL
MODEL 12
REMARK VINA RESULT:    -4.941      1.717      3.021
REMARK INTER + INTRA:          -5.374
REMARK INTER:                  -5.491
REMARK INTRA:                   0.117
REMARK UNBOUND:                 0.000
REMARK  Name = cpd213.pdb
REMARK  5 active torsions:
REMARK  status: ('A' for Active; 'I' for Inactive)
REMARK    1  A    between atoms: C_1  and  N_2
REMARK    2  A    between atoms: N_2  and  C_3
REMARK    3  A    between atoms: N_2  and  C_4
REMARK    4  A    between atoms: N_2  and  C_5
REMARK    5  A    between atoms: C_9  and  N_10
REMARK                            x       y       z     vdW  Elec       q    Type
REMARK                         _______ _______ _______ _____ _____    ______ ____
ROOT
ATOM      1  C   UNL A   1      40.295 -36.727 -31.044  0.00  0.00    +0.017 A 
ATOM      2  C   UNL A   1      41.038 -37.468 -29.957  0.00  0.00    -0.042 A 
ATOM      3  C   UNL A   1      40.406 -38.097 -28.882  0.00  0.00    -0.058 A 
ATOM      4  C   UNL A   1      39.016 -38.050 -28.757  0.00  0.00    -0.041 A 
ATOM      5  C   UNL A   1      38.213 -37.344 -29.655  0.00  0.00    +0.026 A 
ATOM      6  C   UNL A   1      38.810 -36.749 -30.777  0.00  0.00    -0.021 A 
ENDROOT
BRANCH   1   8
ATOM      7  C   UNL A   1      41.301 -37.099 -31.965  0.00  0.00    -0.015 C 
ATOM      8  N   UNL A   1      40.732 -36.288 -31.829  0.00  0.00    -0.390 NA
ATOM      9  C   UNL A   1      41.169 -35.850 -32.614  0.00  0.00    -0.015 C 
ATOM     10  C   UNL A   1      40.162 -35.478 -31.694  0.00  0.00    -0.015 C 
ENDBRANCH   1   8
BRANCH   5  11
ATOM     11  N   UNL A   1      36.823 -37.434 -29.570  0.00  0.00    -0.358 N 
ATOM     12  H   UNL A   1      36.265 -36.652 -29.783  0.00  0.00    +0.000 HD
ATOM     13  H   UNL A   1      36.401 -38.280 -29.296  0.00  0.00    +0.000 HD
ENDBRANCH   5  11
TORSDOF 2
ENDMDL
MODEL 13
REMARK VINA RESULT:    -4.874     26.690     27.782
REMARK INTER + INTRA:          -5.301
REMARK INTER:                  -5.202
REMARK INTRA:                  -0.099
REMARK UNBOUND:                 0.000
REMARK  Name = cpd213.pdb
REMARK  5 active torsions:
REMARK  status: ('A' for Active; 'I' for Inactive)
REMARK    1  A    between atoms: C_1  and  N_2
REMARK    2  A    between atoms: N_2  and  C_3
REMARK    3  A    between atoms: N_2  and  C_4
REMARK    4  A    between atoms: N_2  and  C_5
REMARK    5  A    between atoms: C_9  and  N_10
REMARK                            x       y       z     vdW  Elec       q    Type
REMARK                         _______ _______ _______ _____ _____    ______ ____
ROOT
ATOM      1  C   UNL A   1      57.114 -22.461 -47.837  0.00  0.00    +0.017 A 
ATOM      2  C   UNL A   1      58.363 -22.054 -48.585  0.00  0.00    -0.042 A 
ATOM      3  C   UNL A   1      59.234 -21.055 -48.143  0.00  0.00    -0.058 A 
ATOM      4  C   UNL A   1      58.967 -20.359 -46.962  0.00  0.00    -0.041 A 
ATOM      5  C   UNL A   1      57.815 -20.591 -46.208  0.00  0.00    +0.026 A 
ATOM      6  C   UNL A   1      56.948 -21.625 -46.592  0.00  0.00    -0.021 A 
ENDROOT
BRANCH   1   8
ATOM      7  C   UNL A   1      57.069 -23.865 -47.676  0.00  0.00    -0.015 C 
ATOM      8  N   UNL A   1      56.492 -23.187 -48.131  0.00  0.00    -0.390 NA
ATOM      9  C   UNL A   1      55.869 -23.912 -48.424  0.00  0.00    -0.015 C 
ATOM     10  C   UNL A   1      55.915 -22.508 -48.586  0.00  0.00    -0.015 C 
ENDBRANCH   1   8
BRANCH   5  11
ATOM     11  N   UNL A   1      57.655 -19.971 -44.969  0.00  0.00    -0.358 N 
ATOM     12  H   UNL A   1      57.957 -20.424 -44.149  0.00  0.00    +0.000 HD
ATOM     13  H   UNL A   1      57.239 -19.080 -44.914  0.00  0.00    +0.000 HD
ENDBRANCH   5  11
TORSDOF 2
ENDMDL
MODEL 14
REMARK VINA RESULT:    -4.867     34.003     35.040
REMARK INTER + INTRA:          -5.293
REMARK INTER:                  -5.189
REMARK INTRA:                  -0.105
REMARK UNBOUND:                 0.000
REMARK  Name = cpd213.pdb
REMARK  5 active torsions:
REMARK  status: ('A' for Active; 'I' for Inactive)
REMARK    1  A    between atoms: C_1  and  N_2
REMARK    2  A    between atoms: N_2  and  C_3
REMARK    3  A    between atoms: N_2  and  C_4
REMARK    4  A    between atoms: N_2  and  C_5
REMARK    5  A    between atoms: C_9  and  N_10
REMARK                            x       y       z     vdW  Elec       q    Type
REMARK                         _______ _______ _______ _____ _____    ______ ____
ROOT
ATOM      1  C   UNL A   1      63.073 -24.984  -7.464  0.00  0.00    +0.017 A 
ATOM      2  C   UNL A   1      62.989 -23.774  -6.563  0.00  0.00    -0.042 A 
ATOM      3  C   UNL A   1      63.221 -22.468  -7.002  0.00  0.00    -0.058 A 
ATOM      4  C   UNL A   1      63.567 -22.224  -8.333  0.00  0.00    -0.041 A 
ATOM      5  C   UNL A   1      63.742 -23.257  -9.256  0.00  0.00    +0.026 A 
ATOM      6  C   UNL A   1      63.462 -24.575  -8.863  0.00  0.00    -0.021 A 
ENDROOT
BRANCH   1   8
ATOM      7  C   UNL A   1      63.853 -26.029  -6.916  0.00  0.00    -0.015 C 
ATOM      8  N   UNL A   1      62.891 -25.922  -7.169  0.00  0.00    -0.390 NA
ATOM      9  C   UNL A   1      62.709 -26.860  -6.873  0.00  0.00    -0.015 C 
ATOM     10  C   UNL A   1      61.930 -25.815  -7.421  0.00  0.00    -0.015 C 
ENDBRANCH   1   8
BRANCH   5  11
ATOM     11  N   UNL A   1      63.956 -22.961 -10.603  0.00  0.00    -0.358 N 
ATOM     12  H   UNL A   1      64.839 -22.650 -10.905  0.00  0.00    +0.000 HD
ATOM     13  H   UNL A   1      63.221 -23.063 -11.251  0.00  0.00    +0.000 HD
ENDBRANCH   5  11
TORSDOF 2
ENDMDL
MODEL 15
REMARK VINA RESULT:    -4.866     19.762     21.406
REMARK INTER + INTRA:          -5.293
REMARK INTER:                  -5.223
REMARK INTRA:                  -0.070
REMARK UNBOUND:                 0.000
REMARK  Name = cpd213.pdb
REMARK  5 active torsions:
REMARK  status: ('A' for Active; 'I' for Inactive)
REMARK    1  A    between atoms: C_1  and  N_2
REMARK    2  A    between atoms: N_2  and  C_3
REMARK    3  A    between atoms: N_2  and  C_4
REMARK    4  A    between atoms: N_2  and  C_5
REMARK    5  A    between atoms: C_9  and  N_10
REMARK                            x       y       z     vdW  Elec       q    Type
REMARK                         _______ _______ _______ _____ _____    ______ ____
ROOT
ATOM      1  C   UNL A   1      55.081 -36.046 -47.405  0.00  0.00    +0.017 A 
ATOM      2  C   UNL A   1      55.287 -35.128 -46.223  0.00  0.00    -0.042 A 
ATOM      3  C   UNL A   1      54.246 -34.670 -45.412  0.00  0.00    -0.058 A 
ATOM      4  C   UNL A   1      52.928 -35.044 -45.681  0.00  0.00    -0.041 A 
ATOM      5  C   UNL A   1      52.590 -35.835 -46.780  0.00  0.00    +0.026 A 
ATOM      6  C   UNL A   1      53.616 -36.358 -47.582  0.00  0.00    -0.021 A 
ENDROOT
BRANCH   1   8
ATOM      7  C   UNL A   1      55.931 -35.490 -48.390  0.00  0.00    -0.015 C 
ATOM      8  N   UNL A   1      55.818 -36.397 -47.983  0.00  0.00    -0.390 NA
ATOM      9  C   UNL A   1      56.555 -36.747 -48.561  0.00  0.00    -0.015 C 
ATOM     10  C   UNL A   1      55.705 -37.303 -47.577  0.00  0.00    -0.015 C 
ENDBRANCH   1   8
BRANCH   5  11
ATOM     11  N   UNL A   1      51.281 -36.294 -46.935  0.00  0.00    -0.358 N 
ATOM     12  H   UNL A   1      51.115 -37.189 -47.310  0.00  0.00    +0.000 HD
ATOM     13  H   UNL A   1      50.525 -35.723 -46.669  0.00  0.00    +0.000 HD
ENDBRANCH   5  11
TORSDOF 2
ENDMDL
MODEL 16
REMARK VINA RESULT:    -4.743     18.310     19.956
REMARK INTER + INTRA:          -5.158
REMARK INTER:                  -5.055
REMARK INTRA:                  -0.104
REMARK UNBOUND:                 0.000
REMARK  Name = cpd213.pdb
REMARK  5 active torsions:
REMARK  status: ('A' for Active; 'I' for Inactive)
REMARK    1  A    between atoms: C_1  and  N_2
REMARK    2  A    between atoms: N_2  and  C_3
REMARK    3  A    between atoms: N_2  and  C_4
REMARK    4  A    between atoms: N_2  and  C_5
REMARK    5  A    between atoms: C_9  and  N_10
REMARK                            x       y       z     vdW  Elec       q    Type
REMARK                         _______ _______ _______ _____ _____    ______ ____
ROOT
ATOM      1  C   UNL A   1      46.494 -21.698 -41.545  0.00  0.00    +0.017 A 
ATOM      2  C   UNL A   1      45.337 -21.824 -42.508  0.00  0.00    -0.042 A 
ATOM      3  C   UNL A   1      44.536 -20.746 -42.897  0.00  0.00    -0.058 A 
ATOM      4  C   UNL A   1      44.774 -19.471 -42.380  0.00  0.00    -0.041 A 
ATOM      5  C   UNL A   1      45.770 -19.227 -41.432  0.00  0.00    +0.026 A 
ATOM      6  C   UNL A   1      46.628 -20.275 -41.063  0.00  0.00    -0.021 A 
ENDROOT
BRANCH   1   8
ATOM      7  C   UNL A   1      46.440 -22.703 -40.551  0.00  0.00    -0.015 C 
ATOM      8  N   UNL A   1      47.087 -22.456 -41.273  0.00  0.00    -0.390 NA
ATOM      9  C   UNL A   1      47.680 -23.214 -41.001  0.00  0.00    -0.015 C 
ATOM     10  C   UNL A   1      47.734 -22.209 -41.995  0.00  0.00    -0.015 C 
ENDBRANCH   1   8
BRANCH   5  11
ATOM     11  N   UNL A   1      46.060 -17.919 -41.044  0.00  0.00    -0.358 N 
ATOM     12  H   UNL A   1      45.360 -17.359 -40.637  0.00  0.00    +0.000 HD
ATOM     13  H   UNL A   1      46.965 -17.555 -41.177  0.00  0.00    +0.000 HD
ENDBRANCH   5  11
TORSDOF 2
ENDMDL
MODEL 17
REMARK VINA RESULT:    -4.725     33.984     34.863
REMARK INTER + INTRA:          -5.139
REMARK INTER:                  -5.038
REMARK INTRA:                  -0.101
REMARK UNBOUND:                 0.000
REMARK  Name = cpd213.pdb
REMARK  5 active torsions:
REMARK  status: ('A' for Active; 'I' for Inactive)
REMARK    1  A    between atoms: C_1  and  N_2
REMARK    2  A    between atoms: N_2  and  C_3
REMARK    3  A    between atoms: N_2  and  C_4
REMARK    4  A    between atoms: N_2  and  C_5
REMARK    5  A    between atoms: C_9  and  N_10
REMARK                            x       y       z     vdW  Elec       q    Type
REMARK                         _______ _______ _______ _____ _____    ______ ____
ROOT
ATOM      1  C   UNL A   1      63.408 -24.655  -8.092  0.00  0.00    +0.017 A 
ATOM      2  C   UNL A   1      64.126 -24.290  -6.813  0.00  0.00    -0.042 A 
ATOM      3  C   UNL A   1      64.178 -25.125  -5.693  0.00  0.00    -0.058 A 
ATOM      4  C   UNL A   1      63.534 -26.364  -5.708  0.00  0.00    -0.041 A 
ATOM      5  C   UNL A   1      62.781 -26.796  -6.801  0.00  0.00    +0.026 A 
ATOM      6  C   UNL A   1      62.754 -26.009  -7.963  0.00  0.00    -0.021 A 
ENDROOT
BRANCH   1   8
ATOM      7  C   UNL A   1      64.250 -24.461  -9.211  0.00  0.00    -0.015 C 
ATOM      8  N   UNL A   1      63.378 -24.077  -8.907  0.00  0.00    -0.390 NA
ATOM      9  C   UNL A   1      63.349 -23.499  -9.722  0.00  0.00    -0.015 C 
ATOM     10  C   UNL A   1      62.506 -23.694  -8.603  0.00  0.00    -0.015 C 
ENDBRANCH   1   8
BRANCH   5  11
ATOM     11  N   UNL A   1      62.267 -28.093  -6.827  0.00  0.00    -0.358 N 
ATOM     12  H   UNL A   1      61.317 -28.243  -7.037  0.00  0.00    +0.000 HD
ATOM     13  H   UNL A   1      62.855 -28.859  -6.633  0.00  0.00    +0.000 HD
ENDBRANCH   5  11
TORSDOF 2
ENDMDL
MODEL 18
REMARK VINA RESULT:    -4.651     18.388     19.638
REMARK INTER + INTRA:          -5.059
REMARK INTER:                  -4.954
REMARK INTRA:                  -0.104
REMARK UNBOUND:                 0.000
REMARK  Name = cpd213.pdb
REMARK  5 active torsions:
REMARK  status: ('A' for Active; 'I' for Inactive)
REMARK    1  A    between atoms: C_1  and  N_2
REMARK    2  A    between atoms: N_2  and  C_3
REMARK    3  A    between atoms: N_2  and  C_4
REMARK    4  A    between atoms: N_2  and  C_5
REMARK    5  A    between atoms: C_9  and  N_10
REMARK                            x       y       z     vdW  Elec       q    Type
REMARK                         _______ _______ _______ _____ _____    ______ ____
ROOT
ATOM      1  C   UNL A   1      46.092 -20.620 -40.459  0.00  0.00    +0.017 A 
ATOM      2  C   UNL A   1      46.118 -22.122 -40.290  0.00  0.00    -0.042 A 
ATOM      3  C   UNL A   1      47.110 -22.942 -40.835  0.00  0.00    -0.058 A 
ATOM      4  C   UNL A   1      48.141 -22.388 -41.596  0.00  0.00    -0.041 A 
ATOM      5  C   UNL A   1      48.202 -21.024 -41.884  0.00  0.00    +0.026 A 
ATOM      6  C   UNL A   1      47.255 -20.164 -41.306  0.00  0.00    -0.021 A 
ENDROOT
BRANCH   1   8
ATOM      7  C   UNL A   1      45.985 -19.878 -39.261  0.00  0.00    -0.015 C 
ATOM      8  N   UNL A   1      45.400 -20.019 -40.060  0.00  0.00    -0.390 NA
ATOM      9  C   UNL A   1      44.709 -19.417 -39.660  0.00  0.00    -0.015 C 
ATOM     10  C   UNL A   1      44.816 -20.160 -40.859  0.00  0.00    -0.015 C 
ENDBRANCH   1   8
BRANCH   5  11
ATOM     11  N   UNL A   1      49.319 -20.495 -42.533  0.00  0.00    -0.358 N 
ATOM     12  H   UNL A   1      49.298 -19.573 -42.875  0.00  0.00    +0.000 HD
ATOM     13  H   UNL A   1      50.126 -21.046 -42.649  0.00  0.00    +0.000 HD
ENDBRANCH   5  11
TORSDOF 2
ENDMDL
MODEL 19
REMARK VINA RESULT:    -4.576      2.283      3.558
REMARK INTER + INTRA:          -4.977
REMARK INTER:                  -4.874
REMARK INTRA:                  -0.103
REMARK UNBOUND:                 0.000
REMARK  Name = cpd213.pdb
REMARK  5 active torsions:
REMARK  status: ('A' for Active; 'I' for Inactive)
REMARK    1  A    between atoms: C_1  and  N_2
REMARK    2  A    between atoms: N_2  and  C_3
REMARK    3  A    between atoms: N_2  and  C_4
REMARK    4  A    between atoms: N_2  and  C_5
REMARK    5  A    between atoms: C_9  and  N_10
REMARK                            x       y       z     vdW  Elec       q    Type
REMARK                         _______ _______ _______ _____ _____    ______ ____
ROOT
ATOM      1  C   UNL A   1      37.590 -37.202 -30.085  0.00  0.00    +0.017 A 
ATOM      2  C   UNL A   1      38.239 -37.960 -28.951  0.00  0.00    -0.042 A 
ATOM      3  C   UNL A   1      39.623 -38.059 -28.782  0.00  0.00    -0.058 A 
ATOM      4  C   UNL A   1      40.488 -37.453 -29.695  0.00  0.00    -0.041 A 
ATOM      5  C   UNL A   1      40.022 -36.776 -30.824  0.00  0.00    +0.026 A 
ATOM      6  C   UNL A   1      38.639 -36.610 -30.993  0.00  0.00    -0.021 A 
ENDROOT
BRANCH   1   8
ATOM      7  C   UNL A   1      36.577 -37.985 -30.686  0.00  0.00    -0.015 C 
ATOM      8  N   UNL A   1      36.602 -37.106 -30.208  0.00  0.00    -0.390 NA
ATOM      9  C   UNL A   1      35.614 -37.011 -30.331  0.00  0.00    -0.015 C 
ATOM     10  C   UNL A   1      36.628 -36.228 -29.731  0.00  0.00    -0.015 C 
ENDBRANCH   1   8
BRANCH   5  11
ATOM     11  N   UNL A   1      40.914 -36.073 -31.635  0.00  0.00    -0.358 N 
ATOM     12  H   UNL A   1      40.711 -35.939 -32.588  0.00  0.00    +0.000 HD
ATOM     13  H   UNL A   1      41.747 -35.712 -31.253  0.00  0.00    +0.000 HD
ENDBRANCH   5  11
TORSDOF 2
ENDMDL
MODEL 20
REMARK VINA RESULT:    -4.538     18.528     19.360
REMARK INTER + INTRA:          -4.936
REMARK INTER:                  -4.835
REMARK INTRA:                  -0.101
REMARK UNBOUND:                 0.000
REMARK  Name = cpd213.pdb
REMARK  5 active torsions:
REMARK  status: ('A' for Active; 'I' for Inactive)
REMARK    1  A    between atoms: C_1  and  N_2
REMARK    2  A    between atoms: N_2  and  C_3
REMARK    3  A    between atoms: N_2  and  C_4
REMARK    4  A    between atoms: N_2  and  C_5
REMARK    5  A    between atoms: C_9  and  N_10
REMARK                            x       y       z     vdW  Elec       q    Type
REMARK                         _______ _______ _______ _____ _____    ______ ____
ROOT
ATOM      1  C   UNL A   1      46.321 -20.742 -40.828  0.00  0.00    +0.017 A 
ATOM      2  C   UNL A   1      45.285 -20.779 -41.927  0.00  0.00    -0.042 A 
ATOM      3  C   UNL A   1      45.163 -21.833 -42.837  0.00  0.00    -0.058 A 
ATOM      4  C   UNL A   1      46.035 -22.922 -42.772  0.00  0.00    -0.041 A 
ATOM      5  C   UNL A   1      47.079 -22.985 -41.847  0.00  0.00    +0.026 A 
ATOM      6  C   UNL A   1      47.194 -21.972 -40.883  0.00  0.00    -0.021 A 
ENDROOT
BRANCH   1   8
ATOM      7  C   UNL A   1      45.871 -20.537 -39.503  0.00  0.00    -0.015 C 
ATOM      8  N   UNL A   1      46.407 -20.005 -40.158  0.00  0.00    -0.390 NA
ATOM      9  C   UNL A   1      46.494 -19.267 -39.488  0.00  0.00    -0.015 C 
ATOM     10  C   UNL A   1      46.944 -19.473 -40.813  0.00  0.00    -0.015 C 
ENDBRANCH   1   8
BRANCH   5  11
ATOM     11  N   UNL A   1      47.840 -24.149 -41.730  0.00  0.00    -0.358 N 
ATOM     12  H   UNL A   1      48.697 -24.227 -42.208  0.00  0.00    +0.000 HD
ATOM     13  H   UNL A   1      47.519 -24.892 -41.169  0.00  0.00    +0.000 HD
ENDBRANCH   5  11
TORSDOF 2
ENDMDL
