@<TRIPOS>MOLECULE
*****
 11 11 0 0 0
SMALL
GASTEIGER

@<TRIPOS>ATOM
      1 C           1.0000   -1.0000    0.0000 C.3     1  UNL1        0.3353
      2 N           1.0000   -0.0000    0.0000 N.pl3   1  UNL1       -0.3099
      3 C           2.0000    0.0000    0.0000 C.3     1  UNL1        0.3353
      4 C           1.0000    1.0000    0.0000 C.3     1  UNL1        0.3353
      5 C           0.0000    0.0000    0.0000 C.ar    1  UNL1        0.1673
      6 C          -0.5000   -0.8660    0.0000 C.ar    1  UNL1        0.0631
      7 C          -1.5000   -0.8660    0.0000 C.ar    1  UNL1        0.0073
      8 C          -2.0000   -0.0000    0.0000 C.ar    1  UNL1        0.0185
      9 C          -1.5000    0.8660    0.0000 C.ar    1  UNL1        0.0948
     10 N          -2.0000    1.7321    0.0000 N.pl3   1  UNL1       -0.1279
     11 C          -0.5000    0.8660    0.0000 C.ar    1  UNL1        0.0810
@<TRIPOS>UNITY_ATOM_ATTR
2 1
charge 1
@<TRIPOS>BOND
     1     1     2    1
     2     2     3    1
     3     2     4    1
     4     2     5    1
     5     5     6   ar
     6     6     7   ar
     7     7     8   ar
     8     8     9   ar
     9     9    10    1
    10     9    11   ar
    11     5    11   ar
