REMARK  Name = cpd213.pdb
REMARK  5 active torsions:
REMARK  status: ('A' for Active; 'I' for Inactive)
REMARK    1  A    between atoms: C_1  and  N_2
REMARK    2  A    between atoms: N_2  and  C_3
REMARK    3  A    between atoms: N_2  and  C_4
REMARK    4  A    between atoms: N_2  and  C_5
REMARK    5  A    between atoms: C_9  and  N_10
REMARK                            x       y       z     vdW  Elec       q    Type
REMARK                         _______ _______ _______ _____ _____    ______ ____
ROOT
ATOM      1  C   UNL A   1       0.000   0.000   0.000  0.00  0.00    +0.017 A 
ATOM      2  C   UNL A   1      -0.853  -0.013   1.247  0.00  0.00    -0.042 A 
ATOM      3  C   UNL A   1      -2.250  -0.040   1.225  0.00  0.00    -0.058 A 
ATOM      4  C   UNL A   1      -2.935  -0.040   0.008  0.00  0.00    -0.041 A 
ATOM      5  C   UNL A   1      -2.271   0.036  -1.218  0.00  0.00    +0.026 A 
ATOM      6  C   UNL A   1      -0.868   0.007  -1.234  0.00  0.00    -0.021 A 
ENDROOT
BRANCH   1   8
ATOM      7  C   UNL A   1       1.000  -1.000   0.000  0.00  0.00    -0.015 C 
ATOM      8  N   UNL A   1       1.000   0.000   0.000  0.00  0.00    -0.390 NA
ATOM      9  C   UNL A   1       2.000   0.000   0.000  0.00  0.00    -0.015 C 
ATOM     10  C   UNL A   1       1.000   1.000   0.000  0.00  0.00    -0.015 C 
ENDBRANCH   1   8
BRANCH   5  11
ATOM     11  N   UNL A   1      -2.985  -0.102  -2.409  0.00  0.00    -0.358 N 
ATOM     12  H   UNL A   1      -3.969  -0.082  -2.398  0.00  0.00    +0.000 HD
ATOM     13  H   UNL A   1      -2.504  -0.220  -3.260  0.00  0.00    +0.000 HD
ENDBRANCH   5  11
TORSDOF 2
