MODEL 1
REMARK VINA RESULT:    -7.822      0.000      0.000
REMARK INTER + INTRA:          -9.504
REMARK INTER:                  -9.423
REMARK INTRA:                  -0.082
REMARK UNBOUND:                -0.082
REMARK  Name = cpd85.pdb
REMARK  12 active torsions:
REMARK  status: ('A' for Active; 'I' for Inactive)
REMARK    1  A    between atoms: C_1  and  C_2
REMARK    2  A    between atoms: C_2  and  C_3
REMARK    3  A    between atoms: C_2  and  C_4
REMARK    4  A    between atoms: C_15  and  C_16
REMARK    5  A    between atoms: C_17  and  C_18
REMARK    6  A    between atoms: C_18  and  C_19
REMARK    7  A    between atoms: C_18  and  N_20
REMARK    8  A    between atoms: N_20  and  C_21
REMARK    9  A    between atoms: N_20  and  C_22
REMARK   10  A    between atoms: C_23  and  O_24
REMARK   11  A    between atoms: C_26  and  C_27
REMARK   12  A    between atoms: C_32  and  C_33
REMARK                            x       y       z     vdW  Elec       q    Type
REMARK                         _______ _______ _______ _____ _____    ______ ____
ROOT
ATOM      1  C   UNL     1      46.934 -22.044 -40.571  0.00  0.00    +0.093 C 
ATOM      2  N   UNL     1      46.133 -21.820 -41.554  0.00  0.00    -0.269 N 
ATOM      3  C   UNL     1      44.992 -20.909 -41.352  0.00  0.00    +0.060 C 
ATOM      4  C   UNL     1      43.750 -21.783 -41.129  0.00  0.00    -0.029 C 
ATOM      5  C   UNL     1      42.501 -20.944 -40.904  0.00  0.00    -0.044 C 
ATOM      6  C   UNL     1      42.697 -19.993 -39.737  0.00  0.00    -0.012 C 
ATOM      7  C   UNL     1      42.413 -20.504 -38.350  0.00  0.00    -0.033 C 
ATOM      8  C   UNL     1      41.444 -19.477 -38.969  0.00  0.00    +0.039 C 
ATOM      9  C   UNL     1      40.084 -20.071 -39.250  0.00  0.00    +0.141 C 
ATOM     10  O   UNL     1      39.854 -21.271 -39.124  0.00  0.00    -0.297 OA
ATOM     11  C   UNL     1      39.021 -19.109 -39.664  0.00  0.00    +0.013 C 
ATOM     12  C   UNL     1      38.816 -18.037 -38.586  0.00  0.00    -0.013 C 
ATOM     13  C   UNL     1      38.334 -18.723 -37.288  0.00  0.00    -0.058 C 
ATOM     14  C   UNL     1      37.782 -16.923 -39.023  0.00  0.00    +0.007 C 
ATOM     15  C   UNL     1      38.610 -15.862 -39.776  0.00  0.00    +0.061 C 
ATOM     16  C   UNL     1      40.078 -16.279 -39.629  0.00  0.00    -0.020 C 
ATOM     17  C   UNL     1      40.150 -17.217 -38.394  0.00  0.00    -0.020 C 
ATOM     18  C   UNL     1      40.121 -16.322 -37.117  0.00  0.00    -0.059 C 
ATOM     19  C   UNL     1      41.482 -18.075 -38.313  0.00  0.00    -0.022 C 
ATOM     20  C   UNL     1      42.706 -17.233 -38.750  0.00  0.00    -0.048 C 
ATOM     21  C   UNL     1      44.009 -18.014 -38.843  0.00  0.00    -0.049 C 
ATOM     22  C   UNL     1      43.897 -19.068 -39.954  0.00  0.00    -0.026 C 
ATOM     23  C   UNL     1      45.228 -19.859 -40.229  0.00  0.00    +0.009 C 
ATOM     24  C   UNL     1      46.312 -18.855 -40.713  0.00  0.00    -0.056 C 
ATOM     25  C   UNL     1      45.740 -20.602 -38.983  0.00  0.00    +0.018 C 
ATOM     26  N   UNL     1      46.852 -21.451 -39.339  0.00  0.00    -0.332 N 
ATOM     27  H   UNL     1      46.279 -22.251 -42.427  0.00  0.00    +0.000 HD
ATOM     28  H   UNL     1      47.568 -21.606 -38.682  0.00  0.00    +0.000 HD
ENDROOT
BRANCH   1  30
ATOM     29  C   UNL     1      47.910 -23.717 -42.183  0.00  0.00    -0.056 C 
ATOM     30  C   UNL     1      48.062 -23.050 -40.820  0.00  0.00    +0.009 C 
ATOM     31  C   UNL     1      49.420 -22.370 -40.674  0.00  0.00    -0.056 C 
ENDBRANCH   1  30
BRANCH  14  32
ATOM     32  C   UNL     1      36.379 -17.319 -39.604  0.00  0.00    +0.013 C 
ATOM     33  C   UNL     1      36.426 -18.091 -40.942  0.00  0.00    -0.049 C 
BRANCH  32  34
ATOM     34  N   UNL     1      35.468 -16.136 -39.790  0.00  0.00    -0.305 N 
ATOM     35  C   UNL     1      34.739 -16.212 -41.070  0.00  0.00    -0.013 C 
ATOM     36  C   UNL     1      34.468 -15.994 -38.721  0.00  0.00    -0.013 C 
ATOM     37  H   UNL     1      36.090 -15.327 -39.770  0.00  0.00    +0.000 HD
ENDBRANCH  32  34
ENDBRANCH  14  32
BRANCH  15  38
ATOM     38  O   UNL     1      38.297 -15.721 -41.145  0.00  0.00    -0.391 OA
ATOM     39  H   UNL     1      37.439 -16.138 -41.325  0.00  0.00    +0.000 HD
ENDBRANCH  15  38
TORSDOF 4
ENDMDL
MODEL 2
REMARK VINA RESULT:    -7.409     18.099     19.912
REMARK INTER + INTRA:          -9.007
REMARK INTER:                  -9.060
REMARK INTRA:                   0.053
REMARK UNBOUND:                -0.082
REMARK  Name = cpd85.pdb
REMARK  12 active torsions:
REMARK  status: ('A' for Active; 'I' for Inactive)
REMARK    1  A    between atoms: C_1  and  C_2
REMARK    2  A    between atoms: C_2  and  C_3
REMARK    3  A    between atoms: C_2  and  C_4
REMARK    4  A    between atoms: C_15  and  C_16
REMARK    5  A    between atoms: C_17  and  C_18
REMARK    6  A    between atoms: C_18  and  C_19
REMARK    7  A    between atoms: C_18  and  N_20
REMARK    8  A    between atoms: N_20  and  C_21
REMARK    9  A    between atoms: N_20  and  C_22
REMARK   10  A    between atoms: C_23  and  O_24
REMARK   11  A    between atoms: C_26  and  C_27
REMARK   12  A    between atoms: C_32  and  C_33
REMARK                            x       y       z     vdW  Elec       q    Type
REMARK                         _______ _______ _______ _____ _____    ______ ____
ROOT
ATOM      1  C   UNL     1      35.871 -36.413 -30.438  0.00  0.00    +0.093 C 
ATOM      2  N   UNL     1      35.188 -36.221 -29.364  0.00  0.00    -0.269 N 
ATOM      3  C   UNL     1      33.883 -35.544 -29.459  0.00  0.00    +0.060 C 
ATOM      4  C   UNL     1      34.101 -34.083 -29.042  0.00  0.00    -0.029 C 
ATOM      5  C   UNL     1      32.811 -33.278 -29.104  0.00  0.00    -0.044 C 
ATOM      6  C   UNL     1      32.203 -33.347 -30.493  0.00  0.00    -0.012 C 
ATOM      7  C   UNL     1      32.682 -32.364 -31.527  0.00  0.00    -0.033 C 
ATOM      8  C   UNL     1      31.259 -32.200 -30.958  0.00  0.00    +0.039 C 
ATOM      9  C   UNL     1      31.117 -30.948 -30.125  0.00  0.00    +0.141 C 
ATOM     10  O   UNL     1      32.079 -30.242 -29.833  0.00  0.00    -0.297 OA
ATOM     11  C   UNL     1      29.732 -30.599 -29.695  0.00  0.00    +0.013 C 
ATOM     12  C   UNL     1      28.821 -30.417 -30.917  0.00  0.00    -0.013 C 
ATOM     13  C   UNL     1      29.351 -29.236 -31.761  0.00  0.00    -0.058 C 
ATOM     14  C   UNL     1      27.312 -30.159 -30.518  0.00  0.00    +0.007 C 
ATOM     15  C   UNL     1      26.676 -31.557 -30.381  0.00  0.00    +0.061 C 
ATOM     16  C   UNL     1      27.740 -32.560 -30.841  0.00  0.00    -0.020 C 
ATOM     17  C   UNL     1      28.741 -31.769 -31.725  0.00  0.00    -0.020 C 
ATOM     18  C   UNL     1      28.090 -31.585 -33.131  0.00  0.00    -0.059 C 
ATOM     19  C   UNL     1      30.122 -32.514 -31.961  0.00  0.00    -0.022 C 
ATOM     20  C   UNL     1      29.898 -34.032 -32.169  0.00  0.00    -0.048 C 
ATOM     21  C   UNL     1      31.177 -34.852 -32.259  0.00  0.00    -0.049 C 
ATOM     22  C   UNL     1      31.922 -34.791 -30.917  0.00  0.00    -0.026 C 
ATOM     23  C   UNL     1      33.201 -35.702 -30.847  0.00  0.00    +0.009 C 
ATOM     24  C   UNL     1      32.766 -37.185 -31.016  0.00  0.00    -0.056 C 
ATOM     25  C   UNL     1      34.237 -35.348 -31.929  0.00  0.00    +0.018 C 
ATOM     26  N   UNL     1      35.456 -36.087 -31.703  0.00  0.00    -0.332 N 
ATOM     27  H   UNL     1      35.533 -36.522 -28.492  0.00  0.00    +0.000 HD
ATOM     28  H   UNL     1      36.000 -36.363 -32.474  0.00  0.00    +0.000 HD
ENDROOT
BRANCH   1  30
ATOM     29  C   UNL     1      38.338 -36.205 -30.910  0.00  0.00    -0.056 C 
ATOM     30  C   UNL     1      37.248 -37.061 -30.271  0.00  0.00    +0.009 C 
ATOM     31  C   UNL     1      37.534 -37.328 -28.797  0.00  0.00    -0.056 C 
ENDBRANCH   1  30
BRANCH  14  32
ATOM     32  C   UNL     1      26.942 -29.068 -29.454  0.00  0.00    +0.013 C 
ATOM     33  C   UNL     1      26.590 -27.682 -30.041  0.00  0.00    -0.049 C 
BRANCH  32  34
ATOM     34  N   UNL     1      28.018 -28.868 -28.422  0.00  0.00    -0.305 N 
ATOM     35  C   UNL     1      28.423 -27.452 -28.331  0.00  0.00    -0.013 C 
ATOM     36  C   UNL     1      27.624 -29.301 -27.073  0.00  0.00    -0.013 C 
ATOM     37  H   UNL     1      28.793 -29.450 -28.743  0.00  0.00    +0.000 HD
ENDBRANCH  32  34
ENDBRANCH  14  32
BRANCH  15  38
ATOM     38  O   UNL     1      26.247 -31.892 -29.078  0.00  0.00    -0.391 OA
ATOM     39  H   UNL     1      25.336 -32.225 -29.113  0.00  0.00    +0.000 HD
ENDBRANCH  15  38
TORSDOF 4
ENDMDL
MODEL 3
REMARK VINA RESULT:    -7.297     18.652     22.051
REMARK INTER + INTRA:          -8.871
REMARK INTER:                  -8.769
REMARK INTRA:                  -0.102
REMARK UNBOUND:                -0.082
REMARK  Name = cpd85.pdb
REMARK  12 active torsions:
REMARK  status: ('A' for Active; 'I' for Inactive)
REMARK    1  A    between atoms: C_1  and  C_2
REMARK    2  A    between atoms: C_2  and  C_3
REMARK    3  A    between atoms: C_2  and  C_4
REMARK    4  A    between atoms: C_15  and  C_16
REMARK    5  A    between atoms: C_17  and  C_18
REMARK    6  A    between atoms: C_18  and  C_19
REMARK    7  A    between atoms: C_18  and  N_20
REMARK    8  A    between atoms: N_20  and  C_21
REMARK    9  A    between atoms: N_20  and  C_22
REMARK   10  A    between atoms: C_23  and  O_24
REMARK   11  A    between atoms: C_26  and  C_27
REMARK   12  A    between atoms: C_32  and  C_33
REMARK                            x       y       z     vdW  Elec       q    Type
REMARK                         _______ _______ _______ _____ _____    ______ ____
ROOT
ATOM      1  C   UNL     1      28.783 -28.853 -29.772  0.00  0.00    +0.093 C 
ATOM      2  N   UNL     1      28.284 -29.848 -30.420  0.00  0.00    -0.269 N 
ATOM      3  C   UNL     1      28.952 -31.159 -30.341  0.00  0.00    +0.060 C 
ATOM      4  C   UNL     1      29.780 -31.322 -31.622  0.00  0.00    -0.029 C 
ATOM      5  C   UNL     1      30.523 -32.650 -31.651  0.00  0.00    -0.044 C 
ATOM      6  C   UNL     1      31.408 -32.796 -30.426  0.00  0.00    -0.012 C 
ATOM      7  C   UNL     1      32.789 -32.201 -30.474  0.00  0.00    -0.033 C 
ATOM      8  C   UNL     1      32.647 -33.735 -30.501  0.00  0.00    +0.039 C 
ATOM      9  C   UNL     1      33.073 -34.327 -31.824  0.00  0.00    +0.141 C 
ATOM     10  O   UNL     1      33.356 -33.627 -32.794  0.00  0.00    -0.297 OA
ATOM     11  C   UNL     1      33.158 -35.814 -31.881  0.00  0.00    +0.013 C 
ATOM     12  C   UNL     1      34.147 -36.337 -30.831  0.00  0.00    -0.013 C 
ATOM     13  C   UNL     1      35.554 -35.783 -31.153  0.00  0.00    -0.058 C 
ATOM     14  C   UNL     1      34.191 -37.917 -30.767  0.00  0.00    +0.007 C 
ATOM     15  C   UNL     1      33.082 -38.322 -29.775  0.00  0.00    +0.061 C 
ATOM     16  C   UNL     1      32.541 -37.018 -29.180  0.00  0.00    -0.020 C 
ATOM     17  C   UNL     1      33.644 -35.945 -29.388  0.00  0.00    -0.020 C 
ATOM     18  C   UNL     1      34.735 -36.168 -28.295  0.00  0.00    -0.059 C 
ATOM     19  C   UNL     1      33.133 -34.452 -29.217  0.00  0.00    -0.022 C 
ATOM     20  C   UNL     1      32.126 -34.347 -28.045  0.00  0.00    -0.048 C 
ATOM     21  C   UNL     1      31.471 -32.981 -27.896  0.00  0.00    -0.049 C 
ATOM     22  C   UNL     1      30.602 -32.692 -29.129  0.00  0.00    -0.026 C 
ATOM     23  C   UNL     1      29.773 -31.359 -29.036  0.00  0.00    +0.009 C 
ATOM     24  C   UNL     1      28.783 -31.470 -27.842  0.00  0.00    -0.056 C 
ATOM     25  C   UNL     1      30.668 -30.122 -28.843  0.00  0.00    +0.018 C 
ATOM     26  N   UNL     1      29.875 -28.921 -28.947  0.00  0.00    -0.332 N 
ATOM     27  H   UNL     1      27.470 -29.734 -30.960  0.00  0.00    +0.000 HD
ATOM     28  H   UNL     1      30.124 -28.132 -28.413  0.00  0.00    +0.000 HD
ENDROOT
BRANCH   1  30
ATOM     29  C   UNL     1      27.517 -27.353 -31.352  0.00  0.00    -0.056 C 
ATOM     30  C   UNL     1      28.086 -27.501 -29.944  0.00  0.00    +0.009 C 
ATOM     31  C   UNL     1      27.009 -27.320 -28.880  0.00  0.00    -0.056 C 
ENDBRANCH   1  30
BRANCH  14  32
ATOM     32  C   UNL     1      34.362 -38.764 -32.076  0.00  0.00    +0.013 C 
ATOM     33  C   UNL     1      33.258 -38.549 -33.137  0.00  0.00    -0.049 C 
BRANCH  32  34
ATOM     34  N   UNL     1      34.458 -40.242 -31.808  0.00  0.00    -0.305 N 
ATOM     35  C   UNL     1      34.353 -41.024 -33.054  0.00  0.00    -0.013 C 
ATOM     36  C   UNL     1      35.709 -40.636 -31.145  0.00  0.00    -0.013 C 
ATOM     37  H   UNL     1      33.676 -40.441 -31.184  0.00  0.00    +0.000 HD
ENDBRANCH  32  34
ENDBRANCH  14  32
BRANCH  15  38
ATOM     38  O   UNL     1      32.017 -39.058 -30.339  0.00  0.00    -0.391 OA
ATOM     39  H   UNL     1      32.109 -39.994 -30.101  0.00  0.00    +0.000 HD
ENDBRANCH  15  38
TORSDOF 4
ENDMDL
MODEL 4
REMARK VINA RESULT:    -7.246      4.250      8.206
REMARK INTER + INTRA:          -8.811
REMARK INTER:                  -8.713
REMARK INTRA:                  -0.097
REMARK UNBOUND:                -0.082
REMARK  Name = cpd85.pdb
REMARK  12 active torsions:
REMARK  status: ('A' for Active; 'I' for Inactive)
REMARK    1  A    between atoms: C_1  and  C_2
REMARK    2  A    between atoms: C_2  and  C_3
REMARK    3  A    between atoms: C_2  and  C_4
REMARK    4  A    between atoms: C_15  and  C_16
REMARK    5  A    between atoms: C_17  and  C_18
REMARK    6  A    between atoms: C_18  and  C_19
REMARK    7  A    between atoms: C_18  and  N_20
REMARK    8  A    between atoms: N_20  and  C_21
REMARK    9  A    between atoms: N_20  and  C_22
REMARK   10  A    between atoms: C_23  and  O_24
REMARK   11  A    between atoms: C_26  and  C_27
REMARK   12  A    between atoms: C_32  and  C_33
REMARK                            x       y       z     vdW  Elec       q    Type
REMARK                         _______ _______ _______ _____ _____    ______ ____
ROOT
ATOM      1  C   UNL     1      39.342 -21.984 -34.523  0.00  0.00    +0.093 C 
ATOM      2  N   UNL     1      39.185 -20.709 -34.621  0.00  0.00    -0.269 N 
ATOM      3  C   UNL     1      39.940 -19.973 -35.649  0.00  0.00    +0.060 C 
ATOM      4  C   UNL     1      41.137 -19.317 -34.948  0.00  0.00    -0.029 C 
ATOM      5  C   UNL     1      41.999 -18.525 -35.919  0.00  0.00    -0.044 C 
ATOM      6  C   UNL     1      42.473 -19.410 -37.059  0.00  0.00    -0.012 C 
ATOM      7  C   UNL     1      43.724 -20.221 -36.855  0.00  0.00    -0.033 C 
ATOM      8  C   UNL     1      43.773 -19.021 -37.821  0.00  0.00    +0.039 C 
ATOM      9  C   UNL     1      44.653 -17.906 -37.305  0.00  0.00    +0.141 C 
ATOM     10  O   UNL     1      45.139 -17.924 -36.178  0.00  0.00    -0.297 OA
ATOM     11  C   UNL     1      44.921 -16.789 -38.256  0.00  0.00    +0.013 C 
ATOM     12  C   UNL     1      45.590 -17.318 -39.532  0.00  0.00    -0.013 C 
ATOM     13  C   UNL     1      46.954 -17.940 -39.157  0.00  0.00    -0.058 C 
ATOM     14  C   UNL     1      45.793 -16.193 -40.625  0.00  0.00    +0.007 C 
ATOM     15  C   UNL     1      44.486 -16.171 -41.443  0.00  0.00    +0.061 C 
ATOM     16  C   UNL     1      43.642 -17.345 -40.936  0.00  0.00    -0.020 C 
ATOM     17  C   UNL     1      44.624 -18.335 -40.254  0.00  0.00    -0.020 C 
ATOM     18  C   UNL     1      45.342 -19.142 -41.380  0.00  0.00    -0.059 C 
ATOM     19  C   UNL     1      43.918 -19.402 -39.315  0.00  0.00    -0.022 C 
ATOM     20  C   UNL     1      42.594 -19.898 -39.946  0.00  0.00    -0.048 C 
ATOM     21  C   UNL     1      41.773 -20.815 -39.052  0.00  0.00    -0.049 C 
ATOM     22  C   UNL     1      41.299 -20.037 -37.815  0.00  0.00    -0.026 C 
ATOM     23  C   UNL     1      40.336 -20.847 -36.873  0.00  0.00    +0.009 C 
ATOM     24  C   UNL     1      39.045 -21.199 -37.665  0.00  0.00    -0.056 C 
ATOM     25  C   UNL     1      40.980 -22.141 -36.345  0.00  0.00    +0.018 C 
ATOM     26  N   UNL     1      40.125 -22.744 -35.350  0.00  0.00    -0.332 N 
ATOM     27  H   UNL     1      38.569 -20.234 -34.017  0.00  0.00    +0.000 HD
ATOM     28  H   UNL     1      40.105 -23.724 -35.264  0.00  0.00    +0.000 HD
ENDROOT
BRANCH   1  30
ATOM     29  C   UNL     1      37.406 -21.838 -32.916  0.00  0.00    -0.056 C 
ATOM     30  C   UNL     1      38.582 -22.685 -33.394  0.00  0.00    +0.009 C 
ATOM     31  C   UNL     1      38.131 -24.072 -33.840  0.00  0.00    -0.056 C 
ENDBRANCH   1  30
BRANCH  14  32
ATOM     32  C   UNL     1      46.456 -14.823 -40.248  0.00  0.00    +0.013 C 
ATOM     33  C   UNL     1      46.644 -13.845 -41.431  0.00  0.00    -0.049 C 
BRANCH  32  34
ATOM     34  N   UNL     1      47.790 -14.984 -39.571  0.00  0.00    -0.305 N 
ATOM     35  C   UNL     1      48.867 -14.327 -40.336  0.00  0.00    -0.013 C 
ATOM     36  C   UNL     1      47.824 -14.439 -38.206  0.00  0.00    -0.013 C 
ATOM     37  H   UNL     1      47.935 -15.993 -39.528  0.00  0.00    +0.000 HD
ENDBRANCH  32  34
ENDBRANCH  14  32
BRANCH  15  38
ATOM     38  O   UNL     1      43.739 -14.977 -41.342  0.00  0.00    -0.391 OA
ATOM     39  H   UNL     1      43.203 -14.862 -42.142  0.00  0.00    +0.000 HD
ENDBRANCH  15  38
TORSDOF 4
ENDMDL
MODEL 5
REMARK VINA RESULT:    -7.172     17.621     19.226
REMARK INTER + INTRA:          -8.721
REMARK INTER:                  -8.654
REMARK INTRA:                  -0.067
REMARK UNBOUND:                -0.082
REMARK  Name = cpd85.pdb
REMARK  12 active torsions:
REMARK  status: ('A' for Active; 'I' for Inactive)
REMARK    1  A    between atoms: C_1  and  C_2
REMARK    2  A    between atoms: C_2  and  C_3
REMARK    3  A    between atoms: C_2  and  C_4
REMARK    4  A    between atoms: C_15  and  C_16
REMARK    5  A    between atoms: C_17  and  C_18
REMARK    6  A    between atoms: C_18  and  C_19
REMARK    7  A    between atoms: C_18  and  N_20
REMARK    8  A    between atoms: N_20  and  C_21
REMARK    9  A    between atoms: N_20  and  C_22
REMARK   10  A    between atoms: C_23  and  O_24
REMARK   11  A    between atoms: C_26  and  C_27
REMARK   12  A    between atoms: C_32  and  C_33
REMARK                            x       y       z     vdW  Elec       q    Type
REMARK                         _______ _______ _______ _____ _____    ______ ____
ROOT
ATOM      1  C   UNL     1      35.867 -36.189 -30.654  0.00  0.00    +0.093 C 
ATOM      2  N   UNL     1      35.407 -35.875 -31.815  0.00  0.00    -0.269 N 
ATOM      3  C   UNL     1      34.389 -34.815 -31.917  0.00  0.00    +0.060 C 
ATOM      4  C   UNL     1      33.028 -35.508 -32.065  0.00  0.00    -0.029 C 
ATOM      5  C   UNL     1      31.890 -34.505 -32.177  0.00  0.00    -0.044 C 
ATOM      6  C   UNL     1      31.881 -33.569 -30.982  0.00  0.00    -0.012 C 
ATOM      7  C   UNL     1      31.158 -34.012 -29.739  0.00  0.00    -0.033 C 
ATOM      8  C   UNL     1      30.546 -32.875 -30.580  0.00  0.00    +0.039 C 
ATOM      9  C   UNL     1      29.249 -33.284 -31.238  0.00  0.00    +0.141 C 
ATOM     10  O   UNL     1      28.834 -34.439 -31.206  0.00  0.00    -0.297 OA
ATOM     11  C   UNL     1      28.483 -32.195 -31.910  0.00  0.00    +0.013 C 
ATOM     12  C   UNL     1      28.134 -31.086 -30.909  0.00  0.00    -0.013 C 
ATOM     13  C   UNL     1      27.224 -31.677 -29.809  0.00  0.00    -0.058 C 
ATOM     14  C   UNL     1      27.421 -29.850 -31.592  0.00  0.00    +0.007 C 
ATOM     15  C   UNL     1      28.561 -28.924 -32.064  0.00  0.00    +0.061 C 
ATOM     16  C   UNL     1      29.860 -29.534 -31.526  0.00  0.00    -0.020 C 
ATOM     17  C   UNL     1      29.460 -30.451 -30.339  0.00  0.00    -0.020 C 
ATOM     18  C   UNL     1      29.200 -29.537 -29.101  0.00  0.00    -0.059 C 
ATOM     19  C   UNL     1      30.590 -31.480 -29.910  0.00  0.00    -0.022 C 
ATOM     20  C   UNL     1      31.989 -30.819 -29.973  0.00  0.00    -0.048 C 
ATOM     21  C   UNL     1      33.149 -31.770 -29.719  0.00  0.00    -0.049 C 
ATOM     22  C   UNL     1      33.208 -32.819 -30.839  0.00  0.00    -0.026 C 
ATOM     23  C   UNL     1      34.444 -33.787 -30.752  0.00  0.00    +0.009 C 
ATOM     24  C   UNL     1      35.744 -32.948 -30.896  0.00  0.00    -0.056 C 
ATOM     25  C   UNL     1      34.486 -34.571 -29.428  0.00  0.00    +0.018 C 
ATOM     26  N   UNL     1      35.528 -35.568 -29.481  0.00  0.00    -0.332 N 
ATOM     27  H   UNL     1      35.730 -36.337 -32.622  0.00  0.00    +0.000 HD
ATOM     28  H   UNL     1      36.006 -35.807 -28.655  0.00  0.00    +0.000 HD
ENDROOT
BRANCH   1  30
ATOM     29  C   UNL     1      38.267 -36.871 -31.005  0.00  0.00    -0.056 C 
ATOM     30  C   UNL     1      36.873 -37.342 -30.601  0.00  0.00    +0.009 C 
ATOM     31  C   UNL     1      36.874 -37.982 -29.217  0.00  0.00    -0.056 C 
ENDBRANCH   1  30
BRANCH  14  32
ATOM     32  C   UNL     1      26.195 -30.063 -32.546  0.00  0.00    +0.013 C 
ATOM     33  C   UNL     1      26.395 -31.149 -33.628  0.00  0.00    -0.049 C 
BRANCH  32  34
ATOM     34  N   UNL     1      25.768 -28.798 -33.241  0.00  0.00    -0.305 N 
ATOM     35  C   UNL     1      24.925 -29.086 -34.416  0.00  0.00    -0.013 C 
ATOM     36  C   UNL     1      25.015 -27.879 -32.374  0.00  0.00    -0.013 C 
ATOM     37  H   UNL     1      26.641 -28.350 -33.518  0.00  0.00    +0.000 HD
ENDBRANCH  32  34
ENDBRANCH  14  32
BRANCH  15  38
ATOM     38  O   UNL     1      28.661 -28.766 -33.463  0.00  0.00    -0.391 OA
ATOM     39  H   UNL     1      29.550 -29.022 -33.755  0.00  0.00    +0.000 HD
ENDBRANCH  15  38
TORSDOF 4
ENDMDL
MODEL 6
REMARK VINA RESULT:    -7.160      3.675      5.855
REMARK INTER + INTRA:          -8.706
REMARK INTER:                  -8.614
REMARK INTRA:                  -0.092
REMARK UNBOUND:                -0.082
REMARK  Name = cpd85.pdb
REMARK  12 active torsions:
REMARK  status: ('A' for Active; 'I' for Inactive)
REMARK    1  A    between atoms: C_1  and  C_2
REMARK    2  A    between atoms: C_2  and  C_3
REMARK    3  A    between atoms: C_2  and  C_4
REMARK    4  A    between atoms: C_15  and  C_16
REMARK    5  A    between atoms: C_17  and  C_18
REMARK    6  A    between atoms: C_18  and  C_19
REMARK    7  A    between atoms: C_18  and  N_20
REMARK    8  A    between atoms: N_20  and  C_21
REMARK    9  A    between atoms: N_20  and  C_22
REMARK   10  A    between atoms: C_23  and  O_24
REMARK   11  A    between atoms: C_26  and  C_27
REMARK   12  A    between atoms: C_32  and  C_33
REMARK                            x       y       z     vdW  Elec       q    Type
REMARK                         _______ _______ _______ _____ _____    ______ ____
ROOT
ATOM      1  C   UNL     1      47.128 -16.061 -40.018  0.00  0.00    +0.093 C 
ATOM      2  N   UNL     1      47.327 -16.716 -38.927  0.00  0.00    -0.269 N 
ATOM      3  C   UNL     1      46.298 -17.665 -38.466  0.00  0.00    +0.060 C 
ATOM      4  C   UNL     1      45.495 -16.960 -37.365  0.00  0.00    -0.029 C 
ATOM      5  C   UNL     1      44.392 -17.850 -36.810  0.00  0.00    -0.044 C 
ATOM      6  C   UNL     1      43.470 -18.317 -37.922  0.00  0.00    -0.012 C 
ATOM      7  C   UNL     1      42.329 -17.421 -38.321  0.00  0.00    -0.033 C 
ATOM      8  C   UNL     1      42.011 -18.726 -37.566  0.00  0.00    +0.039 C 
ATOM      9  C   UNL     1      41.466 -18.467 -36.181  0.00  0.00    +0.141 C 
ATOM     10  O   UNL     1      41.430 -17.342 -35.690  0.00  0.00    -0.297 OA
ATOM     11  C   UNL     1      40.944 -19.658 -35.449  0.00  0.00    +0.013 C 
ATOM     12  C   UNL     1      39.815 -20.326 -36.245  0.00  0.00    -0.013 C 
ATOM     13  C   UNL     1      38.646 -19.325 -36.387  0.00  0.00    -0.058 C 
ATOM     14  C   UNL     1      39.302 -21.662 -35.570  0.00  0.00    +0.007 C 
ATOM     15  C   UNL     1      40.213 -22.779 -36.120  0.00  0.00    +0.061 C 
ATOM     16  C   UNL     1      41.100 -22.125 -37.185  0.00  0.00    -0.020 C 
ATOM     17  C   UNL     1      40.372 -20.829 -37.632  0.00  0.00    -0.020 C 
ATOM     18  C   UNL     1      39.233 -21.240 -38.617  0.00  0.00    -0.059 C 
ATOM     19  C   UNL     1      41.298 -19.806 -38.416  0.00  0.00    -0.022 C 
ATOM     20  C   UNL     1      42.257 -20.556 -39.373  0.00  0.00    -0.048 C 
ATOM     21  C   UNL     1      43.283 -19.668 -40.062  0.00  0.00    -0.049 C 
ATOM     22  C   UNL     1      44.234 -19.074 -39.012  0.00  0.00    -0.026 C 
ATOM     23  C   UNL     1      45.418 -18.233 -39.615  0.00  0.00    +0.009 C 
ATOM     24  C   UNL     1      46.296 -19.169 -40.492  0.00  0.00    -0.056 C 
ATOM     25  C   UNL     1      44.925 -17.050 -40.467  0.00  0.00    +0.018 C 
ATOM     26  N   UNL     1      46.042 -16.215 -40.840  0.00  0.00    -0.332 N 
ATOM     27  H   UNL     1      48.153 -16.585 -38.409  0.00  0.00    +0.000 HD
ATOM     28  H   UNL     1      46.024 -15.745 -41.705  0.00  0.00    +0.000 HD
ENDROOT
BRANCH   1  30
ATOM     29  C   UNL     1      47.742 -14.199 -41.600  0.00  0.00    -0.056 C 
ATOM     30  C   UNL     1      48.199 -15.042 -40.413  0.00  0.00    +0.009 C 
ATOM     31  C   UNL     1      48.572 -14.172 -39.216  0.00  0.00    -0.056 C 
ENDBRANCH   1  30
BRANCH  14  32
ATOM     32  C   UNL     1      38.924 -21.694 -34.048  0.00  0.00    +0.013 C 
ATOM     33  C   UNL     1      38.264 -23.008 -33.571  0.00  0.00    -0.049 C 
BRANCH  32  34
ATOM     34  N   UNL     1      38.026 -20.557 -33.644  0.00  0.00    -0.305 N 
ATOM     35  C   UNL     1      36.752 -21.047 -33.085  0.00  0.00    -0.013 C 
ATOM     36  C   UNL     1      38.628 -19.661 -32.646  0.00  0.00    -0.013 C 
ATOM     37  H   UNL     1      37.870 -20.034 -34.506  0.00  0.00    +0.000 HD
ENDBRANCH  32  34
ENDBRANCH  14  32
BRANCH  15  38
ATOM     38  O   UNL     1      41.027 -23.413 -35.156  0.00  0.00    -0.391 OA
ATOM     39  H   UNL     1      40.602 -23.354 -34.285  0.00  0.00    +0.000 HD
ENDBRANCH  15  38
TORSDOF 4
ENDMDL
MODEL 7
REMARK VINA RESULT:    -6.919     34.297     36.982
REMARK INTER + INTRA:          -8.416
REMARK INTER:                  -8.313
REMARK INTRA:                  -0.103
REMARK UNBOUND:                -0.082
REMARK  Name = cpd85.pdb
REMARK  12 active torsions:
REMARK  status: ('A' for Active; 'I' for Inactive)
REMARK    1  A    between atoms: C_1  and  C_2
REMARK    2  A    between atoms: C_2  and  C_3
REMARK    3  A    between atoms: C_2  and  C_4
REMARK    4  A    between atoms: C_15  and  C_16
REMARK    5  A    between atoms: C_17  and  C_18
REMARK    6  A    between atoms: C_18  and  C_19
REMARK    7  A    between atoms: C_18  and  N_20
REMARK    8  A    between atoms: N_20  and  C_21
REMARK    9  A    between atoms: N_20  and  C_22
REMARK   10  A    between atoms: C_23  and  O_24
REMARK   11  A    between atoms: C_26  and  C_27
REMARK   12  A    between atoms: C_32  and  C_33
REMARK                            x       y       z     vdW  Elec       q    Type
REMARK                         _______ _______ _______ _____ _____    ______ ____
ROOT
ATOM      1  C   UNL     1      42.149 -43.232 -12.274  0.00  0.00    +0.093 C 
ATOM      2  N   UNL     1      43.332 -42.953 -12.698  0.00  0.00    -0.269 N 
ATOM      3  C   UNL     1      43.834 -43.626 -13.909  0.00  0.00    +0.060 C 
ATOM      4  C   UNL     1      44.758 -44.760 -13.445  0.00  0.00    -0.029 C 
ATOM      5  C   UNL     1      45.338 -45.535 -14.619  0.00  0.00    -0.044 C 
ATOM      6  C   UNL     1      44.229 -46.081 -15.500  0.00  0.00    -0.012 C 
ATOM      7  C   UNL     1      43.618 -47.406 -15.132  0.00  0.00    -0.033 C 
ATOM      8  C   UNL     1      44.517 -47.332 -16.381  0.00  0.00    +0.039 C 
ATOM      9  C   UNL     1      45.804 -48.105 -16.207  0.00  0.00    +0.141 C 
ATOM     10  O   UNL     1      46.130 -48.600 -15.131  0.00  0.00    -0.297 OA
ATOM     11  C   UNL     1      46.648 -48.257 -17.427  0.00  0.00    +0.013 C 
ATOM     12  C   UNL     1      45.862 -48.964 -18.539  0.00  0.00    -0.013 C 
ATOM     13  C   UNL     1      45.487 -50.384 -18.059  0.00  0.00    -0.058 C 
ATOM     14  C   UNL     1      46.670 -49.049 -19.896  0.00  0.00    +0.007 C 
ATOM     15  C   UNL     1      46.357 -47.739 -20.648  0.00  0.00    +0.061 C 
ATOM     16  C   UNL     1      45.288 -47.015 -19.821  0.00  0.00    -0.020 C 
ATOM     17  C   UNL     1      44.608 -48.094 -18.936  0.00  0.00    -0.020 C 
ATOM     18  C   UNL     1      43.599 -48.877 -19.833  0.00  0.00    -0.059 C 
ATOM     19  C   UNL     1      43.769 -47.500 -17.726  0.00  0.00    -0.022 C 
ATOM     20  C   UNL     1      43.006 -46.225 -18.160  0.00  0.00    -0.048 C 
ATOM     21  C   UNL     1      42.288 -45.503 -17.029  0.00  0.00    -0.049 C 
ATOM     22  C   UNL     1      43.321 -44.967 -16.026  0.00  0.00    -0.026 C 
ATOM     23  C   UNL     1      42.706 -44.093 -14.872  0.00  0.00    +0.009 C 
ATOM     24  C   UNL     1      42.042 -42.836 -15.500  0.00  0.00    -0.056 C 
ATOM     25  C   UNL     1      41.662 -44.862 -14.044  0.00  0.00    +0.018 C 
ATOM     26  N   UNL     1      41.270 -44.078 -12.897  0.00  0.00    -0.332 N 
ATOM     27  H   UNL     1      43.893 -42.300 -12.221  0.00  0.00    +0.000 HD
ATOM     28  H   UNL     1      40.350 -44.152 -12.555  0.00  0.00    +0.000 HD
ENDROOT
BRANCH   1  30
ATOM     29  C   UNL     1      42.788 -42.659  -9.905  0.00  0.00    -0.056 C 
ATOM     30  C   UNL     1      41.706 -42.552 -10.975  0.00  0.00    +0.009 C 
ATOM     31  C   UNL     1      41.319 -41.101 -11.242  0.00  0.00    -0.056 C 
ENDBRANCH   1  30
BRANCH  14  32
ATOM     32  C   UNL     1      48.146 -49.581 -19.915  0.00  0.00    +0.013 C 
ATOM     33  C   UNL     1      49.085 -48.925 -18.877  0.00  0.00    -0.049 C 
BRANCH  32  34
ATOM     34  N   UNL     1      48.796 -49.453 -21.266  0.00  0.00    -0.305 N 
ATOM     35  C   UNL     1      50.241 -49.177 -21.146  0.00  0.00    -0.013 C 
ATOM     36  C   UNL     1      48.646 -50.652 -22.104  0.00  0.00    -0.013 C 
ATOM     37  H   UNL     1      48.311 -48.675 -21.713  0.00  0.00    +0.000 HD
ENDBRANCH  32  34
ENDBRANCH  14  32
BRANCH  15  38
ATOM     38  O   UNL     1      47.463 -46.882 -20.839  0.00  0.00    -0.391 OA
ATOM     39  H   UNL     1      47.938 -46.776 -20.000  0.00  0.00    +0.000 HD
ENDBRANCH  15  38
TORSDOF 4
ENDMDL
MODEL 8
REMARK VINA RESULT:    -6.850     18.761     20.488
REMARK INTER + INTRA:          -8.333
REMARK INTER:                  -8.243
REMARK INTRA:                  -0.090
REMARK UNBOUND:                -0.082
REMARK  Name = cpd85.pdb
REMARK  12 active torsions:
REMARK  status: ('A' for Active; 'I' for Inactive)
REMARK    1  A    between atoms: C_1  and  C_2
REMARK    2  A    between atoms: C_2  and  C_3
REMARK    3  A    between atoms: C_2  and  C_4
REMARK    4  A    between atoms: C_15  and  C_16
REMARK    5  A    between atoms: C_17  and  C_18
REMARK    6  A    between atoms: C_18  and  C_19
REMARK    7  A    between atoms: C_18  and  N_20
REMARK    8  A    between atoms: N_20  and  C_21
REMARK    9  A    between atoms: N_20  and  C_22
REMARK   10  A    between atoms: C_23  and  O_24
REMARK   11  A    between atoms: C_26  and  C_27
REMARK   12  A    between atoms: C_32  and  C_33
REMARK                            x       y       z     vdW  Elec       q    Type
REMARK                         _______ _______ _______ _____ _____    ______ ____
ROOT
ATOM      1  C   UNL     1      35.014 -38.815 -30.757  0.00  0.00    +0.093 C 
ATOM      2  N   UNL     1      35.045 -37.949 -31.710  0.00  0.00    -0.269 N 
ATOM      3  C   UNL     1      34.313 -36.680 -31.545  0.00  0.00    +0.060 C 
ATOM      4  C   UNL     1      32.995 -36.815 -32.319  0.00  0.00    -0.029 C 
ATOM      5  C   UNL     1      32.147 -35.556 -32.218  0.00  0.00    -0.044 C 
ATOM      6  C   UNL     1      31.876 -35.207 -30.765  0.00  0.00    -0.012 C 
ATOM      7  C   UNL     1      30.704 -35.862 -30.085  0.00  0.00    -0.033 C 
ATOM      8  C   UNL     1      30.618 -34.359 -30.418  0.00  0.00    +0.039 C 
ATOM      9  C   UNL     1      29.582 -34.066 -31.478  0.00  0.00    +0.141 C 
ATOM     10  O   UNL     1      28.999 -34.958 -32.089  0.00  0.00    -0.297 OA
ATOM     11  C   UNL     1      29.287 -32.625 -31.726  0.00  0.00    +0.013 C 
ATOM     12  C   UNL     1      28.797 -31.949 -30.439  0.00  0.00    -0.013 C 
ATOM     13  C   UNL     1      27.477 -32.619 -29.995  0.00  0.00    -0.058 C 
ATOM     14  C   UNL     1      28.578 -30.392 -30.614  0.00  0.00    +0.007 C 
ATOM     15  C   UNL     1      29.946 -29.745 -30.312  0.00  0.00    +0.061 C 
ATOM     16  C   UNL     1      30.859 -30.877 -29.828  0.00  0.00    -0.020 C 
ATOM     17  C   UNL     1      29.927 -32.019 -29.340  0.00  0.00    -0.020 C 
ATOM     18  C   UNL     1      29.404 -31.632 -27.922  0.00  0.00    -0.059 C 
ATOM     19  C   UNL     1      30.652 -33.422 -29.185  0.00  0.00    -0.022 C 
ATOM     20  C   UNL     1      32.074 -33.244 -28.598  0.00  0.00    -0.048 C 
ATOM     21  C   UNL     1      32.901 -34.521 -28.548  0.00  0.00    -0.049 C 
ATOM     22  C   UNL     1      33.174 -35.011 -29.977  0.00  0.00    -0.026 C 
ATOM     23  C   UNL     1      34.126 -36.260 -30.060  0.00  0.00    +0.009 C 
ATOM     24  C   UNL     1      35.514 -35.866 -29.481  0.00  0.00    -0.056 C 
ATOM     25  C   UNL     1      33.577 -37.472 -29.288  0.00  0.00    +0.018 C 
ATOM     26  N   UNL     1      34.394 -38.632 -29.549  0.00  0.00    -0.332 N 
ATOM     27  H   UNL     1      35.548 -38.131 -32.535  0.00  0.00    +0.000 HD
ATOM     28  H   UNL     1      34.509 -39.308 -28.843  0.00  0.00    +0.000 HD
ENDROOT
BRANCH   1  30
ATOM     29  C   UNL     1      35.691 -41.034 -29.774  0.00  0.00    -0.056 C 
ATOM     30  C   UNL     1      35.736 -40.141 -31.010  0.00  0.00    +0.009 C 
ATOM     31  C   UNL     1      35.149 -40.840 -32.231  0.00  0.00    -0.056 C 
ENDBRANCH   1  30
BRANCH  14  32
ATOM     32  C   UNL     1      27.743 -29.833 -31.819  0.00  0.00    +0.013 C 
ATOM     33  C   UNL     1      28.276 -30.227 -33.215  0.00  0.00    -0.049 C 
BRANCH  32  34
ATOM     34  N   UNL     1      27.603 -28.335 -31.788  0.00  0.00    -0.305 N 
ATOM     35  C   UNL     1      27.729 -27.754 -33.138  0.00  0.00    -0.013 C 
ATOM     36  C   UNL     1      26.321 -27.879 -31.231  0.00  0.00    -0.013 C 
ATOM     37  H   UNL     1      28.359 -28.018 -31.181  0.00  0.00    +0.000 HD
ENDBRANCH  32  34
ENDBRANCH  14  32
BRANCH  15  38
ATOM     38  O   UNL     1      30.551 -29.090 -31.407  0.00  0.00    -0.391 OA
ATOM     39  H   UNL     1      29.895 -28.965 -32.111  0.00  0.00    +0.000 HD
ENDBRANCH  15  38
TORSDOF 4
ENDMDL
MODEL 9
REMARK VINA RESULT:    -6.845      3.289      4.097
REMARK INTER + INTRA:          -8.327
REMARK INTER:                  -8.253
REMARK INTRA:                  -0.074
REMARK UNBOUND:                -0.082
REMARK  Name = cpd85.pdb
REMARK  12 active torsions:
REMARK  status: ('A' for Active; 'I' for Inactive)
REMARK    1  A    between atoms: C_1  and  C_2
REMARK    2  A    between atoms: C_2  and  C_3
REMARK    3  A    between atoms: C_2  and  C_4
REMARK    4  A    between atoms: C_15  and  C_16
REMARK    5  A    between atoms: C_17  and  C_18
REMARK    6  A    between atoms: C_18  and  C_19
REMARK    7  A    between atoms: C_18  and  N_20
REMARK    8  A    between atoms: N_20  and  C_21
REMARK    9  A    between atoms: N_20  and  C_22
REMARK   10  A    between atoms: C_23  and  O_24
REMARK   11  A    between atoms: C_26  and  C_27
REMARK   12  A    between atoms: C_32  and  C_33
REMARK                            x       y       z     vdW  Elec       q    Type
REMARK                         _______ _______ _______ _____ _____    ______ ____
ROOT
ATOM      1  C   UNL     1      46.592 -21.300 -40.733  0.00  0.00    +0.093 C 
ATOM      2  N   UNL     1      45.611 -20.572 -41.140  0.00  0.00    -0.269 N 
ATOM      3  C   UNL     1      44.787 -19.865 -40.145  0.00  0.00    +0.060 C 
ATOM      4  C   UNL     1      43.506 -20.687 -39.952  0.00  0.00    -0.029 C 
ATOM      5  C   UNL     1      42.570 -20.050 -38.935  0.00  0.00    -0.044 C 
ATOM      6  C   UNL     1      43.278 -19.852 -37.606  0.00  0.00    -0.012 C 
ATOM      7  C   UNL     1      43.297 -21.001 -36.634  0.00  0.00    -0.033 C 
ATOM      8  C   UNL     1      42.427 -19.772 -36.306  0.00  0.00    +0.039 C 
ATOM      9  C   UNL     1      40.950 -20.090 -36.343  0.00  0.00    +0.141 C 
ATOM     10  O   UNL     1      40.523 -21.173 -36.737  0.00  0.00    -0.297 OA
ATOM     11  C   UNL     1      40.036 -19.021 -35.848  0.00  0.00    +0.013 C 
ATOM     12  C   UNL     1      40.368 -18.661 -34.394  0.00  0.00    -0.013 C 
ATOM     13  C   UNL     1      40.140 -19.907 -33.508  0.00  0.00    -0.058 C 
ATOM     14  C   UNL     1      39.505 -17.451 -33.853  0.00  0.00    +0.007 C 
ATOM     15  C   UNL     1      40.289 -16.179 -34.239  0.00  0.00    +0.061 C 
ATOM     16  C   UNL     1      41.619 -16.658 -34.831  0.00  0.00    -0.020 C 
ATOM     17  C   UNL     1      41.841 -18.103 -34.309  0.00  0.00    -0.020 C 
ATOM     18  C   UNL     1      42.357 -18.004 -32.840  0.00  0.00    -0.059 C 
ATOM     19  C   UNL     1      42.936 -18.919 -35.118  0.00  0.00    -0.022 C 
ATOM     20  C   UNL     1      44.133 -18.012 -35.491  0.00  0.00    -0.048 C 
ATOM     21  C   UNL     1      45.167 -18.670 -36.393  0.00  0.00    -0.049 C 
ATOM     22  C   UNL     1      44.533 -18.988 -37.755  0.00  0.00    -0.026 C 
ATOM     23  C   UNL     1      45.540 -19.561 -38.818  0.00  0.00    +0.009 C 
ATOM     24  C   UNL     1      46.627 -18.486 -39.104  0.00  0.00    -0.056 C 
ATOM     25  C   UNL     1      46.217 -20.860 -38.348  0.00  0.00    +0.018 C 
ATOM     26  N   UNL     1      46.984 -21.433 -39.427  0.00  0.00    -0.332 N 
ATOM     27  H   UNL     1      45.414 -20.490 -42.101  0.00  0.00    +0.000 HD
ATOM     28  H   UNL     1      47.808 -21.930 -39.221  0.00  0.00    +0.000 HD
ENDROOT
BRANCH   1  30
ATOM     29  C   UNL     1      48.458 -22.934 -41.180  0.00  0.00    -0.056 C 
ATOM     30  C   UNL     1      47.372 -22.064 -41.807  0.00  0.00    +0.009 C 
ATOM     31  C   UNL     1      46.421 -22.887 -42.670  0.00  0.00    -0.056 C 
ENDBRANCH   1  30
BRANCH  14  32
ATOM     32  C   UNL     1      37.946 -17.442 -34.024  0.00  0.00    +0.013 C 
ATOM     33  C   UNL     1      37.187 -16.554 -33.011  0.00  0.00    -0.049 C 
BRANCH  32  34
ATOM     34  N   UNL     1      37.343 -18.820 -33.966  0.00  0.00    -0.305 N 
ATOM     35  C   UNL     1      36.567 -19.018 -32.728  0.00  0.00    -0.013 C 
ATOM     36  C   UNL     1      36.452 -19.116 -35.097  0.00  0.00    -0.013 C 
ATOM     37  H   UNL     1      38.143 -19.452 -34.002  0.00  0.00    +0.000 HD
ENDBRANCH  32  34
ENDBRANCH  14  32
BRANCH  15  38
ATOM     38  O   UNL     1      39.638 -15.336 -35.166  0.00  0.00    -0.391 OA
ATOM     39  H   UNL     1      38.678 -15.397 -35.040  0.00  0.00    +0.000 HD
ENDBRANCH  15  38
TORSDOF 4
ENDMDL
MODEL 10
REMARK VINA RESULT:    -6.813     18.580     21.692
REMARK INTER + INTRA:          -8.289
REMARK INTER:                  -8.200
REMARK INTRA:                  -0.089
REMARK UNBOUND:                -0.082
REMARK  Name = cpd85.pdb
REMARK  12 active torsions:
REMARK  status: ('A' for Active; 'I' for Inactive)
REMARK    1  A    between atoms: C_1  and  C_2
REMARK    2  A    between atoms: C_2  and  C_3
REMARK    3  A    between atoms: C_2  and  C_4
REMARK    4  A    between atoms: C_15  and  C_16
REMARK    5  A    between atoms: C_17  and  C_18
REMARK    6  A    between atoms: C_18  and  C_19
REMARK    7  A    between atoms: C_18  and  N_20
REMARK    8  A    between atoms: N_20  and  C_21
REMARK    9  A    between atoms: N_20  and  C_22
REMARK   10  A    between atoms: C_23  and  O_24
REMARK   11  A    between atoms: C_26  and  C_27
REMARK   12  A    between atoms: C_32  and  C_33
REMARK                            x       y       z     vdW  Elec       q    Type
REMARK                         _______ _______ _______ _____ _____    ______ ____
ROOT
ATOM      1  C   UNL     1      27.549 -28.368 -30.224  0.00  0.00    +0.093 C 
ATOM      2  N   UNL     1      28.822 -28.204 -30.330  0.00  0.00    -0.269 N 
ATOM      3  C   UNL     1      29.665 -29.362 -30.673  0.00  0.00    +0.060 C 
ATOM      4  C   UNL     1      30.294 -29.867 -29.368  0.00  0.00    -0.029 C 
ATOM      5  C   UNL     1      31.191 -31.073 -29.600  0.00  0.00    -0.044 C 
ATOM      6  C   UNL     1      30.422 -32.189 -30.283  0.00  0.00    -0.012 C 
ATOM      7  C   UNL     1      29.634 -33.139 -29.421  0.00  0.00    -0.033 C 
ATOM      8  C   UNL     1      30.912 -33.657 -30.108  0.00  0.00    +0.039 C 
ATOM      9  C   UNL     1      32.004 -33.980 -29.116  0.00  0.00    +0.141 C 
ATOM     10  O   UNL     1      31.905 -33.711 -27.922  0.00  0.00    -0.297 OA
ATOM     11  C   UNL     1      33.206 -34.671 -29.665  0.00  0.00    +0.013 C 
ATOM     12  C   UNL     1      32.808 -35.999 -30.324  0.00  0.00    -0.013 C 
ATOM     13  C   UNL     1      32.196 -36.925 -29.248  0.00  0.00    -0.058 C 
ATOM     14  C   UNL     1      34.028 -36.721 -31.026  0.00  0.00    +0.007 C 
ATOM     15  C   UNL     1      34.081 -36.145 -32.457  0.00  0.00    +0.061 C 
ATOM     16  C   UNL     1      32.844 -35.254 -32.607  0.00  0.00    -0.020 C 
ATOM     17  C   UNL     1      31.829 -35.720 -31.529  0.00  0.00    -0.020 C 
ATOM     18  C   UNL     1      31.143 -37.019 -32.053  0.00  0.00    -0.059 C 
ATOM     19  C   UNL     1      30.665 -34.678 -31.246  0.00  0.00    -0.022 C 
ATOM     20  C   UNL     1      30.186 -34.018 -32.562  0.00  0.00    -0.048 C 
ATOM     21  C   UNL     1      29.172 -32.899 -32.374  0.00  0.00    -0.049 C 
ATOM     22  C   UNL     1      29.827 -31.734 -31.618  0.00  0.00    -0.026 C 
ATOM     23  C   UNL     1      28.911 -30.464 -31.470  0.00  0.00    +0.009 C 
ATOM     24  C   UNL     1      28.590 -29.915 -32.889  0.00  0.00    -0.056 C 
ATOM     25  C   UNL     1      27.596 -30.769 -30.732  0.00  0.00    +0.018 C 
ATOM     26  N   UNL     1      26.885 -29.542 -30.467  0.00  0.00    -0.332 N 
ATOM     27  H   UNL     1      29.226 -27.318 -30.183  0.00  0.00    +0.000 HD
ATOM     28  H   UNL     1      25.901 -29.547 -30.460  0.00  0.00    +0.000 HD
ENDROOT
BRANCH   1  30
ATOM     29  C   UNL     1      26.005 -27.401 -28.484  0.00  0.00    -0.056 C 
ATOM     30  C   UNL     1      26.732 -27.145 -29.801  0.00  0.00    +0.009 C 
ATOM     31  C   UNL     1      27.625 -25.911 -29.719  0.00  0.00    -0.056 C 
ENDBRANCH   1  30
BRANCH  14  32
ATOM     32  C   UNL     1      35.380 -36.932 -30.260  0.00  0.00    +0.013 C 
ATOM     33  C   UNL     1      36.035 -35.635 -29.731  0.00  0.00    -0.049 C 
BRANCH  32  34
ATOM     34  N   UNL     1      36.409 -37.663 -31.079  0.00  0.00    -0.305 N 
ATOM     35  C   UNL     1      37.780 -37.282 -30.689  0.00  0.00    -0.013 C 
ATOM     36  C   UNL     1      36.311 -39.126 -30.972  0.00  0.00    -0.013 C 
ATOM     37  H   UNL     1      36.213 -37.389 -32.042  0.00  0.00    +0.000 HD
ENDBRANCH  32  34
ENDBRANCH  14  32
BRANCH  15  38
ATOM     38  O   UNL     1      35.240 -35.395 -32.754  0.00  0.00    -0.391 OA
ATOM     39  H   UNL     1      36.011 -35.983 -32.768  0.00  0.00    +0.000 HD
ENDBRANCH  15  38
TORSDOF 4
ENDMDL
MODEL 11
REMARK VINA RESULT:    -6.743     19.071     22.372
REMARK INTER + INTRA:          -8.205
REMARK INTER:                  -8.132
REMARK INTRA:                  -0.073
REMARK UNBOUND:                -0.082
REMARK  Name = cpd85.pdb
REMARK  12 active torsions:
REMARK  status: ('A' for Active; 'I' for Inactive)
REMARK    1  A    between atoms: C_1  and  C_2
REMARK    2  A    between atoms: C_2  and  C_3
REMARK    3  A    between atoms: C_2  and  C_4
REMARK    4  A    between atoms: C_15  and  C_16
REMARK    5  A    between atoms: C_17  and  C_18
REMARK    6  A    between atoms: C_18  and  C_19
REMARK    7  A    between atoms: C_18  and  N_20
REMARK    8  A    between atoms: N_20  and  C_21
REMARK    9  A    between atoms: N_20  and  C_22
REMARK   10  A    between atoms: C_23  and  O_24
REMARK   11  A    between atoms: C_26  and  C_27
REMARK   12  A    between atoms: C_32  and  C_33
REMARK                            x       y       z     vdW  Elec       q    Type
REMARK                         _______ _______ _______ _____ _____    ______ ____
ROOT
ATOM      1  C   UNL     1      28.348 -30.201 -30.172  0.00  0.00    +0.093 C 
ATOM      2  N   UNL     1      28.369 -31.011 -29.171  0.00  0.00    -0.269 N 
ATOM      3  C   UNL     1      29.513 -31.926 -29.017  0.00  0.00    +0.060 C 
ATOM      4  C   UNL     1      29.067 -33.299 -29.538  0.00  0.00    -0.029 C 
ATOM      5  C   UNL     1      30.177 -34.334 -29.431  0.00  0.00    -0.044 C 
ATOM      6  C   UNL     1      31.420 -33.865 -30.167  0.00  0.00    -0.012 C 
ATOM      7  C   UNL     1      31.518 -34.143 -31.643  0.00  0.00    -0.033 C 
ATOM      8  C   UNL     1      32.433 -34.928 -30.683  0.00  0.00    +0.039 C 
ATOM      9  C   UNL     1      32.085 -36.397 -30.633  0.00  0.00    +0.141 C 
ATOM     10  O   UNL     1      31.091 -36.854 -31.191  0.00  0.00    -0.297 OA
ATOM     11  C   UNL     1      33.036 -37.271 -29.887  0.00  0.00    +0.013 C 
ATOM     12  C   UNL     1      34.443 -37.176 -30.493  0.00  0.00    -0.013 C 
ATOM     13  C   UNL     1      34.392 -37.689 -31.950  0.00  0.00    -0.058 C 
ATOM     14  C   UNL     1      35.518 -37.994 -29.670  0.00  0.00    +0.007 C 
ATOM     15  C   UNL     1      36.032 -37.026 -28.585  0.00  0.00    +0.061 C 
ATOM     16  C   UNL     1      35.391 -35.666 -28.883  0.00  0.00    -0.020 C 
ATOM     17  C   UNL     1      34.970 -35.694 -30.378  0.00  0.00    -0.020 C 
ATOM     18  C   UNL     1      36.250 -35.448 -31.235  0.00  0.00    -0.059 C 
ATOM     19  C   UNL     1      33.935 -34.559 -30.777  0.00  0.00    -0.022 C 
ATOM     20  C   UNL     1      34.279 -33.227 -30.068  0.00  0.00    -0.048 C 
ATOM     21  C   UNL     1      33.257 -32.118 -30.277  0.00  0.00    -0.049 C 
ATOM     22  C   UNL     1      31.923 -32.522 -29.632  0.00  0.00    -0.026 C 
ATOM     23  C   UNL     1      30.821 -31.402 -29.675  0.00  0.00    +0.009 C 
ATOM     24  C   UNL     1      31.324 -30.176 -28.862  0.00  0.00    -0.056 C 
ATOM     25  C   UNL     1      30.486 -30.960 -31.110  0.00  0.00    +0.018 C 
ATOM     26  N   UNL     1      29.349 -30.071 -31.098  0.00  0.00    -0.332 N 
ATOM     27  H   UNL     1      27.631 -31.019 -28.519  0.00  0.00    +0.000 HD
ATOM     28  H   UNL     1      29.292 -29.354 -31.771  0.00  0.00    +0.000 HD
ENDROOT
BRANCH   1  30
ATOM     29  C   UNL     1      26.838 -28.532 -29.040  0.00  0.00    -0.056 C 
ATOM     30  C   UNL     1      27.104 -29.320 -30.318  0.00  0.00    +0.009 C 
ATOM     31  C   UNL     1      27.244 -28.401 -31.527  0.00  0.00    -0.056 C 
ENDBRANCH   1  30
BRANCH  14  32
ATOM     32  C   UNL     1      35.250 -39.486 -29.268  0.00  0.00    +0.013 C 
ATOM     33  C   UNL     1      36.494 -40.257 -28.771  0.00  0.00    -0.049 C 
BRANCH  32  34
ATOM     34  N   UNL     1      34.626 -40.288 -30.377  0.00  0.00    -0.305 N 
ATOM     35  C   UNL     1      35.650 -40.970 -31.192  0.00  0.00    -0.013 C 
ATOM     36  C   UNL     1      33.688 -41.315 -29.902  0.00  0.00    -0.013 C 
ATOM     37  H   UNL     1      34.113 -39.604 -30.933  0.00  0.00    +0.000 HD
ENDBRANCH  32  34
ENDBRANCH  14  32
BRANCH  15  38
ATOM     38  O   UNL     1      35.732 -37.405 -27.258  0.00  0.00    -0.391 OA
ATOM     39  H   UNL     1      36.432 -37.988 -26.923  0.00  0.00    +0.000 HD
ENDBRANCH  15  38
TORSDOF 4
ENDMDL
MODEL 12
REMARK VINA RESULT:    -6.717      2.564      3.535
REMARK INTER + INTRA:          -8.173
REMARK INTER:                  -8.075
REMARK INTRA:                  -0.098
REMARK UNBOUND:                -0.082
REMARK  Name = cpd85.pdb
REMARK  12 active torsions:
REMARK  status: ('A' for Active; 'I' for Inactive)
REMARK    1  A    between atoms: C_1  and  C_2
REMARK    2  A    between atoms: C_2  and  C_3
REMARK    3  A    between atoms: C_2  and  C_4
REMARK    4  A    between atoms: C_15  and  C_16
REMARK    5  A    between atoms: C_17  and  C_18
REMARK    6  A    between atoms: C_18  and  C_19
REMARK    7  A    between atoms: C_18  and  N_20
REMARK    8  A    between atoms: N_20  and  C_21
REMARK    9  A    between atoms: N_20  and  C_22
REMARK   10  A    between atoms: C_23  and  O_24
REMARK   11  A    between atoms: C_26  and  C_27
REMARK   12  A    between atoms: C_32  and  C_33
REMARK                            x       y       z     vdW  Elec       q    Type
REMARK                         _______ _______ _______ _____ _____    ______ ____
ROOT
ATOM      1  C   UNL     1      47.143 -21.474 -41.522  0.00  0.00    +0.093 C 
ATOM      2  N   UNL     1      46.055 -21.955 -41.028  0.00  0.00    -0.269 N 
ATOM      3  C   UNL     1      44.980 -21.029 -40.634  0.00  0.00    +0.060 C 
ATOM      4  C   UNL     1      45.063 -20.861 -39.111  0.00  0.00    -0.029 C 
ATOM      5  C   UNL     1      43.993 -19.916 -38.585  0.00  0.00    -0.044 C 
ATOM      6  C   UNL     1      44.087 -18.566 -39.273  0.00  0.00    -0.012 C 
ATOM      7  C   UNL     1      45.040 -17.547 -38.710  0.00  0.00    -0.033 C 
ATOM      8  C   UNL     1      43.527 -17.310 -38.543  0.00  0.00    +0.039 C 
ATOM      9  C   UNL     1      43.089 -17.402 -37.100  0.00  0.00    +0.141 C 
ATOM     10  O   UNL     1      43.849 -17.770 -36.207  0.00  0.00    -0.297 OA
ATOM     11  C   UNL     1      41.683 -16.995 -36.813  0.00  0.00    +0.013 C 
ATOM     12  C   UNL     1      41.445 -15.543 -37.250  0.00  0.00    -0.013 C 
ATOM     13  C   UNL     1      42.369 -14.618 -36.426  0.00  0.00    -0.058 C 
ATOM     14  C   UNL     1      39.939 -15.093 -37.076  0.00  0.00    +0.007 C 
ATOM     15  C   UNL     1      39.233 -15.496 -38.387  0.00  0.00    +0.061 C 
ATOM     16  C   UNL     1      40.331 -16.005 -39.327  0.00  0.00    -0.020 C 
ATOM     17  C   UNL     1      41.669 -15.414 -38.805  0.00  0.00    -0.020 C 
ATOM     18  C   UNL     1      41.747 -13.929 -39.276  0.00  0.00    -0.059 C 
ATOM     19  C   UNL     1      42.960 -16.137 -39.380  0.00  0.00    -0.022 C 
ATOM     20  C   UNL     1      42.772 -16.493 -40.875  0.00  0.00    -0.048 C 
ATOM     21  C   UNL     1      43.902 -17.317 -41.474  0.00  0.00    -0.049 C 
ATOM     22  C   UNL     1      43.951 -18.693 -40.793  0.00  0.00    -0.026 C 
ATOM     23  C   UNL     1      45.002 -19.684 -41.413  0.00  0.00    +0.009 C 
ATOM     24  C   UNL     1      44.610 -19.963 -42.891  0.00  0.00    -0.056 C 
ATOM     25  C   UNL     1      46.436 -19.128 -41.362  0.00  0.00    +0.018 C 
ATOM     26  N   UNL     1      47.372 -20.147 -41.774  0.00  0.00    -0.332 N 
ATOM     27  H   UNL     1      45.945 -22.927 -40.916  0.00  0.00    +0.000 HD
ATOM     28  H   UNL     1      48.194 -19.882 -42.247  0.00  0.00    +0.000 HD
ENDROOT
BRANCH   1  30
ATOM     29  C   UNL     1      49.159 -22.707 -40.647  0.00  0.00    -0.056 C 
ATOM     30  C   UNL     1      48.252 -22.478 -41.852  0.00  0.00    +0.009 C 
ATOM     31  C   UNL     1      47.650 -23.784 -42.360  0.00  0.00    -0.056 C 
ENDBRANCH   1  30
BRANCH  14  32
ATOM     32  C   UNL     1      39.184 -15.336 -35.722  0.00  0.00    +0.013 C 
ATOM     33  C   UNL     1      39.173 -16.805 -35.240  0.00  0.00    -0.049 C 
BRANCH  32  34
ATOM     34  N   UNL     1      37.759 -14.853 -35.752  0.00  0.00    -0.305 N 
ATOM     35  C   UNL     1      36.860 -15.778 -35.037  0.00  0.00    -0.013 C 
ATOM     36  C   UNL     1      37.580 -13.520 -35.159  0.00  0.00    -0.013 C 
ATOM     37  H   UNL     1      37.524 -14.808 -36.744  0.00  0.00    +0.000 HD
ENDBRANCH  32  34
ENDBRANCH  14  32
BRANCH  15  38
ATOM     38  O   UNL     1      38.237 -16.486 -38.249  0.00  0.00    -0.391 OA
ATOM     39  H   UNL     1      37.373 -16.111 -38.481  0.00  0.00    +0.000 HD
ENDBRANCH  15  38
TORSDOF 4
ENDMDL
MODEL 13
REMARK VINA RESULT:    -6.638      2.458      3.272
REMARK INTER + INTRA:          -8.078
REMARK INTER:                  -8.365
REMARK INTRA:                   0.287
REMARK UNBOUND:                -0.082
REMARK  Name = cpd85.pdb
REMARK  12 active torsions:
REMARK  status: ('A' for Active; 'I' for Inactive)
REMARK    1  A    between atoms: C_1  and  C_2
REMARK    2  A    between atoms: C_2  and  C_3
REMARK    3  A    between atoms: C_2  and  C_4
REMARK    4  A    between atoms: C_15  and  C_16
REMARK    5  A    between atoms: C_17  and  C_18
REMARK    6  A    between atoms: C_18  and  C_19
REMARK    7  A    between atoms: C_18  and  N_20
REMARK    8  A    between atoms: N_20  and  C_21
REMARK    9  A    between atoms: N_20  and  C_22
REMARK   10  A    between atoms: C_23  and  O_24
REMARK   11  A    between atoms: C_26  and  C_27
REMARK   12  A    between atoms: C_32  and  C_33
REMARK                            x       y       z     vdW  Elec       q    Type
REMARK                         _______ _______ _______ _____ _____    ______ ____
ROOT
ATOM      1  C   UNL     1      46.766 -21.812 -40.851  0.00  0.00    +0.093 C 
ATOM      2  N   UNL     1      45.544 -22.125 -40.590  0.00  0.00    -0.269 N 
ATOM      3  C   UNL     1      44.545 -21.051 -40.455  0.00  0.00    +0.060 C 
ATOM      4  C   UNL     1      44.331 -20.819 -38.953  0.00  0.00    -0.029 C 
ATOM      5  C   UNL     1      43.313 -19.719 -38.689  0.00  0.00    -0.044 C 
ATOM      6  C   UNL     1      43.730 -18.428 -39.370  0.00  0.00    -0.012 C 
ATOM      7  C   UNL     1      44.674 -17.513 -38.639  0.00  0.00    -0.033 C 
ATOM      8  C   UNL     1      43.206 -17.076 -38.804  0.00  0.00    +0.039 C 
ATOM      9  C   UNL     1      42.468 -17.039 -37.486  0.00  0.00    +0.141 C 
ATOM     10  O   UNL     1      42.968 -17.455 -36.444  0.00  0.00    -0.297 OA
ATOM     11  C   UNL     1      41.102 -16.442 -37.515  0.00  0.00    +0.013 C 
ATOM     12  C   UNL     1      41.159 -14.995 -38.024  0.00  0.00    -0.013 C 
ATOM     13  C   UNL     1      42.008 -14.155 -37.043  0.00  0.00    -0.058 C 
ATOM     14  C   UNL     1      39.724 -14.349 -38.186  0.00  0.00    +0.007 C 
ATOM     15  C   UNL     1      39.260 -14.723 -39.608  0.00  0.00    +0.061 C 
ATOM     16  C   UNL     1      40.451 -15.415 -40.281  0.00  0.00    -0.020 C 
ATOM     17  C   UNL     1      41.718 -14.974 -39.499  0.00  0.00    -0.020 C 
ATOM     18  C   UNL     1      42.092 -13.536 -39.974  0.00  0.00    -0.059 C 
ATOM     19  C   UNL     1      42.991 -15.883 -39.768  0.00  0.00    -0.022 C 
ATOM     20  C   UNL     1      43.072 -16.287 -41.261  0.00  0.00    -0.048 C 
ATOM     21  C   UNL     1      44.180 -17.278 -41.587  0.00  0.00    -0.049 C 
ATOM     22  C   UNL     1      43.898 -18.613 -40.881  0.00  0.00    -0.026 C 
ATOM     23  C   UNL     1      44.912 -19.760 -41.241  0.00  0.00    +0.009 C 
ATOM     24  C   UNL     1      44.803 -20.061 -42.762  0.00  0.00    -0.056 C 
ATOM     25  C   UNL     1      46.366 -19.390 -40.897  0.00  0.00    +0.018 C 
ATOM     26  N   UNL     1      47.220 -20.539 -41.077  0.00  0.00    -0.332 N 
ATOM     27  H   UNL     1      45.282 -23.067 -40.483  0.00  0.00    +0.000 HD
ATOM     28  H   UNL     1      48.150 -20.406 -41.369  0.00  0.00    +0.000 HD
ENDROOT
BRANCH   1  30
ATOM     29  C   UNL     1      47.661 -23.717 -42.237  0.00  0.00    -0.056 C 
ATOM     30  C   UNL     1      47.772 -22.964 -40.914  0.00  0.00    +0.009 C 
ATOM     31  C   UNL     1      49.188 -22.446 -40.679  0.00  0.00    -0.056 C 
ENDBRANCH   1  30
BRANCH  14  32
ATOM     32  C   UNL     1      38.678 -14.425 -37.020  0.00  0.00    +0.013 C 
ATOM     33  C   UNL     1      37.658 -15.580 -37.138  0.00  0.00    -0.049 C 
BRANCH  32  34
ATOM     34  N   UNL     1      37.904 -13.147 -36.844  0.00  0.00    -0.305 N 
ATOM     35  C   UNL     1      38.679 -11.979 -37.303  0.00  0.00    -0.013 C 
ATOM     36  C   UNL     1      36.622 -13.135 -37.565  0.00  0.00    -0.013 C 
ATOM     37  H   UNL     1      37.720 -13.093 -35.842  0.00  0.00    +0.000 HD
ENDBRANCH  32  34
ENDBRANCH  14  32
BRANCH  15  38
ATOM     38  O   UNL     1      38.132 -15.570 -39.664  0.00  0.00    -0.391 OA
ATOM     39  H   UNL     1      37.656 -15.530 -38.820  0.00  0.00    +0.000 HD
ENDBRANCH  15  38
TORSDOF 4
ENDMDL
MODEL 14
REMARK VINA RESULT:    -6.472     23.112     24.869
REMARK INTER + INTRA:          -7.877
REMARK INTER:                  -7.857
REMARK INTRA:                  -0.020
REMARK UNBOUND:                -0.082
REMARK  Name = cpd85.pdb
REMARK  12 active torsions:
REMARK  status: ('A' for Active; 'I' for Inactive)
REMARK    1  A    between atoms: C_1  and  C_2
REMARK    2  A    between atoms: C_2  and  C_3
REMARK    3  A    between atoms: C_2  and  C_4
REMARK    4  A    between atoms: C_15  and  C_16
REMARK    5  A    between atoms: C_17  and  C_18
REMARK    6  A    between atoms: C_18  and  C_19
REMARK    7  A    between atoms: C_18  and  N_20
REMARK    8  A    between atoms: N_20  and  C_21
REMARK    9  A    between atoms: N_20  and  C_22
REMARK   10  A    between atoms: C_23  and  O_24
REMARK   11  A    between atoms: C_26  and  C_27
REMARK   12  A    between atoms: C_32  and  C_33
REMARK                            x       y       z     vdW  Elec       q    Type
REMARK                         _______ _______ _______ _____ _____    ______ ____
ROOT
ATOM      1  C   UNL     1      33.360 -43.348 -34.515  0.00  0.00    +0.093 C 
ATOM      2  N   UNL     1      32.332 -43.246 -33.746  0.00  0.00    -0.269 N 
ATOM      3  C   UNL     1      32.271 -42.138 -32.778  0.00  0.00    +0.060 C 
ATOM      4  C   UNL     1      32.672 -42.709 -31.411  0.00  0.00    -0.029 C 
ATOM      5  C   UNL     1      32.647 -41.646 -30.323  0.00  0.00    -0.044 C 
ATOM      6  C   UNL     1      33.546 -40.480 -30.694  0.00  0.00    -0.012 C 
ATOM      7  C   UNL     1      35.008 -40.574 -30.351  0.00  0.00    -0.033 C 
ATOM      8  C   UNL     1      34.128 -39.589 -29.558  0.00  0.00    +0.039 C 
ATOM      9  C   UNL     1      33.968 -39.999 -28.113  0.00  0.00    +0.141 C 
ATOM     10  O   UNL     1      34.383 -41.074 -27.687  0.00  0.00    -0.297 OA
ATOM     11  C   UNL     1      33.299 -39.009 -27.219  0.00  0.00    +0.013 C 
ATOM     12  C   UNL     1      34.071 -37.683 -27.214  0.00  0.00    -0.013 C 
ATOM     13  C   UNL     1      35.486 -37.933 -26.645  0.00  0.00    -0.058 C 
ATOM     14  C   UNL     1      33.344 -36.558 -26.373  0.00  0.00    +0.007 C 
ATOM     15  C   UNL     1      32.373 -35.871 -27.355  0.00  0.00    +0.061 C 
ATOM     16  C   UNL     1      32.657 -36.476 -28.734  0.00  0.00    -0.020 C 
ATOM     17  C   UNL     1      34.088 -37.074 -28.669  0.00  0.00    -0.020 C 
ATOM     18  C   UNL     1      35.101 -35.896 -28.810  0.00  0.00    -0.059 C 
ATOM     19  C   UNL     1      34.415 -38.093 -29.840  0.00  0.00    -0.022 C 
ATOM     20  C   UNL     1      33.815 -37.602 -31.180  0.00  0.00    -0.048 C 
ATOM     21  C   UNL     1      33.954 -38.586 -32.333  0.00  0.00    -0.049 C 
ATOM     22  C   UNL     1      33.137 -39.851 -32.028  0.00  0.00    -0.026 C 
ATOM     23  C   UNL     1      33.102 -40.895 -33.204  0.00  0.00    +0.009 C 
ATOM     24  C   UNL     1      32.413 -40.238 -34.432  0.00  0.00    -0.056 C 
ATOM     25  C   UNL     1      34.507 -41.378 -33.604  0.00  0.00    +0.018 C 
ATOM     26  N   UNL     1      34.403 -42.460 -34.553  0.00  0.00    -0.332 N 
ATOM     27  H   UNL     1      31.598 -43.900 -33.805  0.00  0.00    +0.000 HD
ATOM     28  H   UNL     1      35.096 -42.563 -35.244  0.00  0.00    +0.000 HD
ENDROOT
BRANCH   1  30
ATOM     29  C   UNL     1      34.391 -45.604 -34.958  0.00  0.00    -0.056 C 
ATOM     30  C   UNL     1      33.400 -44.556 -35.454  0.00  0.00    +0.009 C 
ATOM     31  C   UNL     1      32.001 -45.141 -35.625  0.00  0.00    -0.056 C 
ENDBRANCH   1  30
BRANCH  14  32
ATOM     32  C   UNL     1      32.843 -36.848 -24.915  0.00  0.00    +0.013 C 
ATOM     33  C   UNL     1      32.476 -35.591 -24.093  0.00  0.00    -0.049 C 
BRANCH  32  34
ATOM     34  N   UNL     1      33.825 -37.653 -24.109  0.00  0.00    -0.305 N 
ATOM     35  C   UNL     1      34.186 -36.965 -22.854  0.00  0.00    -0.013 C 
ATOM     36  C   UNL     1      33.332 -38.991 -23.750  0.00  0.00    -0.013 C 
ATOM     37  H   UNL     1      34.637 -37.752 -24.718  0.00  0.00    +0.000 HD
ENDBRANCH  32  34
ENDBRANCH  14  32
BRANCH  15  38
ATOM     38  O   UNL     1      31.004 -36.027 -27.047  0.00  0.00    -0.391 OA
ATOM     39  H   UNL     1      30.750 -36.956 -27.162  0.00  0.00    +0.000 HD
ENDBRANCH  15  38
TORSDOF 4
ENDMDL
MODEL 15
REMARK VINA RESULT:    -6.435     25.101     27.234
REMARK INTER + INTRA:          -7.833
REMARK INTER:                  -7.746
REMARK INTRA:                  -0.087
REMARK UNBOUND:                -0.082
REMARK  Name = cpd85.pdb
REMARK  12 active torsions:
REMARK  status: ('A' for Active; 'I' for Inactive)
REMARK    1  A    between atoms: C_1  and  C_2
REMARK    2  A    between atoms: C_2  and  C_3
REMARK    3  A    between atoms: C_2  and  C_4
REMARK    4  A    between atoms: C_15  and  C_16
REMARK    5  A    between atoms: C_17  and  C_18
REMARK    6  A    between atoms: C_18  and  C_19
REMARK    7  A    between atoms: C_18  and  N_20
REMARK    8  A    between atoms: N_20  and  C_21
REMARK    9  A    between atoms: N_20  and  C_22
REMARK   10  A    between atoms: C_23  and  O_24
REMARK   11  A    between atoms: C_26  and  C_27
REMARK   12  A    between atoms: C_32  and  C_33
REMARK                            x       y       z     vdW  Elec       q    Type
REMARK                         _______ _______ _______ _____ _____    ______ ____
ROOT
ATOM      1  C   UNL     1      34.284 -38.957 -27.156  0.00  0.00    +0.093 C 
ATOM      2  N   UNL     1      34.757 -40.154 -27.122  0.00  0.00    -0.269 N 
ATOM      3  C   UNL     1      34.767 -40.953 -28.360  0.00  0.00    +0.060 C 
ATOM      4  C   UNL     1      33.569 -41.910 -28.289  0.00  0.00    -0.029 C 
ATOM      5  C   UNL     1      33.474 -42.792 -29.526  0.00  0.00    -0.044 C 
ATOM      6  C   UNL     1      33.402 -41.944 -30.783  0.00  0.00    -0.012 C 
ATOM      7  C   UNL     1      32.053 -41.446 -31.228  0.00  0.00    -0.033 C 
ATOM      8  C   UNL     1      32.742 -42.546 -32.058  0.00  0.00    +0.039 C 
ATOM      9  C   UNL     1      32.008 -43.865 -31.984  0.00  0.00    +0.141 C 
ATOM     10  O   UNL     1      31.059 -44.044 -31.224  0.00  0.00    -0.297 OA
ATOM     11  C   UNL     1      32.484 -44.934 -32.908  0.00  0.00    +0.013 C 
ATOM     12  C   UNL     1      32.392 -44.465 -34.366  0.00  0.00    -0.013 C 
ATOM     13  C   UNL     1      30.910 -44.189 -34.707  0.00  0.00    -0.058 C 
ATOM     14  C   UNL     1      32.992 -45.516 -35.384  0.00  0.00    +0.007 C 
ATOM     15  C   UNL     1      34.496 -45.186 -35.480  0.00  0.00    +0.061 C 
ATOM     16  C   UNL     1      34.706 -43.899 -34.674  0.00  0.00    -0.020 C 
ATOM     17  C   UNL     1      33.320 -43.207 -34.577  0.00  0.00    -0.020 C 
ATOM     18  C   UNL     1      33.051 -42.490 -35.937  0.00  0.00    -0.059 C 
ATOM     19  C   UNL     1      33.234 -42.089 -33.454  0.00  0.00    -0.022 C 
ATOM     20  C   UNL     1      34.545 -41.266 -33.396  0.00  0.00    -0.048 C 
ATOM     21  C   UNL     1      34.612 -40.265 -32.252  0.00  0.00    -0.049 C 
ATOM     22  C   UNL     1      34.613 -41.017 -30.912  0.00  0.00    -0.026 C 
ATOM     23  C   UNL     1      34.804 -40.093 -29.654  0.00  0.00    +0.009 C 
ATOM     24  C   UNL     1      36.195 -39.404 -29.749  0.00  0.00    -0.056 C 
ATOM     25  C   UNL     1      33.709 -39.017 -29.542  0.00  0.00    +0.018 C 
ATOM     26  N   UNL     1      33.830 -38.323 -28.283  0.00  0.00    -0.332 N 
ATOM     27  H   UNL     1      35.107 -40.529 -26.283  0.00  0.00    +0.000 HD
ATOM     28  H   UNL     1      33.580 -37.372 -28.232  0.00  0.00    +0.000 HD
ENDROOT
BRANCH   1  30
ATOM     29  C   UNL     1      33.568 -36.838 -25.996  0.00  0.00    -0.056 C 
ATOM     30  C   UNL     1      34.239 -38.198 -25.827  0.00  0.00    +0.009 C 
ATOM     31  C   UNL     1      33.545 -39.038 -24.760  0.00  0.00    -0.056 C 
ENDBRANCH   1  30
BRANCH  14  32
ATOM     32  C   UNL     1      32.566 -47.024 -35.319  0.00  0.00    +0.013 C 
ATOM     33  C   UNL     1      32.611 -47.650 -33.906  0.00  0.00    -0.049 C 
BRANCH  32  34
ATOM     34  N   UNL     1      33.377 -47.901 -36.234  0.00  0.00    -0.305 N 
ATOM     35  C   UNL     1      33.541 -49.257 -35.677  0.00  0.00    -0.013 C 
ATOM     36  C   UNL     1      32.793 -48.044 -37.576  0.00  0.00    -0.013 C 
ATOM     37  H   UNL     1      34.276 -47.427 -36.315  0.00  0.00    +0.000 HD
ENDBRANCH  32  34
ENDBRANCH  14  32
BRANCH  15  38
ATOM     38  O   UNL     1      35.360 -46.191 -34.994  0.00  0.00    -0.391 OA
ATOM     39  H   UNL     1      35.614 -45.984 -34.080  0.00  0.00    +0.000 HD
ENDBRANCH  15  38
TORSDOF 4
ENDMDL
MODEL 16
REMARK VINA RESULT:    -6.401      4.003      5.450
REMARK INTER + INTRA:          -7.792
REMARK INTER:                  -7.742
REMARK INTRA:                  -0.051
REMARK UNBOUND:                -0.082
REMARK  Name = cpd85.pdb
REMARK  12 active torsions:
REMARK  status: ('A' for Active; 'I' for Inactive)
REMARK    1  A    between atoms: C_1  and  C_2
REMARK    2  A    between atoms: C_2  and  C_3
REMARK    3  A    between atoms: C_2  and  C_4
REMARK    4  A    between atoms: C_15  and  C_16
REMARK    5  A    between atoms: C_17  and  C_18
REMARK    6  A    between atoms: C_18  and  C_19
REMARK    7  A    between atoms: C_18  and  N_20
REMARK    8  A    between atoms: N_20  and  C_21
REMARK    9  A    between atoms: N_20  and  C_22
REMARK   10  A    between atoms: C_23  and  O_24
REMARK   11  A    between atoms: C_26  and  C_27
REMARK   12  A    between atoms: C_32  and  C_33
REMARK                            x       y       z     vdW  Elec       q    Type
REMARK                         _______ _______ _______ _____ _____    ______ ____
ROOT
ATOM      1  C   UNL     1      44.392 -20.179 -40.518  0.00  0.00    +0.093 C 
ATOM      2  N   UNL     1      44.337 -18.963 -40.099  0.00  0.00    -0.269 N 
ATOM      3  C   UNL     1      43.595 -18.669 -38.860  0.00  0.00    +0.060 C 
ATOM      4  C   UNL     1      42.226 -18.112 -39.274  0.00  0.00    -0.029 C 
ATOM      5  C   UNL     1      41.365 -17.771 -38.067  0.00  0.00    -0.044 C 
ATOM      6  C   UNL     1      41.194 -18.985 -37.172  0.00  0.00    -0.012 C 
ATOM      7  C   UNL     1      40.087 -19.953 -37.491  0.00  0.00    -0.033 C 
ATOM      8  C   UNL     1      39.948 -19.063 -36.241  0.00  0.00    +0.039 C 
ATOM      9  C   UNL     1      38.833 -18.053 -36.378  0.00  0.00    +0.141 C 
ATOM     10  O   UNL     1      38.223 -17.889 -37.432  0.00  0.00    -0.297 OA
ATOM     11  C   UNL     1      38.492 -17.281 -35.149  0.00  0.00    +0.013 C 
ATOM     12  C   UNL     1      38.085 -18.230 -34.013  0.00  0.00    -0.013 C 
ATOM     13  C   UNL     1      36.814 -18.999 -34.440  0.00  0.00    -0.058 C 
ATOM     14  C   UNL     1      37.824 -17.472 -32.649  0.00  0.00    +0.007 C 
ATOM     15  C   UNL     1      39.198 -17.392 -31.952  0.00  0.00    +0.061 C 
ATOM     16  C   UNL     1      40.165 -18.213 -32.812  0.00  0.00    -0.020 C 
ATOM     17  C   UNL     1      39.293 -19.179 -33.658  0.00  0.00    -0.020 C 
ATOM     18  C   UNL     1      38.868 -20.365 -32.737  0.00  0.00    -0.059 C 
ATOM     19  C   UNL     1      40.055 -19.820 -34.894  0.00  0.00    -0.022 C 
ATOM     20  C   UNL     1      41.512 -20.182 -34.515  0.00  0.00    -0.048 C 
ATOM     21  C   UNL     1      42.364 -20.669 -35.677  0.00  0.00    -0.049 C 
ATOM     22  C   UNL     1      42.542 -19.532 -36.695  0.00  0.00    -0.026 C 
ATOM     23  C   UNL     1      43.509 -19.877 -37.886  0.00  0.00    +0.009 C 
ATOM     24  C   UNL     1      44.928 -20.149 -37.311  0.00  0.00    -0.056 C 
ATOM     25  C   UNL     1      43.041 -21.103 -38.689  0.00  0.00    +0.018 C 
ATOM     26  N   UNL     1      43.859 -21.261 -39.867  0.00  0.00    -0.332 N 
ATOM     27  H   UNL     1      44.782 -18.241 -40.598  0.00  0.00    +0.000 HD
ATOM     28  H   UNL     1      44.038 -22.165 -40.211  0.00  0.00    +0.000 HD
ENDROOT
BRANCH   1  30
ATOM     29  C   UNL     1      44.315 -19.862 -43.017  0.00  0.00    -0.056 C 
ATOM     30  C   UNL     1      45.120 -20.416 -41.845  0.00  0.00    +0.009 C 
ATOM     31  C   UNL     1      46.523 -19.821 -41.794  0.00  0.00    -0.056 C 
ENDBRANCH   1  30
BRANCH  14  32
ATOM     32  C   UNL     1      36.893 -16.211 -32.602  0.00  0.00    +0.013 C 
ATOM     33  C   UNL     1      37.307 -15.062 -33.550  0.00  0.00    -0.049 C 
BRANCH  32  34
ATOM     34  N   UNL     1      36.758 -15.636 -31.218  0.00  0.00    -0.305 N 
ATOM     35  C   UNL     1      36.989 -14.179 -31.214  0.00  0.00    -0.013 C 
ATOM     36  C   UNL     1      35.439 -15.873 -30.611  0.00  0.00    -0.013 C 
ATOM     37  H   UNL     1      37.467 -16.120 -30.668  0.00  0.00    +0.000 HD
ENDBRANCH  32  34
ENDBRANCH  14  32
BRANCH  15  38
ATOM     38  O   UNL     1      39.708 -16.086 -31.788  0.00  0.00    -0.391 OA
ATOM     39  H   UNL     1      40.547 -16.125 -31.302  0.00  0.00    +0.000 HD
ENDBRANCH  15  38
TORSDOF 4
ENDMDL
MODEL 17
REMARK VINA RESULT:    -6.265     27.510     33.684
REMARK INTER + INTRA:          -7.628
REMARK INTER:                  -7.526
REMARK INTRA:                  -0.102
REMARK UNBOUND:                -0.082
REMARK  Name = cpd85.pdb
REMARK  12 active torsions:
REMARK  status: ('A' for Active; 'I' for Inactive)
REMARK    1  A    between atoms: C_1  and  C_2
REMARK    2  A    between atoms: C_2  and  C_3
REMARK    3  A    between atoms: C_2  and  C_4
REMARK    4  A    between atoms: C_15  and  C_16
REMARK    5  A    between atoms: C_17  and  C_18
REMARK    6  A    between atoms: C_18  and  C_19
REMARK    7  A    between atoms: C_18  and  N_20
REMARK    8  A    between atoms: N_20  and  C_21
REMARK    9  A    between atoms: N_20  and  C_22
REMARK   10  A    between atoms: C_23  and  O_24
REMARK   11  A    between atoms: C_26  and  C_27
REMARK   12  A    between atoms: C_32  and  C_33
REMARK                            x       y       z     vdW  Elec       q    Type
REMARK                         _______ _______ _______ _____ _____    ______ ____
ROOT
ATOM      1  C   UNL     1      49.468 -45.423 -48.517  0.00  0.00    +0.093 C 
ATOM      2  N   UNL     1      50.226 -45.886 -49.450  0.00  0.00    -0.269 N 
ATOM      3  C   UNL     1      51.369 -46.740 -49.083  0.00  0.00    +0.060 C 
ATOM      4  C   UNL     1      52.624 -45.858 -49.124  0.00  0.00    -0.029 C 
ATOM      5  C   UNL     1      53.877 -46.638 -48.757  0.00  0.00    -0.044 C 
ATOM      6  C   UNL     1      53.727 -47.281 -47.390  0.00  0.00    -0.012 C 
ATOM      7  C   UNL     1      54.072 -46.461 -46.177  0.00  0.00    -0.033 C 
ATOM      8  C   UNL     1      55.008 -47.619 -46.573  0.00  0.00    +0.039 C 
ATOM      9  C   UNL     1      56.359 -47.130 -47.041  0.00  0.00    +0.141 C 
ATOM     10  O   UNL     1      56.600 -45.938 -47.213  0.00  0.00    -0.297 OA
ATOM     11  C   UNL     1      57.397 -48.179 -47.257  0.00  0.00    +0.013 C 
ATOM     12  C   UNL     1      57.642 -48.967 -45.964  0.00  0.00    -0.013 C 
ATOM     13  C   UNL     1      58.183 -48.000 -44.886  0.00  0.00    -0.058 C 
ATOM     14  C   UNL     1      58.651 -50.169 -46.164  0.00  0.00    +0.007 C 
ATOM     15  C   UNL     1      57.786 -51.366 -46.609  0.00  0.00    +0.061 C 
ATOM     16  C   UNL     1      56.328 -50.903 -46.507  0.00  0.00    -0.020 C 
ATOM     17  C   UNL     1      56.314 -49.698 -45.529  0.00  0.00    -0.020 C 
ATOM     18  C   UNL     1      56.393 -50.264 -44.077  0.00  0.00    -0.059 C 
ATOM     19  C   UNL     1      54.990 -48.825 -45.600  0.00  0.00    -0.022 C 
ATOM     20  C   UNL     1      53.745 -49.728 -45.775  0.00  0.00    -0.048 C 
ATOM     21  C   UNL     1      52.443 -48.971 -45.999  0.00  0.00    -0.049 C 
ATOM     22  C   UNL     1      52.513 -48.213 -47.332  0.00  0.00    -0.026 C 
ATOM     23  C   UNL     1      51.176 -47.490 -47.734  0.00  0.00    +0.009 C 
ATOM     24  C   UNL     1      50.067 -48.563 -47.921  0.00  0.00    -0.056 C 
ATOM     25  C   UNL     1      50.721 -46.464 -46.681  0.00  0.00    +0.018 C 
ATOM     26  N   UNL     1      49.600 -45.708 -47.184  0.00  0.00    -0.332 N 
ATOM     27  H   UNL     1      50.044 -45.673 -50.393  0.00  0.00    +0.000 HD
ATOM     28  H   UNL     1      48.913 -45.390 -46.554  0.00  0.00    +0.000 HD
ENDROOT
BRANCH   1  30
ATOM     29  C   UNL     1      47.211 -45.267 -49.626  0.00  0.00    -0.056 C 
ATOM     30  C   UNL     1      48.336 -44.488 -48.952  0.00  0.00    +0.009 C 
ATOM     31  C   UNL     1      47.828 -43.681 -47.762  0.00  0.00    -0.056 C 
ENDBRANCH   1  30
BRANCH  14  32
ATOM     32  C   UNL     1      60.029 -49.944 -46.879  0.00  0.00    +0.013 C 
ATOM     33  C   UNL     1      61.085 -51.042 -46.613  0.00  0.00    -0.049 C 
BRANCH  32  34
ATOM     34  N   UNL     1      60.654 -48.617 -46.541  0.00  0.00    -0.305 N 
ATOM     35  C   UNL     1      61.856 -48.784 -45.703  0.00  0.00    -0.013 C 
ATOM     36  C   UNL     1      61.046 -47.837 -47.723  0.00  0.00    -0.013 C 
ATOM     37  H   UNL     1      59.925 -48.111 -46.038  0.00  0.00    +0.000 HD
ENDBRANCH  32  34
ENDBRANCH  14  32
BRANCH  15  38
ATOM     38  O   UNL     1      58.040 -51.832 -47.917  0.00  0.00    -0.391 OA
ATOM     39  H   UNL     1      58.995 -51.808 -48.089  0.00  0.00    +0.000 HD
ENDBRANCH  15  38
TORSDOF 4
ENDMDL
MODEL 18
REMARK VINA RESULT:    -6.243     23.792     25.572
REMARK INTER + INTRA:          -7.602
REMARK INTER:                  -7.478
REMARK INTRA:                  -0.123
REMARK UNBOUND:                -0.082
REMARK  Name = cpd85.pdb
REMARK  12 active torsions:
REMARK  status: ('A' for Active; 'I' for Inactive)
REMARK    1  A    between atoms: C_1  and  C_2
REMARK    2  A    between atoms: C_2  and  C_3
REMARK    3  A    between atoms: C_2  and  C_4
REMARK    4  A    between atoms: C_15  and  C_16
REMARK    5  A    between atoms: C_17  and  C_18
REMARK    6  A    between atoms: C_18  and  C_19
REMARK    7  A    between atoms: C_18  and  N_20
REMARK    8  A    between atoms: N_20  and  C_21
REMARK    9  A    between atoms: N_20  and  C_22
REMARK   10  A    between atoms: C_23  and  O_24
REMARK   11  A    between atoms: C_26  and  C_27
REMARK   12  A    between atoms: C_32  and  C_33
REMARK                            x       y       z     vdW  Elec       q    Type
REMARK                         _______ _______ _______ _____ _____    ______ ____
ROOT
ATOM      1  C   UNL     1      32.682 -44.969 -25.695  0.00  0.00    +0.093 C 
ATOM      2  N   UNL     1      31.702 -44.379 -26.286  0.00  0.00    -0.269 N 
ATOM      3  C   UNL     1      31.989 -43.264 -27.204  0.00  0.00    +0.060 C 
ATOM      4  C   UNL     1      31.716 -41.964 -26.435  0.00  0.00    -0.029 C 
ATOM      5  C   UNL     1      31.983 -40.733 -27.290  0.00  0.00    -0.044 C 
ATOM      6  C   UNL     1      33.406 -40.747 -27.818  0.00  0.00    -0.012 C 
ATOM      7  C   UNL     1      34.494 -40.183 -26.945  0.00  0.00    -0.033 C 
ATOM      8  C   UNL     1      34.078 -39.397 -28.203  0.00  0.00    +0.039 C 
ATOM      9  C   UNL     1      33.403 -38.088 -27.864  0.00  0.00    +0.141 C 
ATOM     10  O   UNL     1      33.104 -37.785 -26.712  0.00  0.00    -0.297 OA
ATOM     11  C   UNL     1      33.143 -37.168 -29.009  0.00  0.00    +0.013 C 
ATOM     12  C   UNL     1      34.455 -36.811 -29.720  0.00  0.00    -0.013 C 
ATOM     13  C   UNL     1      35.372 -36.062 -28.727  0.00  0.00    -0.058 C 
ATOM     14  C   UNL     1      34.227 -35.929 -31.013  0.00  0.00    +0.007 C 
ATOM     15  C   UNL     1      33.996 -36.933 -32.162  0.00  0.00    +0.061 C 
ATOM     16  C   UNL     1      34.244 -38.325 -31.573  0.00  0.00    -0.020 C 
ATOM     17  C   UNL     1      35.114 -38.120 -30.303  0.00  0.00    -0.020 C 
ATOM     18  C   UNL     1      36.586 -37.890 -30.769  0.00  0.00    -0.059 C 
ATOM     19  C   UNL     1      35.141 -39.373 -29.330  0.00  0.00    -0.022 C 
ATOM     20  C   UNL     1      35.201 -40.694 -30.135  0.00  0.00    -0.048 C 
ATOM     21  C   UNL     1      35.084 -41.954 -29.290  0.00  0.00    -0.049 C 
ATOM     22  C   UNL     1      33.694 -42.007 -28.638  0.00  0.00    -0.026 C 
ATOM     23  C   UNL     1      33.408 -43.329 -27.836  0.00  0.00    +0.009 C 
ATOM     24  C   UNL     1      33.453 -44.530 -28.823  0.00  0.00    -0.056 C 
ATOM     25  C   UNL     1      34.423 -43.562 -26.703  0.00  0.00    +0.018 C 
ATOM     26  N   UNL     1      34.007 -44.682 -25.893  0.00  0.00    -0.332 N 
ATOM     27  H   UNL     1      30.775 -44.669 -26.126  0.00  0.00    +0.000 HD
ATOM     28  H   UNL     1      34.691 -45.253 -25.475  0.00  0.00    +0.000 HD
ENDROOT
BRANCH   1  30
ATOM     29  C   UNL     1      33.378 -46.200 -23.609  0.00  0.00    -0.056 C 
ATOM     30  C   UNL     1      32.320 -46.077 -24.702  0.00  0.00    +0.009 C 
ATOM     31  C   UNL     1      30.933 -45.832 -24.116  0.00  0.00    -0.056 C 
ENDBRANCH   1  30
BRANCH  14  32
ATOM     32  C   UNL     1      33.326 -34.646 -30.957  0.00  0.00    +0.013 C 
ATOM     33  C   UNL     1      33.342 -33.786 -32.241  0.00  0.00    -0.049 C 
BRANCH  32  34
ATOM     34  N   UNL     1      33.663 -33.747 -29.798  0.00  0.00    -0.305 N 
ATOM     35  C   UNL     1      34.328 -32.510 -30.251  0.00  0.00    -0.013 C 
ATOM     36  C   UNL     1      32.490 -33.350 -29.005  0.00  0.00    -0.013 C 
ATOM     37  H   UNL     1      34.285 -34.304 -29.213  0.00  0.00    +0.000 HD
ENDBRANCH  32  34
ENDBRANCH  14  32
BRANCH  15  38
ATOM     38  O   UNL     1      32.709 -36.891 -32.741  0.00  0.00    -0.391 OA
ATOM     39  H   UNL     1      32.776 -36.570 -33.655  0.00  0.00    +0.000 HD
ENDBRANCH  15  38
TORSDOF 4
ENDMDL
MODEL 19
REMARK VINA RESULT:    -5.883     27.716     31.521
REMARK INTER + INTRA:          -7.168
REMARK INTER:                  -7.046
REMARK INTRA:                  -0.122
REMARK UNBOUND:                -0.082
REMARK  Name = cpd85.pdb
REMARK  12 active torsions:
REMARK  status: ('A' for Active; 'I' for Inactive)
REMARK    1  A    between atoms: C_1  and  C_2
REMARK    2  A    between atoms: C_2  and  C_3
REMARK    3  A    between atoms: C_2  and  C_4
REMARK    4  A    between atoms: C_15  and  C_16
REMARK    5  A    between atoms: C_17  and  C_18
REMARK    6  A    between atoms: C_18  and  C_19
REMARK    7  A    between atoms: C_18  and  N_20
REMARK    8  A    between atoms: N_20  and  C_21
REMARK    9  A    between atoms: N_20  and  C_22
REMARK   10  A    between atoms: C_23  and  O_24
REMARK   11  A    between atoms: C_26  and  C_27
REMARK   12  A    between atoms: C_32  and  C_33
REMARK                            x       y       z     vdW  Elec       q    Type
REMARK                         _______ _______ _______ _____ _____    ______ ____
ROOT
ATOM      1  C   UNL     1      59.248 -48.267 -46.825  0.00  0.00    +0.093 C 
ATOM      2  N   UNL     1      58.844 -47.049 -46.722  0.00  0.00    -0.269 N 
ATOM      3  C   UNL     1      57.398 -46.771 -46.747  0.00  0.00    +0.060 C 
ATOM      4  C   UNL     1      57.054 -46.289 -48.163  0.00  0.00    -0.029 C 
ATOM      5  C   UNL     1      55.573 -45.972 -48.310  0.00  0.00    -0.044 C 
ATOM      6  C   UNL     1      54.728 -47.178 -47.942  0.00  0.00    -0.012 C 
ATOM      7  C   UNL     1      54.454 -48.204 -49.008  0.00  0.00    -0.033 C 
ATOM      8  C   UNL     1      53.296 -47.302 -48.539  0.00  0.00    +0.039 C 
ATOM      9  C   UNL     1      52.837 -46.351 -49.619  0.00  0.00    +0.141 C 
ATOM     10  O   UNL     1      53.435 -46.234 -50.686  0.00  0.00    -0.297 OA
ATOM     11  C   UNL     1      51.596 -45.577 -49.328  0.00  0.00    +0.013 C 
ATOM     12  C   UNL     1      50.422 -46.526 -49.055  0.00  0.00    -0.013 C 
ATOM     13  C   UNL     1      50.154 -47.364 -50.326  0.00  0.00    -0.058 C 
ATOM     14  C   UNL     1      49.106 -45.760 -48.627  0.00  0.00    +0.007 C 
ATOM     15  C   UNL     1      49.200 -45.602 -47.095  0.00  0.00    +0.061 C 
ATOM     16  C   UNL     1      50.440 -46.388 -46.657  0.00  0.00    -0.020 C 
ATOM     17  C   UNL     1      50.739 -47.409 -47.788  0.00  0.00    -0.020 C 
ATOM     18  C   UNL     1      49.742 -48.599 -47.627  0.00  0.00    -0.059 C 
ATOM     19  C   UNL     1      52.197 -48.032 -47.726  0.00  0.00    -0.022 C 
ATOM     20  C   UNL     1      52.613 -48.315 -46.262  0.00  0.00    -0.048 C 
ATOM     21  C   UNL     1      54.053 -48.778 -46.093  0.00  0.00    -0.049 C 
ATOM     22  C   UNL     1      55.007 -47.651 -46.513  0.00  0.00    -0.026 C 
ATOM     23  C   UNL     1      56.527 -47.967 -46.266  0.00  0.00    +0.009 C 
ATOM     24  C   UNL     1      56.754 -48.159 -44.740  0.00  0.00    -0.056 C 
ATOM     25  C   UNL     1      56.996 -49.227 -47.015  0.00  0.00    +0.018 C 
ATOM     26  N   UNL     1      58.428 -49.363 -46.900  0.00  0.00    -0.332 N 
ATOM     27  H   UNL     1      59.492 -46.314 -46.628  0.00  0.00    +0.000 HD
ATOM     28  H   UNL     1      58.826 -50.263 -46.874  0.00  0.00    +0.000 HD
ENDROOT
BRANCH   1  30
ATOM     29  C   UNL     1      61.157 -49.703 -46.024  0.00  0.00    -0.056 C 
ATOM     30  C   UNL     1      60.762 -48.489 -46.860  0.00  0.00    +0.009 C 
ATOM     31  C   UNL     1      61.247 -48.616 -48.300  0.00  0.00    -0.056 C 
ENDBRANCH   1  30
BRANCH  14  32
ATOM     32  C   UNL     1      48.579 -44.546 -49.468  0.00  0.00    +0.013 C 
ATOM     33  C   UNL     1      47.183 -44.027 -49.053  0.00  0.00    -0.049 C 
BRANCH  32  34
ATOM     34  N   UNL     1      48.541 -44.830 -50.945  0.00  0.00    -0.305 N 
ATOM     35  C   UNL     1      47.157 -44.863 -51.454  0.00  0.00    -0.013 C 
ATOM     36  C   UNL     1      49.282 -43.846 -51.749  0.00  0.00    -0.013 C 
ATOM     37  H   UNL     1      48.989 -45.741 -51.043  0.00  0.00    +0.000 HD
ENDBRANCH  32  34
ENDBRANCH  14  32
BRANCH  15  38
ATOM     38  O   UNL     1      49.303 -44.269 -46.639  0.00  0.00    -0.391 OA
ATOM     39  H   UNL     1      48.909 -43.672 -47.295  0.00  0.00    +0.000 HD
ENDBRANCH  15  38
TORSDOF 4
ENDMDL
MODEL 20
REMARK VINA RESULT:    -5.879      5.000      7.195
REMARK INTER + INTRA:          -7.163
REMARK INTER:                  -7.025
REMARK INTRA:                  -0.138
REMARK UNBOUND:                -0.082
REMARK  Name = cpd85.pdb
REMARK  12 active torsions:
REMARK  status: ('A' for Active; 'I' for Inactive)
REMARK    1  A    between atoms: C_1  and  C_2
REMARK    2  A    between atoms: C_2  and  C_3
REMARK    3  A    between atoms: C_2  and  C_4
REMARK    4  A    between atoms: C_15  and  C_16
REMARK    5  A    between atoms: C_17  and  C_18
REMARK    6  A    between atoms: C_18  and  C_19
REMARK    7  A    between atoms: C_18  and  N_20
REMARK    8  A    between atoms: N_20  and  C_21
REMARK    9  A    between atoms: N_20  and  C_22
REMARK   10  A    between atoms: C_23  and  O_24
REMARK   11  A    between atoms: C_26  and  C_27
REMARK   12  A    between atoms: C_32  and  C_33
REMARK                            x       y       z     vdW  Elec       q    Type
REMARK                         _______ _______ _______ _____ _____    ______ ____
ROOT
ATOM      1  C   UNL     1      47.106 -13.694 -41.772  0.00  0.00    +0.093 C 
ATOM      2  N   UNL     1      46.033 -13.313 -41.172  0.00  0.00    -0.269 N 
ATOM      3  C   UNL     1      45.603 -14.026 -39.956  0.00  0.00    +0.060 C 
ATOM      4  C   UNL     1      44.487 -14.995 -40.371  0.00  0.00    -0.029 C 
ATOM      5  C   UNL     1      43.963 -15.795 -39.188  0.00  0.00    -0.044 C 
ATOM      6  C   UNL     1      45.092 -16.547 -38.507  0.00  0.00    -0.012 C 
ATOM      7  C   UNL     1      45.473 -17.898 -39.050  0.00  0.00    -0.033 C 
ATOM      8  C   UNL     1      44.755 -17.828 -37.688  0.00  0.00    +0.039 C 
ATOM      9  C   UNL     1      43.367 -18.421 -37.741  0.00  0.00    +0.141 C 
ATOM     10  O   UNL     1      42.846 -18.776 -38.796  0.00  0.00    -0.297 OA
ATOM     11  C   UNL     1      42.670 -18.578 -36.432  0.00  0.00    +0.013 C 
ATOM     12  C   UNL     1      43.490 -19.470 -35.490  0.00  0.00    -0.013 C 
ATOM     13  C   UNL     1      43.612 -20.877 -36.118  0.00  0.00    -0.058 C 
ATOM     14  C   UNL     1      42.854 -19.577 -34.046  0.00  0.00    +0.007 C 
ATOM     15  C   UNL     1      43.429 -18.386 -33.252  0.00  0.00    +0.061 C 
ATOM     16  C   UNL     1      44.471 -17.726 -34.161  0.00  0.00    -0.020 C 
ATOM     17  C   UNL     1      44.887 -18.796 -35.206  0.00  0.00    -0.020 C 
ATOM     18  C   UNL     1      45.889 -19.771 -34.513  0.00  0.00    -0.059 C 
ATOM     19  C   UNL     1      45.638 -18.203 -36.472  0.00  0.00    -0.022 C 
ATOM     20  C   UNL     1      46.610 -17.072 -36.055  0.00  0.00    -0.048 C 
ATOM     21  C   UNL     1      47.268 -16.344 -37.218  0.00  0.00    -0.049 C 
ATOM     22  C   UNL     1      46.198 -15.601 -38.031  0.00  0.00    -0.026 C 
ATOM     23  C   UNL     1      46.772 -14.709 -39.192  0.00  0.00    +0.009 C 
ATOM     24  C   UNL     1      47.669 -13.602 -38.571  0.00  0.00    -0.056 C 
ATOM     25  C   UNL     1      47.594 -15.522 -40.207  0.00  0.00    +0.018 C 
ATOM     26  N   UNL     1      47.938 -14.692 -41.337  0.00  0.00    -0.332 N 
ATOM     27  H   UNL     1      45.507 -12.558 -41.520  0.00  0.00    +0.000 HD
ATOM     28  H   UNL     1      48.790 -14.846 -41.805  0.00  0.00    +0.000 HD
ENDROOT
BRANCH   1  30
ATOM     29  C   UNL     1      46.324 -12.061 -43.524  0.00  0.00    -0.056 C 
ATOM     30  C   UNL     1      47.468 -12.960 -43.066  0.00  0.00    +0.009 C 
ATOM     31  C   UNL     1      48.763 -12.175 -42.887  0.00  0.00    -0.056 C 
ENDBRANCH   1  30
BRANCH  14  32
ATOM     32  C   UNL     1      41.336 -19.926 -33.865  0.00  0.00    +0.013 C 
ATOM     33  C   UNL     1      40.902 -20.200 -32.407  0.00  0.00    -0.049 C 
BRANCH  32  34
ATOM     34  N   UNL     1      40.902 -21.101 -34.700  0.00  0.00    -0.305 N 
ATOM     35  C   UNL     1      40.635 -22.287 -33.865  0.00  0.00    -0.013 C 
ATOM     36  C   UNL     1      39.692 -20.840 -35.494  0.00  0.00    -0.013 C 
ATOM     37  H   UNL     1      41.684 -21.268 -35.334  0.00  0.00    +0.000 HD
ENDBRANCH  32  34
ENDBRANCH  14  32
BRANCH  15  38
ATOM     38  O   UNL     1      42.478 -17.422 -32.851  0.00  0.00    -0.391 OA
ATOM     39  H   UNL     1      42.786 -16.539 -33.107  0.00  0.00    +0.000 HD
ENDBRANCH  15  38
TORSDOF 4
ENDMDL
