REMARK  Name = cpd85.pdb
REMARK  12 active torsions:
REMARK  status: ('A' for Active; 'I' for Inactive)
REMARK    1  A    between atoms: C_1  and  C_2
REMARK    2  A    between atoms: C_2  and  C_3
REMARK    3  A    between atoms: C_2  and  C_4
REMARK    4  A    between atoms: C_15  and  C_16
REMARK    5  A    between atoms: C_17  and  C_18
REMARK    6  A    between atoms: C_18  and  C_19
REMARK    7  A    between atoms: C_18  and  N_20
REMARK    8  A    between atoms: N_20  and  C_21
REMARK    9  A    between atoms: N_20  and  C_22
REMARK   10  A    between atoms: C_23  and  O_24
REMARK   11  A    between atoms: C_26  and  C_27
REMARK   12  A    between atoms: C_32  and  C_33
REMARK                            x       y       z     vdW  Elec       q    Type
REMARK                         _______ _______ _______ _____ _____    ______ ____
ROOT
ATOM      1  C   UNL     1       2.311  -0.453   0.421  0.00  0.00    +0.093 C 
ATOM      2  N   UNL     1       2.089   0.414   1.347  0.00  0.00    -0.269 N 
ATOM      3  C   UNL     1       0.799   1.125   1.365  0.00  0.00    +0.060 C 
ATOM      4  C   UNL     1       1.038   2.511   0.751  0.00  0.00    -0.029 C 
ATOM      5  C   UNL     1      -0.236   3.342   0.714  0.00  0.00    -0.044 C 
ATOM      6  C   UNL     1      -1.331   2.610  -0.041  0.00  0.00    -0.012 C 
ATOM      7  C   UNL     1      -1.380   2.755  -1.538  0.00  0.00    -0.033 C 
ATOM      8  C   UNL     1      -2.475   3.438  -0.696  0.00  0.00    +0.039 C 
ATOM      9  C   UNL     1      -2.385   4.945  -0.754  0.00  0.00    +0.141 C 
ATOM     10  O   UNL     1      -1.449   5.525  -1.298  0.00  0.00    -0.297 OA
ATOM     11  C   UNL     1      -3.516   5.694  -0.134  0.00  0.00    +0.013 C 
ATOM     12  C   UNL     1      -4.844   5.310  -0.800  0.00  0.00    -0.013 C 
ATOM     13  C   UNL     1      -4.788   5.713  -2.291  0.00  0.00    -0.058 C 
ATOM     14  C   UNL     1      -6.093   5.988  -0.105  0.00  0.00    +0.007 C 
ATOM     15  C   UNL     1      -6.504   5.030   1.032  0.00  0.00    +0.061 C 
ATOM     16  C   UNL     1      -5.624   3.784   0.883  0.00  0.00    -0.020 C 
ATOM     17  C   UNL     1      -5.119   3.772  -0.585  0.00  0.00    -0.020 C 
ATOM     18  C   UNL     1      -6.281   3.243  -1.482  0.00  0.00    -0.059 C 
ATOM     19  C   UNL     1      -3.883   2.808  -0.834  0.00  0.00    -0.022 C 
ATOM     20  C   UNL     1      -4.041   1.493  -0.032  0.00  0.00    -0.048 C 
ATOM     21  C   UNL     1      -2.835   0.567  -0.094  0.00  0.00    -0.049 C 
ATOM     22  C   UNL     1      -1.633   1.244   0.581  0.00  0.00    -0.026 C 
ATOM     23  C   UNL     1      -0.356   0.333   0.689  0.00  0.00    +0.009 C 
ATOM     24  C   UNL     1      -0.696  -0.897   1.577  0.00  0.00    -0.056 C 
ATOM     25  C   UNL     1       0.140  -0.151  -0.685  0.00  0.00    +0.018 C 
ATOM     26  N   UNL     1       1.408  -0.825  -0.540  0.00  0.00    -0.332 N 
ATOM     27  H   UNL     1       2.771   0.599   2.032  0.00  0.00    +0.000 HD
ATOM     28  H   UNL     1       1.629  -1.569  -1.145  0.00  0.00    +0.000 HD
ENDROOT
BRANCH   1  30
ATOM     29  C   UNL     1       3.576  -2.631   0.496  0.00  0.00    -0.056 C 
ATOM     30  C   UNL     1       3.693  -1.112   0.413  0.00  0.00    +0.009 C 
ATOM     31  C   UNL     1       4.482  -0.675  -0.817  0.00  0.00    -0.056 C 
ENDBRANCH   1  30
BRANCH  14  32
ATOM     32  C   UNL     1      -6.108   7.530   0.182  0.00  0.00    +0.013 C 
ATOM     33  C   UNL     1      -5.185   7.984   1.336  0.00  0.00    -0.049 C 
BRANCH  32  34
ATOM     34  N   UNL     1      -7.488   8.059   0.464  0.00  0.00    -0.305 N 
ATOM     35  C   UNL     1      -7.490   9.530   0.575  0.00  0.00    -0.013 C 
ATOM     36  C   UNL     1      -8.476   7.694  -0.562  0.00  0.00    -0.013 C 
ATOM     37  H   UNL     1      -7.754   7.625   1.348  0.00  0.00    +0.000 HD
ENDBRANCH  32  34
ENDBRANCH  14  32
BRANCH  15  38
ATOM     38  O   UNL     1      -6.359   5.554   2.335  0.00  0.00    -0.391 OA
ATOM     39  H   UNL     1      -5.425   5.761   2.498  0.00  0.00    +0.000 HD
ENDBRANCH  15  38
TORSDOF 4
