@<TRIPOS>MOLECULE
*****
 35 40 0 0 0
SMALL
GASTEIGER

@<TRIPOS>ATOM
      1 C           1.7226   -1.0291    0.0000 C.3     1  UNL1        0.0128
      2 C           1.7220   -0.0170    0.0000 C.3     1  UNL1        0.1090
      3 C           2.5982    0.4896    0.0000 C.3     1  UNL1        0.0128
      4 C           0.8451    0.4886    0.0000 C.2     1  UNL1        0.3309
      5 N           0.8446    1.4648    0.0000 N.2     1  UNL1       -0.0707
      6 C          -0.0011    1.9524    0.0000 C.3     1  UNL1        0.2184
      7 C          -0.0014    2.9291    0.0000 C.3     1  UNL1        0.0534
      8 C          -0.8468    3.4172    0.0000 C.3     1  UNL1        0.0049
      9 C          -1.6919    2.9286    0.0000 C.3     1  UNL1        0.0070
     10 C          -1.6922    3.9053    0.0000 C.3     1  UNL1        0.0073
     11 C          -2.5380    3.4167    0.0000 C.3     1  UNL1        0.0515
     12 C          -2.5382    4.3928    0.0000 C.2     1  UNL1        0.1498
     13 O          -1.6691    4.8949    0.0000 O.2     1  UNL1       -0.2961
     14 C          -3.3842    4.8809    0.0000 C.3     1  UNL1        0.0646
     15 C          -4.2300    4.3923    0.0000 C.3     1  UNL1        0.0106
     16 C          -4.2303    5.3961    0.0000 C.3     1  UNL1        0.0006
     17 C          -5.0760    4.8804    0.0000 C.3     1  UNL1        0.0455
     18 C          -5.0762    5.8561    0.0000 C.3     1  UNL1        0.0600
     19 C          -4.1219    6.0592    0.0000 C.3     1  UNL1        0.0174
     20 N          -5.7293    6.5810    0.0000 N.3     1  UNL1       -0.2715
     21 C          -5.4281    7.5090    0.0000 C.3     1  UNL1        0.0896
     22 C          -6.6836    6.3779    0.0000 C.3     1  UNL1        0.0896
     23 C          -5.9205    4.3918    0.0000 C.3     1  UNL1        0.1532
     24 O          -6.7868    4.8913    0.0000 O.3     1  UNL1       -0.2231
     25 C          -5.9202    3.4157    0.0000 C.3     1  UNL1        0.0330
     26 C          -4.2297    3.4162    0.0000 C.3     1  UNL1        0.0033
     27 C          -4.2294    2.4162    0.0000 C.3     1  UNL1        0.0001
     28 C          -3.3837    2.9281    0.0000 C.3     1  UNL1        0.0066
     29 C          -3.3834    1.9514    0.0000 C.3     1  UNL1        0.0004
     30 C          -2.5374    1.4633    0.0000 C.3     1  UNL1        0.0003
     31 C          -1.6917    1.9519    0.0000 C.3     1  UNL1        0.0085
     32 C          -0.8463    1.4638    0.0000 C.3     1  UNL1        0.0923
     33 C          -1.7120    0.9633    0.0000 C.3     1  UNL1        0.0086
     34 C          -0.8457    0.4876    0.0000 C.3     1  UNL1        0.2547
     35 N           0.0000    0.0000    0.0000 N.pl3   1  UNL1       -0.0355
@<TRIPOS>BOND
     1     1     2    1
     2     2     3    1
     3     2     4    1
     4     4     5    2
     5     5     6    1
     6     6     7    1
     7     7     8    1
     8     8     9    1
     9     9    10    1
    10    10    11    1
    11     9    11    1
    12    11    12    1
    13    12    13    2
    14    12    14    1
    15    14    15    1
    16    15    16    1
    17    15    17    1
    18    17    18    1
    19    18    19    1
    20    18    20    1
    21    20    21    1
    22    20    22    1
    23    17    23    1
    24    23    24    1
    25    23    25    1
    26    25    26    1
    27    15    26    1
    28    26    27    1
    29    26    28    1
    30    11    28    1
    31    28    29    1
    32    29    30    1
    33    30    31    1
    34     9    31    1
    35    31    32    1
    36     6    32    1
    37    32    33    1
    38    32    34    1
    39    34    35    1
    40     4    35    1
