REMARK  Name = cpd263.pdb
REMARK  9 active torsions:
REMARK  status: ('A' for Active; 'I' for Inactive)
REMARK    1  A    between atoms: C_1  and  C_2
REMARK    2  A    between atoms: C_2  and  C_3
REMARK    3  A    between atoms: C_3  and  C_4
REMARK    4  A    between atoms: C_9  and  N_10
REMARK    5  A    between atoms: C_11  and  O_13
REMARK    6  A    between atoms: O_13  and  C_14
REMARK    7  A    between atoms: C_20  and  C_21
REMARK    8  A    between atoms: N_24  and  C_25
REMARK    9  A    between atoms: N_28  and  C_29
REMARK                            x       y       z     vdW  Elec       q    Type
REMARK                         _______ _______ _______ _____ _____    ______ ____
ROOT
ATOM      1  C   UNL A   1       3.565   0.829  -0.868  0.00  0.00    +0.134 A 
ATOM      2  C   UNL A   1       3.223  -0.137  -1.832  0.00  0.00    -0.017 A 
ATOM      3  C   UNL A   1       1.882  -0.398  -2.124  0.00  0.00    -0.037 A 
ATOM      4  C   UNL A   1       0.915   0.291  -1.415  0.00  0.00    +0.032 A 
ATOM      5  C   UNL A   1       1.284   1.268  -0.461  0.00  0.00    -0.017 A 
ATOM      6  C   UNL A   1       2.603   1.547  -0.160  0.00  0.00    -0.014 A 
ATOM      7  C   UNL A   1       0.000   1.878   0.000  0.00  0.00    +0.002 C 
ATOM      8  C   UNL A   1      -0.313   3.022  -1.007  0.00  0.00    -0.055 C 
ATOM      9  C   UNL A   1      -0.263   2.330   1.409  0.00  0.00    -0.054 C 
ATOM     10  C   UNL A   1      -1.784   2.251   1.419  0.00  0.00    -0.048 C 
ATOM     11  N   UNL A   1      -2.166   1.057   0.550  0.00  0.00    +0.433 N 
ATOM     12  C   UNL A   1      -3.137   1.404  -0.535  0.00  0.00    -0.060 C 
ATOM     13  O   UNL A   1      -2.812   0.150   1.401  0.00  0.00    -0.289 OA
ATOM     14  C   UNL A   1      -0.813   0.470   0.000  0.00  0.00    +0.039 C 
ATOM     15  N   UNL A   1      -0.524   0.183  -1.494  0.00  0.00    -0.341 N 
ATOM     16  C   UNL A   1      -0.999  -1.065  -2.094  0.00  0.00    -0.001 C 
ENDROOT
BRANCH   1  17
ATOM     17  O   UNL A   1       4.920   1.005  -0.575  0.00  0.00    -0.411 OA
BRANCH  17  19
ATOM     18  N   UNL A   1       6.926   1.871  -1.384  0.00  0.00    -0.251 N 
ATOM     19  C   UNL A   1       5.547   1.937  -1.391  0.00  0.00    +0.410 C 
ATOM     20  O   UNL A   1       4.976   2.725  -2.141  0.00  0.00    -0.226 OA
ATOM     21  H   UNL A   1       7.417   2.594  -1.838  0.00  0.00    +0.000 HD
BRANCH  18  27
ATOM     22  C   UNL A   1       7.648   0.557   0.596  0.00  0.00    -0.026 A 
ATOM     23  C   UNL A   1       8.393  -0.543   1.065  0.00  0.00    -0.057 A 
ATOM     24  C   UNL A   1       9.200  -1.289   0.206  0.00  0.00    -0.061 A 
ATOM     25  C   UNL A   1       9.290  -0.940  -1.136  0.00  0.00    -0.060 A 
ATOM     26  C   UNL A   1       8.545   0.133  -1.624  0.00  0.00    -0.040 A 
ATOM     27  C   UNL A   1       7.686   0.852  -0.779  0.00  0.00    +0.040 A 
BRANCH  22  28
ATOM     28  C   UNL A   1       6.944   1.423   1.621  0.00  0.00    -0.026 C 
BRANCH  28  30
ATOM     29  C   UNL A   1       8.764   3.196   1.857  0.00  0.00    -0.065 C 
ATOM     30  C   UNL A   1       7.905   2.158   2.568  0.00  0.00    -0.052 C 
ENDBRANCH  28  30
ENDBRANCH  22  28
ENDBRANCH  18  27
ENDBRANCH  17  19
ENDBRANCH   1  17
TORSDOF 5
