MODEL 1
REMARK VINA RESULT:    -8.913      0.000      0.000
REMARK INTER + INTRA:         -11.781
REMARK INTER:                 -11.518
REMARK INTRA:                  -0.263
REMARK UNBOUND:                -0.263
REMARK  Name = cpd263.pdb
REMARK  9 active torsions:
REMARK  status: ('A' for Active; 'I' for Inactive)
REMARK    1  A    between atoms: C_1  and  C_2
REMARK    2  A    between atoms: C_2  and  C_3
REMARK    3  A    between atoms: C_3  and  C_4
REMARK    4  A    between atoms: C_9  and  N_10
REMARK    5  A    between atoms: C_11  and  O_13
REMARK    6  A    between atoms: O_13  and  C_14
REMARK    7  A    between atoms: C_20  and  C_21
REMARK    8  A    between atoms: N_24  and  C_25
REMARK    9  A    between atoms: N_28  and  C_29
REMARK                            x       y       z     vdW  Elec       q    Type
REMARK                         _______ _______ _______ _____ _____    ______ ____
ROOT
ATOM      1  C   UNL A   1      35.605 -35.998 -28.991  0.00  0.00    +0.134 A 
ATOM      2  C   UNL A   1      34.757 -36.685 -28.102  0.00  0.00    -0.017 A 
ATOM      3  C   UNL A   1      33.436 -36.267 -27.923  0.00  0.00    -0.037 A 
ATOM      4  C   UNL A   1      33.008 -35.148 -28.613  0.00  0.00    +0.032 A 
ATOM      5  C   UNL A   1      33.875 -34.484 -29.512  0.00  0.00    -0.017 A 
ATOM      6  C   UNL A   1      35.182 -34.882 -29.710  0.00  0.00    -0.014 A 
ATOM      7  C   UNL A   1      33.043 -33.421 -30.154  0.00  0.00    +0.002 C 
ATOM      8  C   UNL A   1      32.349 -34.099 -31.370  0.00  0.00    -0.055 C 
ATOM      9  C   UNL A   1      33.556 -32.059 -30.532  0.00  0.00    -0.054 C 
ATOM     10  C   UNL A   1      32.244 -31.285 -30.525  0.00  0.00    -0.048 C 
ATOM     11  N   UNL A   1      31.393 -31.876 -29.405  0.00  0.00    +0.433 N 
ATOM     12  C   UNL A   1      30.036 -32.312 -29.863  0.00  0.00    -0.060 C 
ATOM     13  O   UNL A   1      31.199 -30.841 -28.480  0.00  0.00    -0.289 OA
ATOM     14  C   UNL A   1      32.241 -33.050 -28.789  0.00  0.00    +0.039 C 
ATOM     15  N   UNL A   1      31.720 -34.493 -28.579  0.00  0.00    -0.341 N 
ATOM     16  C   UNL A   1      30.920 -34.806 -27.394  0.00  0.00    -0.001 C 
ENDROOT
BRANCH   1  17
ATOM     17  O   UNL A   1      36.933 -36.424 -29.084  0.00  0.00    -0.411 OA
BRANCH  17  19
ATOM     18  N   UNL A   1      37.919 -37.373 -30.970  0.00  0.00    -0.251 N 
ATOM     19  C   UNL A   1      37.098 -37.554 -29.875  0.00  0.00    +0.410 C 
ATOM     20  O   UNL A   1      36.644 -38.669 -29.627  0.00  0.00    -0.226 OA
ATOM     21  H   UNL A   1      37.958 -38.101 -31.632  0.00  0.00    +0.000 HD
BRANCH  18  27
ATOM     22  C   UNL A   1      40.107 -36.209 -31.127  0.00  0.00    -0.026 A 
ATOM     23  C   UNL A   1      40.781 -35.023 -31.480  0.00  0.00    -0.057 A 
ATOM     24  C   UNL A   1      40.081 -33.875 -31.849  0.00  0.00    -0.061 A 
ATOM     25  C   UNL A   1      38.691 -33.885 -31.858  0.00  0.00    -0.060 A 
ATOM     26  C   UNL A   1      38.005 -35.054 -31.531  0.00  0.00    -0.040 A 
ATOM     27  C   UNL A   1      38.703 -36.230 -31.216  0.00  0.00    +0.040 A 
BRANCH  22  28
ATOM     28  C   UNL A   1      40.930 -37.350 -30.564  0.00  0.00    -0.026 C 
BRANCH  28  30
ATOM     29  C   UNL A   1      43.432 -37.230 -31.048  0.00  0.00    -0.065 C 
ATOM     30  C   UNL A   1      42.082 -37.787 -31.482  0.00  0.00    -0.052 C 
ENDBRANCH  28  30
ENDBRANCH  22  28
ENDBRANCH  18  27
ENDBRANCH  17  19
ENDBRANCH   1  17
TORSDOF 5
ENDMDL
MODEL 2
REMARK VINA RESULT:    -8.618      1.875      3.489
REMARK INTER + INTRA:         -11.401
REMARK INTER:                 -10.712
REMARK INTRA:                  -0.689
REMARK UNBOUND:                -0.263
REMARK  Name = cpd263.pdb
REMARK  9 active torsions:
REMARK  status: ('A' for Active; 'I' for Inactive)
REMARK    1  A    between atoms: C_1  and  C_2
REMARK    2  A    between atoms: C_2  and  C_3
REMARK    3  A    between atoms: C_3  and  C_4
REMARK    4  A    between atoms: C_9  and  N_10
REMARK    5  A    between atoms: C_11  and  O_13
REMARK    6  A    between atoms: O_13  and  C_14
REMARK    7  A    between atoms: C_20  and  C_21
REMARK    8  A    between atoms: N_24  and  C_25
REMARK    9  A    between atoms: N_28  and  C_29
REMARK                            x       y       z     vdW  Elec       q    Type
REMARK                         _______ _______ _______ _____ _____    ______ ____
ROOT
ATOM      1  C   UNL A   1      35.085 -34.214 -30.111  0.00  0.00    +0.134 A 
ATOM      2  C   UNL A   1      35.216 -32.861 -30.474  0.00  0.00    -0.017 A 
ATOM      3  C   UNL A   1      34.149 -31.977 -30.296  0.00  0.00    -0.037 A 
ATOM      4  C   UNL A   1      32.963 -32.480 -29.793  0.00  0.00    +0.032 A 
ATOM      5  C   UNL A   1      32.861 -33.841 -29.422  0.00  0.00    -0.017 A 
ATOM      6  C   UNL A   1      33.904 -34.732 -29.583  0.00  0.00    -0.014 A 
ATOM      7  C   UNL A   1      31.503 -33.986 -28.815  0.00  0.00    +0.002 C 
ATOM      8  C   UNL A   1      31.668 -33.620 -27.312  0.00  0.00    -0.055 C 
ATOM      9  C   UNL A   1      30.635 -35.203 -28.968  0.00  0.00    -0.054 C 
ATOM     10  C   UNL A   1      29.271 -34.572 -28.722  0.00  0.00    -0.048 C 
ATOM     11  N   UNL A   1      29.325 -33.169 -29.318  0.00  0.00    +0.433 N 
ATOM     12  C   UNL A   1      28.940 -32.099 -28.343  0.00  0.00    -0.060 C 
ATOM     13  O   UNL A   1      28.371 -33.147 -30.344  0.00  0.00    -0.289 OA
ATOM     14  C   UNL A   1      30.784 -32.992 -29.881  0.00  0.00    +0.039 C 
ATOM     15  N   UNL A   1      31.713 -31.797 -29.552  0.00  0.00    -0.341 N 
ATOM     16  C   UNL A   1      31.563 -30.542 -30.290  0.00  0.00    -0.001 C 
ENDROOT
BRANCH   1  17
ATOM     17  O   UNL A   1      36.165 -35.064 -30.367  0.00  0.00    -0.411 OA
BRANCH  17  19
ATOM     18  N   UNL A   1      36.947 -36.839 -31.657  0.00  0.00    -0.251 N 
ATOM     19  C   UNL A   1      35.992 -35.856 -31.494  0.00  0.00    +0.410 C 
ATOM     20  O   UNL A   1      35.044 -35.788 -32.273  0.00  0.00    -0.226 OA
ATOM     21  H   UNL A   1      36.946 -37.336 -32.507  0.00  0.00    +0.000 HD
BRANCH  18  27
ATOM     22  C   UNL A   1      39.276 -36.816 -30.795  0.00  0.00    -0.026 A 
ATOM     23  C   UNL A   1      40.137 -37.156 -29.733  0.00  0.00    -0.057 A 
ATOM     24  C   UNL A   1      39.681 -37.897 -28.642  0.00  0.00    -0.061 A 
ATOM     25  C   UNL A   1      38.360 -38.325 -28.600  0.00  0.00    -0.060 A 
ATOM     26  C   UNL A   1      37.487 -37.982 -29.632  0.00  0.00    -0.040 A 
ATOM     27  C   UNL A   1      37.923 -37.188 -30.704  0.00  0.00    +0.040 A 
BRANCH  22  28
ATOM     28  C   UNL A   1      39.889 -36.172 -32.023  0.00  0.00    -0.026 C 
BRANCH  28  30
ATOM     29  C   UNL A   1      38.969 -33.792 -31.966  0.00  0.00    -0.065 C 
ATOM     30  C   UNL A   1      40.202 -34.679 -31.841  0.00  0.00    -0.052 C 
ENDBRANCH  28  30
ENDBRANCH  22  28
ENDBRANCH  18  27
ENDBRANCH  17  19
ENDBRANCH   1  17
TORSDOF 5
ENDMDL
MODEL 3
REMARK VINA RESULT:    -8.189     16.993     19.316
REMARK INTER + INTRA:         -10.846
REMARK INTER:                  -9.448
REMARK INTRA:                  -1.398
REMARK UNBOUND:                -0.263
REMARK  Name = cpd263.pdb
REMARK  9 active torsions:
REMARK  status: ('A' for Active; 'I' for Inactive)
REMARK    1  A    between atoms: C_1  and  C_2
REMARK    2  A    between atoms: C_2  and  C_3
REMARK    3  A    between atoms: C_3  and  C_4
REMARK    4  A    between atoms: C_9  and  N_10
REMARK    5  A    between atoms: C_11  and  O_13
REMARK    6  A    between atoms: O_13  and  C_14
REMARK    7  A    between atoms: C_20  and  C_21
REMARK    8  A    between atoms: N_24  and  C_25
REMARK    9  A    between atoms: N_28  and  C_29
REMARK                            x       y       z     vdW  Elec       q    Type
REMARK                         _______ _______ _______ _____ _____    ______ ____
ROOT
ATOM      1  C   UNL A   1      46.043 -20.392 -37.376  0.00  0.00    +0.134 A 
ATOM      2  C   UNL A   1      46.469 -20.307 -36.038  0.00  0.00    -0.017 A 
ATOM      3  C   UNL A   1      45.537 -20.152 -35.010  0.00  0.00    -0.037 A 
ATOM      4  C   UNL A   1      44.201 -20.049 -35.351  0.00  0.00    +0.032 A 
ATOM      5  C   UNL A   1      43.796 -20.152 -36.703  0.00  0.00    -0.017 A 
ATOM      6  C   UNL A   1      44.699 -20.312 -37.736  0.00  0.00    -0.014 A 
ATOM      7  C   UNL A   1      42.302 -20.122 -36.673  0.00  0.00    +0.002 C 
ATOM      8  C   UNL A   1      41.851 -21.595 -36.456  0.00  0.00    -0.055 C 
ATOM      9  C   UNL A   1      41.449 -19.459 -37.718  0.00  0.00    -0.054 C 
ATOM     10  C   UNL A   1      40.192 -19.208 -36.895  0.00  0.00    -0.048 C 
ATOM     11  N   UNL A   1      40.655 -18.888 -35.477  0.00  0.00    +0.433 N 
ATOM     12  C   UNL A   1      40.016 -19.757 -34.439  0.00  0.00    -0.060 C 
ATOM     13  O   UNL A   1      40.239 -17.575 -35.221  0.00  0.00    -0.289 OA
ATOM     14  C   UNL A   1      42.224 -19.004 -35.495  0.00  0.00    +0.039 C 
ATOM     15  N   UNL A   1      43.054 -19.848 -34.496  0.00  0.00    -0.341 N 
ATOM     16  C   UNL A   1      43.378 -19.295 -33.180  0.00  0.00    -0.001 C 
ENDROOT
BRANCH   1  17
ATOM     17  O   UNL A   1      47.024 -20.487 -38.367  0.00  0.00    -0.411 OA
BRANCH  17  19
ATOM     18  N   UNL A   1      47.254 -19.547 -40.487  0.00  0.00    -0.251 N 
ATOM     19  C   UNL A   1      47.158 -19.332 -39.126  0.00  0.00    +0.410 C 
ATOM     20  O   UNL A   1      47.120 -18.184 -38.689  0.00  0.00    -0.226 OA
ATOM     21  H   UNL A   1      47.485 -18.775 -41.053  0.00  0.00    +0.000 HD
BRANCH  18  27
ATOM     22  C   UNL A   1      45.812 -21.190 -41.666  0.00  0.00    -0.026 A 
ATOM     23  C   UNL A   1      45.755 -22.415 -42.359  0.00  0.00    -0.057 A 
ATOM     24  C   UNL A   1      46.875 -23.240 -42.462  0.00  0.00    -0.061 A 
ATOM     25  C   UNL A   1      48.070 -22.863 -41.861  0.00  0.00    -0.060 A 
ATOM     26  C   UNL A   1      48.152 -21.645 -41.187  0.00  0.00    -0.040 A 
ATOM     27  C   UNL A   1      47.047 -20.782 -41.129  0.00  0.00    +0.040 A 
BRANCH  22  28
ATOM     28  C   UNL A   1      44.513 -20.442 -41.444  0.00  0.00    -0.026 C 
BRANCH  28  30
ATOM     29  C   UNL A   1      42.517 -21.672 -40.437  0.00  0.00    -0.065 C 
ATOM     30  C   UNL A   1      43.262 -21.293 -41.710  0.00  0.00    -0.052 C 
ENDBRANCH  28  30
ENDBRANCH  22  28
ENDBRANCH  18  27
ENDBRANCH  17  19
ENDBRANCH   1  17
TORSDOF 5
ENDMDL
MODEL 4
REMARK VINA RESULT:    -8.072      2.104      3.951
REMARK INTER + INTRA:         -10.695
REMARK INTER:                 -10.063
REMARK INTRA:                  -0.633
REMARK UNBOUND:                -0.263
REMARK  Name = cpd263.pdb
REMARK  9 active torsions:
REMARK  status: ('A' for Active; 'I' for Inactive)
REMARK    1  A    between atoms: C_1  and  C_2
REMARK    2  A    between atoms: C_2  and  C_3
REMARK    3  A    between atoms: C_3  and  C_4
REMARK    4  A    between atoms: C_9  and  N_10
REMARK    5  A    between atoms: C_11  and  O_13
REMARK    6  A    between atoms: O_13  and  C_14
REMARK    7  A    between atoms: C_20  and  C_21
REMARK    8  A    between atoms: N_24  and  C_25
REMARK    9  A    between atoms: N_28  and  C_29
REMARK                            x       y       z     vdW  Elec       q    Type
REMARK                         _______ _______ _______ _____ _____    ______ ____
ROOT
ATOM      1  C   UNL A   1      35.067 -34.233 -30.169  0.00  0.00    +0.134 A 
ATOM      2  C   UNL A   1      35.187 -32.876 -30.517  0.00  0.00    -0.017 A 
ATOM      3  C   UNL A   1      34.118 -31.999 -30.317  0.00  0.00    -0.037 A 
ATOM      4  C   UNL A   1      32.941 -32.514 -29.807  0.00  0.00    +0.032 A 
ATOM      5  C   UNL A   1      32.849 -33.879 -29.451  0.00  0.00    -0.017 A 
ATOM      6  C   UNL A   1      33.895 -34.763 -29.634  0.00  0.00    -0.014 A 
ATOM      7  C   UNL A   1      31.499 -34.039 -28.830  0.00  0.00    +0.002 C 
ATOM      8  C   UNL A   1      31.678 -33.689 -27.325  0.00  0.00    -0.055 C 
ATOM      9  C   UNL A   1      30.634 -35.258 -28.988  0.00  0.00    -0.054 C 
ATOM     10  C   UNL A   1      29.270 -34.636 -28.720  0.00  0.00    -0.048 C 
ATOM     11  N   UNL A   1      29.311 -33.226 -29.300  0.00  0.00    +0.433 N 
ATOM     12  C   UNL A   1      28.932 -32.170 -28.309  0.00  0.00    -0.060 C 
ATOM     13  O   UNL A   1      28.346 -33.197 -30.316  0.00  0.00    -0.289 OA
ATOM     14  C   UNL A   1      30.763 -33.035 -29.877  0.00  0.00    +0.039 C 
ATOM     15  N   UNL A   1      31.689 -31.840 -29.544  0.00  0.00    -0.341 N 
ATOM     16  C   UNL A   1      31.526 -30.577 -30.266  0.00  0.00    -0.001 C 
ENDROOT
BRANCH   1  17
ATOM     17  O   UNL A   1      36.148 -35.075 -30.446  0.00  0.00    -0.411 OA
BRANCH  17  19
ATOM     18  N   UNL A   1      36.796 -37.022 -31.550  0.00  0.00    -0.251 N 
ATOM     19  C   UNL A   1      35.901 -35.973 -31.475  0.00  0.00    +0.410 C 
ATOM     20  O   UNL A   1      34.937 -35.936 -32.237  0.00  0.00    -0.226 OA
ATOM     21  H   UNL A   1      36.744 -37.607 -32.340  0.00  0.00    +0.000 HD
BRANCH  18  27
ATOM     22  C   UNL A   1      37.520 -38.034 -29.400  0.00  0.00    -0.026 A 
ATOM     23  C   UNL A   1      38.605 -38.341 -28.556  0.00  0.00    -0.057 A 
ATOM     24  C   UNL A   1      39.896 -37.901 -28.847  0.00  0.00    -0.061 A 
ATOM     25  C   UNL A   1      40.124 -37.130 -29.981  0.00  0.00    -0.060 A 
ATOM     26  C   UNL A   1      39.067 -36.832 -30.840  0.00  0.00    -0.040 A 
ATOM     27  C   UNL A   1      37.777 -37.320 -30.585  0.00  0.00    +0.040 A 
BRANCH  22  28
ATOM     28  C   UNL A   1      36.127 -38.391 -28.921  0.00  0.00    -0.026 C 
BRANCH  28  30
ATOM     29  C   UNL A   1      35.952 -40.631 -30.130  0.00  0.00    -0.065 C 
ATOM     30  C   UNL A   1      35.891 -39.903 -28.793  0.00  0.00    -0.052 C 
ENDBRANCH  28  30
ENDBRANCH  22  28
ENDBRANCH  18  27
ENDBRANCH  17  19
ENDBRANCH   1  17
TORSDOF 5
ENDMDL
MODEL 5
REMARK VINA RESULT:    -8.041     15.500     17.837
REMARK INTER + INTRA:         -10.655
REMARK INTER:                  -9.825
REMARK INTRA:                  -0.830
REMARK UNBOUND:                -0.263
REMARK  Name = cpd263.pdb
REMARK  9 active torsions:
REMARK  status: ('A' for Active; 'I' for Inactive)
REMARK    1  A    between atoms: C_1  and  C_2
REMARK    2  A    between atoms: C_2  and  C_3
REMARK    3  A    between atoms: C_3  and  C_4
REMARK    4  A    between atoms: C_9  and  N_10
REMARK    5  A    between atoms: C_11  and  O_13
REMARK    6  A    between atoms: O_13  and  C_14
REMARK    7  A    between atoms: C_20  and  C_21
REMARK    8  A    between atoms: N_24  and  C_25
REMARK    9  A    between atoms: N_28  and  C_29
REMARK                            x       y       z     vdW  Elec       q    Type
REMARK                         _______ _______ _______ _____ _____    ______ ____
ROOT
ATOM      1  C   UNL A   1      43.844 -19.820 -36.197  0.00  0.00    +0.134 A 
ATOM      2  C   UNL A   1      43.292 -20.250 -37.417  0.00  0.00    -0.017 A 
ATOM      3  C   UNL A   1      42.049 -20.888 -37.443  0.00  0.00    -0.037 A 
ATOM      4  C   UNL A   1      41.408 -21.114 -36.239  0.00  0.00    +0.032 A 
ATOM      5  C   UNL A   1      41.977 -20.659 -35.026  0.00  0.00    -0.017 A 
ATOM      6  C   UNL A   1      43.201 -20.021 -34.977  0.00  0.00    -0.014 A 
ATOM      7  C   UNL A   1      40.962 -20.964 -33.972  0.00  0.00    +0.002 C 
ATOM      8  C   UNL A   1      39.999 -19.742 -33.944  0.00  0.00    -0.055 C 
ATOM      9  C   UNL A   1      41.300 -21.401 -32.575  0.00  0.00    -0.054 C 
ATOM     10  C   UNL A   1      40.006 -22.121 -32.217  0.00  0.00    -0.048 C 
ATOM     11  N   UNL A   1      39.508 -22.788 -33.495  0.00  0.00    +0.433 N 
ATOM     12  C   UNL A   1      38.098 -22.424 -33.839  0.00  0.00    -0.060 C 
ATOM     13  O   UNL A   1      39.524 -24.167 -33.244  0.00  0.00    -0.289 OA
ATOM     14  C   UNL A   1      40.537 -22.394 -34.619  0.00  0.00    +0.039 C 
ATOM     15  N   UNL A   1      40.150 -21.779 -35.986  0.00  0.00    -0.341 N 
ATOM     16  C   UNL A   1      39.707 -22.655 -37.072  0.00  0.00    -0.001 C 
ENDROOT
BRANCH   1  17
ATOM     17  O   UNL A   1      45.116 -19.241 -36.226  0.00  0.00    -0.411 OA
BRANCH  17  19
ATOM     18  N   UNL A   1      46.868 -20.459 -37.160  0.00  0.00    -0.251 N 
ATOM     19  C   UNL A   1      46.144 -20.152 -36.025  0.00  0.00    +0.410 C 
ATOM     20  O   UNL A   1      46.481 -20.617 -34.939  0.00  0.00    -0.226 OA
ATOM     21  H   UNL A   1      47.517 -21.198 -37.098  0.00  0.00    +0.000 HD
BRANCH  18  27
ATOM     22  C   UNL A   1      46.343 -20.432 -39.587  0.00  0.00    -0.026 A 
ATOM     23  C   UNL A   1      46.187 -19.643 -40.744  0.00  0.00    -0.057 A 
ATOM     24  C   UNL A   1      46.488 -18.281 -40.737  0.00  0.00    -0.061 A 
ATOM     25  C   UNL A   1      46.967 -17.684 -39.577  0.00  0.00    -0.060 A 
ATOM     26  C   UNL A   1      47.109 -18.443 -38.416  0.00  0.00    -0.040 A 
ATOM     27  C   UNL A   1      46.753 -19.800 -38.399  0.00  0.00    +0.040 A 
BRANCH  22  28
ATOM     28  C   UNL A   1      46.171 -21.931 -39.725  0.00  0.00    -0.026 C 
BRANCH  28  30
ATOM     29  C   UNL A   1      47.467 -23.428 -41.333  0.00  0.00    -0.065 C 
ATOM     30  C   UNL A   1      46.323 -22.437 -41.167  0.00  0.00    -0.052 C 
ENDBRANCH  28  30
ENDBRANCH  22  28
ENDBRANCH  18  27
ENDBRANCH  17  19
ENDBRANCH   1  17
TORSDOF 5
ENDMDL
MODEL 6
REMARK VINA RESULT:    -8.028      2.415      3.714
REMARK INTER + INTRA:         -10.638
REMARK INTER:                  -9.422
REMARK INTRA:                  -1.216
REMARK UNBOUND:                -0.263
REMARK  Name = cpd263.pdb
REMARK  9 active torsions:
REMARK  status: ('A' for Active; 'I' for Inactive)
REMARK    1  A    between atoms: C_1  and  C_2
REMARK    2  A    between atoms: C_2  and  C_3
REMARK    3  A    between atoms: C_3  and  C_4
REMARK    4  A    between atoms: C_9  and  N_10
REMARK    5  A    between atoms: C_11  and  O_13
REMARK    6  A    between atoms: O_13  and  C_14
REMARK    7  A    between atoms: C_20  and  C_21
REMARK    8  A    between atoms: N_24  and  C_25
REMARK    9  A    between atoms: N_28  and  C_29
REMARK                            x       y       z     vdW  Elec       q    Type
REMARK                         _______ _______ _______ _____ _____    ______ ____
ROOT
ATOM      1  C   UNL A   1      33.999 -36.955 -27.515  0.00  0.00    +0.134 A 
ATOM      2  C   UNL A   1      32.643 -37.312 -27.398  0.00  0.00    -0.017 A 
ATOM      3  C   UNL A   1      31.656 -36.547 -28.025  0.00  0.00    -0.037 A 
ATOM      4  C   UNL A   1      32.051 -35.421 -28.724  0.00  0.00    +0.032 A 
ATOM      5  C   UNL A   1      33.421 -35.091 -28.839  0.00  0.00    -0.017 A 
ATOM      6  C   UNL A   1      34.415 -35.836 -28.233  0.00  0.00    -0.014 A 
ATOM      7  C   UNL A   1      33.470 -33.908 -29.751  0.00  0.00    +0.002 C 
ATOM      8  C   UNL A   1      33.518 -34.486 -31.195  0.00  0.00    -0.055 C 
ATOM      9  C   UNL A   1      34.441 -32.770 -29.607  0.00  0.00    -0.054 C 
ATOM     10  C   UNL A   1      33.659 -31.680 -30.329  0.00  0.00    -0.048 C 
ATOM     11  N   UNL A   1      32.185 -31.923 -30.024  0.00  0.00    +0.433 N 
ATOM     12  C   UNL A   1      31.337 -32.026 -31.253  0.00  0.00    -0.060 C 
ATOM     13  O   UNL A   1      31.745 -30.795 -29.318  0.00  0.00    -0.289 OA
ATOM     14  C   UNL A   1      32.134 -33.219 -29.132  0.00  0.00    +0.039 C 
ATOM     15  N   UNL A   1      31.239 -34.449 -29.421  0.00  0.00    -0.341 N 
ATOM     16  C   UNL A   1      29.835 -34.433 -29.006  0.00  0.00    -0.001 C 
ENDROOT
BRANCH   1  17
ATOM     17  O   UNL A   1      34.936 -37.723 -26.818  0.00  0.00    -0.411 OA
BRANCH  17  19
ATOM     18  N   UNL A   1      35.582 -39.558 -28.100  0.00  0.00    -0.251 N 
ATOM     19  C   UNL A   1      34.818 -39.086 -27.050  0.00  0.00    +0.410 C 
ATOM     20  O   UNL A   1      34.170 -39.872 -26.363  0.00  0.00    -0.226 OA
ATOM     21  H   UNL A   1      35.430 -40.488 -28.389  0.00  0.00    +0.000 HD
BRANCH  18  27
ATOM     22  C   UNL A   1      36.372 -38.278 -30.076  0.00  0.00    -0.026 A 
ATOM     23  C   UNL A   1      37.397 -37.483 -30.624  0.00  0.00    -0.057 A 
ATOM     24  C   UNL A   1      38.597 -37.279 -29.942  0.00  0.00    -0.061 A 
ATOM     25  C   UNL A   1      38.801 -37.879 -28.706  0.00  0.00    -0.060 A 
ATOM     26  C   UNL A   1      37.791 -38.654 -28.137  0.00  0.00    -0.040 A 
ATOM     27  C   UNL A   1      36.559 -38.816 -28.789  0.00  0.00    +0.040 A 
BRANCH  22  28
ATOM     28  C   UNL A   1      35.180 -38.600 -30.954  0.00  0.00    -0.026 C 
BRANCH  28  30
ATOM     29  C   UNL A   1      34.613 -41.079 -31.164  0.00  0.00    -0.065 C 
ATOM     30  C   UNL A   1      35.348 -39.890 -31.770  0.00  0.00    -0.052 C 
ENDBRANCH  28  30
ENDBRANCH  22  28
ENDBRANCH  18  27
ENDBRANCH  17  19
ENDBRANCH   1  17
TORSDOF 5
ENDMDL
MODEL 7
REMARK VINA RESULT:    -7.808     15.958     19.270
REMARK INTER + INTRA:         -10.353
REMARK INTER:                  -9.619
REMARK INTRA:                  -0.734
REMARK UNBOUND:                -0.263
REMARK  Name = cpd263.pdb
REMARK  9 active torsions:
REMARK  status: ('A' for Active; 'I' for Inactive)
REMARK    1  A    between atoms: C_1  and  C_2
REMARK    2  A    between atoms: C_2  and  C_3
REMARK    3  A    between atoms: C_3  and  C_4
REMARK    4  A    between atoms: C_9  and  N_10
REMARK    5  A    between atoms: C_11  and  O_13
REMARK    6  A    between atoms: O_13  and  C_14
REMARK    7  A    between atoms: C_20  and  C_21
REMARK    8  A    between atoms: N_24  and  C_25
REMARK    9  A    between atoms: N_28  and  C_29
REMARK                            x       y       z     vdW  Elec       q    Type
REMARK                         _______ _______ _______ _____ _____    ______ ____
ROOT
ATOM      1  C   UNL A   1      42.399 -20.308 -37.383  0.00  0.00    +0.134 A 
ATOM      2  C   UNL A   1      43.229 -19.498 -36.585  0.00  0.00    -0.017 A 
ATOM      3  C   UNL A   1      44.456 -19.047 -37.076  0.00  0.00    -0.037 A 
ATOM      4  C   UNL A   1      44.839 -19.450 -38.342  0.00  0.00    +0.032 A 
ATOM      5  C   UNL A   1      43.982 -20.252 -39.131  0.00  0.00    -0.017 A 
ATOM      6  C   UNL A   1      42.761 -20.705 -38.669  0.00  0.00    -0.014 A 
ATOM      7  C   UNL A   1      44.661 -20.378 -40.455  0.00  0.00    +0.002 C 
ATOM      8  C   UNL A   1      44.214 -19.139 -41.283  0.00  0.00    -0.055 C 
ATOM      9  C   UNL A   1      44.633 -21.617 -41.306  0.00  0.00    -0.054 C 
ATOM     10  C   UNL A   1      45.903 -21.396 -42.116  0.00  0.00    -0.048 C 
ATOM     11  N   UNL A   1      46.902 -20.715 -41.186  0.00  0.00    +0.433 N 
ATOM     12  C   UNL A   1      47.456 -19.442 -41.746  0.00  0.00    -0.060 C 
ATOM     13  O   UNL A   1      47.977 -21.604 -41.054  0.00  0.00    -0.289 OA
ATOM     14  C   UNL A   1      46.151 -20.509 -39.818  0.00  0.00    +0.039 C 
ATOM     15  N   UNL A   1      46.060 -19.161 -39.061  0.00  0.00    -0.341 N 
ATOM     16  C   UNL A   1      47.171 -18.736 -38.208  0.00  0.00    -0.001 C 
ENDROOT
BRANCH   1  17
ATOM     17  O   UNL A   1      41.210 -20.778 -36.818  0.00  0.00    -0.411 OA
BRANCH  17  19
ATOM     18  N   UNL A   1      41.209 -22.252 -35.014  0.00  0.00    -0.251 N 
ATOM     19  C   UNL A   1      41.286 -22.094 -36.383  0.00  0.00    +0.410 C 
ATOM     20  O   UNL A   1      41.335 -23.083 -37.112  0.00  0.00    -0.226 OA
ATOM     21  H   UNL A   1      41.393 -23.149 -34.650  0.00  0.00    +0.000 HD
BRANCH  18  27
ATOM     22  C   UNL A   1      39.576 -20.926 -33.694  0.00  0.00    -0.026 A 
ATOM     23  C   UNL A   1      39.395 -19.939 -32.705  0.00  0.00    -0.057 A 
ATOM     24  C   UNL A   1      40.477 -19.235 -32.178  0.00  0.00    -0.061 A 
ATOM     25  C   UNL A   1      41.762 -19.493 -32.641  0.00  0.00    -0.060 A 
ATOM     26  C   UNL A   1      41.965 -20.480 -33.604  0.00  0.00    -0.040 A 
ATOM     27  C   UNL A   1      40.889 -21.233 -34.097  0.00  0.00    +0.040 A 
BRANCH  22  28
ATOM     28  C   UNL A   1      38.340 -21.513 -34.343  0.00  0.00    -0.026 C 
BRANCH  28  30
ATOM     29  C   UNL A   1      38.194 -24.032 -33.967  0.00  0.00    -0.065 C 
ATOM     30  C   UNL A   1      37.705 -22.655 -33.535  0.00  0.00    -0.052 C 
ENDBRANCH  28  30
ENDBRANCH  22  28
ENDBRANCH  18  27
ENDBRANCH  17  19
ENDBRANCH   1  17
TORSDOF 5
ENDMDL
MODEL 8
REMARK VINA RESULT:    -7.759      2.511      5.254
REMARK INTER + INTRA:         -10.290
REMARK INTER:                  -9.016
REMARK INTRA:                  -1.274
REMARK UNBOUND:                -0.263
REMARK  Name = cpd263.pdb
REMARK  9 active torsions:
REMARK  status: ('A' for Active; 'I' for Inactive)
REMARK    1  A    between atoms: C_1  and  C_2
REMARK    2  A    between atoms: C_2  and  C_3
REMARK    3  A    between atoms: C_3  and  C_4
REMARK    4  A    between atoms: C_9  and  N_10
REMARK    5  A    between atoms: C_11  and  O_13
REMARK    6  A    between atoms: O_13  and  C_14
REMARK    7  A    between atoms: C_20  and  C_21
REMARK    8  A    between atoms: N_24  and  C_25
REMARK    9  A    between atoms: N_28  and  C_29
REMARK                            x       y       z     vdW  Elec       q    Type
REMARK                         _______ _______ _______ _____ _____    ______ ____
ROOT
ATOM      1  C   UNL A   1      36.139 -36.391 -30.668  0.00  0.00    +0.134 A 
ATOM      2  C   UNL A   1      36.801 -35.169 -30.883  0.00  0.00    -0.017 A 
ATOM      3  C   UNL A   1      36.090 -33.967 -30.860  0.00  0.00    -0.037 A 
ATOM      4  C   UNL A   1      34.723 -34.023 -30.656  0.00  0.00    +0.032 A 
ATOM      5  C   UNL A   1      34.082 -35.263 -30.427  0.00  0.00    -0.017 A 
ATOM      6  C   UNL A   1      34.766 -36.463 -30.440  0.00  0.00    -0.014 A 
ATOM      7  C   UNL A   1      32.657 -34.925 -30.129  0.00  0.00    +0.002 C 
ATOM      8  C   UNL A   1      32.597 -34.645 -28.600  0.00  0.00    -0.055 C 
ATOM      9  C   UNL A   1      31.483 -35.759 -30.558  0.00  0.00    -0.054 C 
ATOM     10  C   UNL A   1      30.398 -34.690 -30.551  0.00  0.00    -0.048 C 
ATOM     11  N   UNL A   1      31.059 -33.393 -31.005  0.00  0.00    +0.433 N 
ATOM     12  C   UNL A   1      30.856 -32.260 -30.048  0.00  0.00    -0.060 C 
ATOM     13  O   UNL A   1      30.425 -33.034 -32.202  0.00  0.00    -0.289 OA
ATOM     14  C   UNL A   1      32.578 -33.737 -31.237  0.00  0.00    +0.039 C 
ATOM     15  N   UNL A   1      33.760 -32.946 -30.626  0.00  0.00    -0.341 N 
ATOM     16  C   UNL A   1      34.217 -31.716 -31.274  0.00  0.00    -0.001 C 
ENDROOT
BRANCH   1  17
ATOM     17  O   UNL A   1      36.892 -37.565 -30.762  0.00  0.00    -0.411 OA
BRANCH  17  19
ATOM     18  N   UNL A   1      37.716 -38.423 -28.759  0.00  0.00    -0.251 N 
ATOM     19  C   UNL A   1      37.945 -37.622 -29.859  0.00  0.00    +0.410 C 
ATOM     20  O   UNL A   1      39.043 -37.091 -30.012  0.00  0.00    -0.226 OA
ATOM     21  H   UNL A   1      38.375 -38.389 -28.028  0.00  0.00    +0.000 HD
BRANCH  18  27
ATOM     22  C   UNL A   1      35.435 -38.931 -27.918  0.00  0.00    -0.026 A 
ATOM     23  C   UNL A   1      34.372 -39.855 -27.899  0.00  0.00    -0.057 A 
ATOM     24  C   UNL A   1      34.497 -41.115 -28.484  0.00  0.00    -0.061 A 
ATOM     25  C   UNL A   1      35.694 -41.482 -29.086  0.00  0.00    -0.060 A 
ATOM     26  C   UNL A   1      36.753 -40.575 -29.133  0.00  0.00    -0.040 A 
ATOM     27  C   UNL A   1      36.615 -39.285 -28.598  0.00  0.00    +0.040 A 
BRANCH  22  28
ATOM     28  C   UNL A   1      35.284 -37.662 -27.105  0.00  0.00    -0.026 C 
BRANCH  28  30
ATOM     29  C   UNL A   1      33.415 -36.732 -25.637  0.00  0.00    -0.065 C 
ATOM     30  C   UNL A   1      34.439 -37.843 -25.835  0.00  0.00    -0.052 C 
ENDBRANCH  28  30
ENDBRANCH  22  28
ENDBRANCH  18  27
ENDBRANCH  17  19
ENDBRANCH   1  17
TORSDOF 5
ENDMDL
MODEL 9
REMARK VINA RESULT:    -7.759     15.828     18.872
REMARK INTER + INTRA:         -10.290
REMARK INTER:                  -9.227
REMARK INTRA:                  -1.063
REMARK UNBOUND:                -0.263
REMARK  Name = cpd263.pdb
REMARK  9 active torsions:
REMARK  status: ('A' for Active; 'I' for Inactive)
REMARK    1  A    between atoms: C_1  and  C_2
REMARK    2  A    between atoms: C_2  and  C_3
REMARK    3  A    between atoms: C_3  and  C_4
REMARK    4  A    between atoms: C_9  and  N_10
REMARK    5  A    between atoms: C_11  and  O_13
REMARK    6  A    between atoms: O_13  and  C_14
REMARK    7  A    between atoms: C_20  and  C_21
REMARK    8  A    between atoms: N_24  and  C_25
REMARK    9  A    between atoms: N_28  and  C_29
REMARK                            x       y       z     vdW  Elec       q    Type
REMARK                         _______ _______ _______ _____ _____    ______ ____
ROOT
ATOM      1  C   UNL A   1      42.889 -19.871 -36.216  0.00  0.00    +0.134 A 
ATOM      2  C   UNL A   1      41.780 -20.650 -36.592  0.00  0.00    -0.017 A 
ATOM      3  C   UNL A   1      41.716 -21.218 -37.867  0.00  0.00    -0.037 A 
ATOM      4  C   UNL A   1      42.751 -20.960 -38.747  0.00  0.00    +0.032 A 
ATOM      5  C   UNL A   1      43.863 -20.185 -38.341  0.00  0.00    -0.017 A 
ATOM      6  C   UNL A   1      43.950 -19.619 -37.084  0.00  0.00    -0.014 A 
ATOM      7  C   UNL A   1      44.816 -20.226 -39.491  0.00  0.00    +0.002 C 
ATOM      8  C   UNL A   1      45.673 -21.508 -39.288  0.00  0.00    -0.055 C 
ATOM      9  C   UNL A   1      45.685 -19.073 -39.909  0.00  0.00    -0.054 C 
ATOM     10  C   UNL A   1      45.912 -19.445 -41.369  0.00  0.00    -0.048 C 
ATOM     11  N   UNL A   1      44.622 -20.095 -41.860  0.00  0.00    +0.433 N 
ATOM     12  C   UNL A   1      44.837 -21.446 -42.468  0.00  0.00    -0.060 C 
ATOM     13  O   UNL A   1      44.133 -19.263 -42.877  0.00  0.00    -0.289 OA
ATOM     14  C   UNL A   1      43.652 -20.125 -40.621  0.00  0.00    +0.039 C 
ATOM     15  N   UNL A   1      42.910 -21.388 -40.119  0.00  0.00    -0.341 N 
ATOM     16  C   UNL A   1      41.662 -21.797 -40.766  0.00  0.00    -0.001 C 
ENDROOT
BRANCH   1  17
ATOM     17  O   UNL A   1      42.871 -19.279 -34.950  0.00  0.00    -0.411 OA
BRANCH  17  19
ATOM     18  N   UNL A   1      42.720 -20.340 -32.882  0.00  0.00    -0.251 N 
ATOM     19  C   UNL A   1      43.506 -20.037 -33.975  0.00  0.00    +0.410 C 
ATOM     20  O   UNL A   1      44.642 -20.496 -34.059  0.00  0.00    -0.226 OA
ATOM     21  H   UNL A   1      43.163 -20.757 -32.107  0.00  0.00    +0.000 HD
BRANCH  18  27
ATOM     22  C   UNL A   1      40.353 -21.071 -33.057  0.00  0.00    -0.026 A 
ATOM     23  C   UNL A   1      39.002 -20.732 -32.843  0.00  0.00    -0.057 A 
ATOM     24  C   UNL A   1      38.634 -19.450 -32.433  0.00  0.00    -0.061 A 
ATOM     25  C   UNL A   1      39.609 -18.478 -32.243  0.00  0.00    -0.060 A 
ATOM     26  C   UNL A   1      40.953 -18.800 -32.430  0.00  0.00    -0.040 A 
ATOM     27  C   UNL A   1      41.336 -20.102 -32.786  0.00  0.00    +0.040 A 
BRANCH  22  28
ATOM     28  C   UNL A   1      40.653 -22.421 -33.676  0.00  0.00    -0.026 C 
BRANCH  28  30
ATOM     29  C   UNL A   1      39.097 -23.044 -35.600  0.00  0.00    -0.065 C 
ATOM     30  C   UNL A   1      39.397 -23.190 -34.113  0.00  0.00    -0.052 C 
ENDBRANCH  28  30
ENDBRANCH  22  28
ENDBRANCH  18  27
ENDBRANCH  17  19
ENDBRANCH   1  17
TORSDOF 5
ENDMDL
MODEL 10
REMARK VINA RESULT:    -7.646      3.479      7.375
REMARK INTER + INTRA:         -10.144
REMARK INTER:                  -8.525
REMARK INTRA:                  -1.618
REMARK UNBOUND:                -0.263
REMARK  Name = cpd263.pdb
REMARK  9 active torsions:
REMARK  status: ('A' for Active; 'I' for Inactive)
REMARK    1  A    between atoms: C_1  and  C_2
REMARK    2  A    between atoms: C_2  and  C_3
REMARK    3  A    between atoms: C_3  and  C_4
REMARK    4  A    between atoms: C_9  and  N_10
REMARK    5  A    between atoms: C_11  and  O_13
REMARK    6  A    between atoms: O_13  and  C_14
REMARK    7  A    between atoms: C_20  and  C_21
REMARK    8  A    between atoms: N_24  and  C_25
REMARK    9  A    between atoms: N_28  and  C_29
REMARK                            x       y       z     vdW  Elec       q    Type
REMARK                         _______ _______ _______ _____ _____    ______ ____
ROOT
ATOM      1  C   UNL A   1      34.559 -33.817 -29.711  0.00  0.00    +0.134 A 
ATOM      2  C   UNL A   1      35.610 -34.501 -30.350  0.00  0.00    -0.017 A 
ATOM      3  C   UNL A   1      35.776 -35.875 -30.159  0.00  0.00    -0.037 A 
ATOM      4  C   UNL A   1      34.905 -36.523 -29.303  0.00  0.00    +0.032 A 
ATOM      5  C   UNL A   1      33.847 -35.817 -28.684  0.00  0.00    -0.017 A 
ATOM      6  C   UNL A   1      33.660 -34.460 -28.863  0.00  0.00    -0.014 A 
ATOM      7  C   UNL A   1      33.057 -36.850 -27.948  0.00  0.00    +0.002 C 
ATOM      8  C   UNL A   1      32.037 -37.418 -28.976  0.00  0.00    -0.055 C 
ATOM      9  C   UNL A   1      32.393 -36.618 -26.620  0.00  0.00    -0.054 C 
ATOM     10  C   UNL A   1      32.321 -38.054 -26.120  0.00  0.00    -0.048 C 
ATOM     11  N   UNL A   1      33.579 -38.756 -26.620  0.00  0.00    +0.433 N 
ATOM     12  C   UNL A   1      33.291 -40.009 -27.386  0.00  0.00    -0.060 C 
ATOM     13  O   UNL A   1      34.294 -39.133 -25.475  0.00  0.00    -0.289 OA
ATOM     14  C   UNL A   1      34.366 -37.686 -27.465  0.00  0.00    +0.039 C 
ATOM     15  N   UNL A   1      34.882 -37.913 -28.908  0.00  0.00    -0.341 N 
ATOM     16  C   UNL A   1      36.148 -38.617 -29.118  0.00  0.00    -0.001 C 
ENDROOT
BRANCH   1  17
ATOM     17  O   UNL A   1      34.478 -32.434 -29.892  0.00  0.00    -0.411 OA
BRANCH  17  19
ATOM     18  N   UNL A   1      33.090 -31.801 -31.653  0.00  0.00    -0.251 N 
ATOM     19  C   UNL A   1      34.377 -32.053 -31.223  0.00  0.00    +0.410 C 
ATOM     20  O   UNL A   1      35.324 -31.860 -31.982  0.00  0.00    -0.226 OA
ATOM     21  H   UNL A   1      32.953 -31.661 -32.618  0.00  0.00    +0.000 HD
BRANCH  18  27
ATOM     22  C   UNL A   1      30.892 -32.648 -30.865  0.00  0.00    -0.026 A 
ATOM     23  C   UNL A   1      29.854 -32.515 -29.922  0.00  0.00    -0.057 A 
ATOM     24  C   UNL A   1      29.843 -31.467 -29.002  0.00  0.00    -0.061 A 
ATOM     25  C   UNL A   1      30.860 -30.521 -29.018  0.00  0.00    -0.060 A 
ATOM     26  C   UNL A   1      31.907 -30.646 -29.931  0.00  0.00    -0.040 A 
ATOM     27  C   UNL A   1      31.957 -31.730 -30.821  0.00  0.00    +0.040 A 
BRANCH  22  28
ATOM     28  C   UNL A   1      30.737 -33.702 -31.943  0.00  0.00    -0.026 C 
BRANCH  28  30
ATOM     29  C   UNL A   1      32.587 -35.357 -32.537  0.00  0.00    -0.065 C 
ATOM     30  C   UNL A   1      31.427 -35.032 -31.604  0.00  0.00    -0.052 C 
ENDBRANCH  28  30
ENDBRANCH  22  28
ENDBRANCH  18  27
ENDBRANCH  17  19
ENDBRANCH   1  17
TORSDOF 5
ENDMDL
MODEL 11
REMARK VINA RESULT:    -7.640      5.332      7.719
REMARK INTER + INTRA:         -10.136
REMARK INTER:                  -9.333
REMARK INTRA:                  -0.803
REMARK UNBOUND:                -0.263
REMARK  Name = cpd263.pdb
REMARK  9 active torsions:
REMARK  status: ('A' for Active; 'I' for Inactive)
REMARK    1  A    between atoms: C_1  and  C_2
REMARK    2  A    between atoms: C_2  and  C_3
REMARK    3  A    between atoms: C_3  and  C_4
REMARK    4  A    between atoms: C_9  and  N_10
REMARK    5  A    between atoms: C_11  and  O_13
REMARK    6  A    between atoms: O_13  and  C_14
REMARK    7  A    between atoms: C_20  and  C_21
REMARK    8  A    between atoms: N_24  and  C_25
REMARK    9  A    between atoms: N_28  and  C_29
REMARK                            x       y       z     vdW  Elec       q    Type
REMARK                         _______ _______ _______ _____ _____    ______ ____
ROOT
ATOM      1  C   UNL A   1      35.193 -39.638 -31.492  0.00  0.00    +0.134 A 
ATOM      2  C   UNL A   1      34.368 -38.547 -31.824  0.00  0.00    -0.017 A 
ATOM      3  C   UNL A   1      33.343 -38.698 -32.762  0.00  0.00    -0.037 A 
ATOM      4  C   UNL A   1      33.195 -39.931 -33.371  0.00  0.00    +0.032 A 
ATOM      5  C   UNL A   1      34.027 -41.016 -33.009  0.00  0.00    -0.017 A 
ATOM      6  C   UNL A   1      35.042 -40.892 -32.081  0.00  0.00    -0.014 A 
ATOM      7  C   UNL A   1      33.500 -42.191 -33.768  0.00  0.00    +0.002 C 
ATOM      8  C   UNL A   1      32.374 -42.798 -32.882  0.00  0.00    -0.055 C 
ATOM      9  C   UNL A   1      34.361 -43.279 -34.345  0.00  0.00    -0.054 C 
ATOM     10  C   UNL A   1      33.433 -43.778 -35.444  0.00  0.00    -0.048 C 
ATOM     11  N   UNL A   1      32.687 -42.558 -35.975  0.00  0.00    +0.433 N 
ATOM     12  C   UNL A   1      31.200 -42.721 -35.953  0.00  0.00    -0.060 C 
ATOM     13  O   UNL A   1      33.064 -42.429 -37.319  0.00  0.00    -0.289 OA
ATOM     14  C   UNL A   1      33.185 -41.337 -35.115  0.00  0.00    +0.039 C 
ATOM     15  N   UNL A   1      32.253 -40.337 -34.389  0.00  0.00    -0.341 N 
ATOM     16  C   UNL A   1      31.664 -39.226 -35.138  0.00  0.00    -0.001 C 
ENDROOT
BRANCH   1  17
ATOM     17  O   UNL A   1      36.238 -39.412 -30.592  0.00  0.00    -0.411 OA
BRANCH  17  19
ATOM     18  N   UNL A   1      36.527 -37.712 -29.025  0.00  0.00    -0.251 N 
ATOM     19  C   UNL A   1      35.826 -38.843 -29.395  0.00  0.00    +0.410 C 
ATOM     20  O   UNL A   1      34.872 -39.220 -28.718  0.00  0.00    -0.226 OA
ATOM     21  H   UNL A   1      36.364 -37.352 -28.123  0.00  0.00    +0.000 HD
BRANCH  18  27
ATOM     22  C   UNL A   1      37.121 -35.961 -30.684  0.00  0.00    -0.026 A 
ATOM     23  C   UNL A   1      38.158 -35.310 -31.381  0.00  0.00    -0.057 A 
ATOM     24  C   UNL A   1      39.478 -35.749 -31.288  0.00  0.00    -0.061 A 
ATOM     25  C   UNL A   1      39.786 -36.858 -30.509  0.00  0.00    -0.060 A 
ATOM     26  C   UNL A   1      38.777 -37.504 -29.795  0.00  0.00    -0.040 A 
ATOM     27  C   UNL A   1      37.456 -37.033 -29.836  0.00  0.00    +0.040 A 
BRANCH  22  28
ATOM     28  C   UNL A   1      35.696 -35.539 -30.979  0.00  0.00    -0.026 C 
BRANCH  28  30
ATOM     29  C   UNL A   1      35.178 -33.072 -30.586  0.00  0.00    -0.065 C 
ATOM     30  C   UNL A   1      35.154 -34.481 -30.007  0.00  0.00    -0.052 C 
ENDBRANCH  28  30
ENDBRANCH  22  28
ENDBRANCH  18  27
ENDBRANCH  17  19
ENDBRANCH   1  17
TORSDOF 5
ENDMDL
MODEL 12
REMARK VINA RESULT:    -7.556     16.040     19.279
REMARK INTER + INTRA:         -10.028
REMARK INTER:                  -8.891
REMARK INTRA:                  -1.137
REMARK UNBOUND:                -0.263
REMARK  Name = cpd263.pdb
REMARK  9 active torsions:
REMARK  status: ('A' for Active; 'I' for Inactive)
REMARK    1  A    between atoms: C_1  and  C_2
REMARK    2  A    between atoms: C_2  and  C_3
REMARK    3  A    between atoms: C_3  and  C_4
REMARK    4  A    between atoms: C_9  and  N_10
REMARK    5  A    between atoms: C_11  and  O_13
REMARK    6  A    between atoms: O_13  and  C_14
REMARK    7  A    between atoms: C_20  and  C_21
REMARK    8  A    between atoms: N_24  and  C_25
REMARK    9  A    between atoms: N_28  and  C_29
REMARK                            x       y       z     vdW  Elec       q    Type
REMARK                         _______ _______ _______ _____ _____    ______ ____
ROOT
ATOM      1  C   UNL A   1      42.129 -20.442 -37.178  0.00  0.00    +0.134 A 
ATOM      2  C   UNL A   1      43.174 -20.017 -36.338  0.00  0.00    -0.017 A 
ATOM      3  C   UNL A   1      44.429 -19.715 -36.871  0.00  0.00    -0.037 A 
ATOM      4  C   UNL A   1      44.616 -19.882 -38.231  0.00  0.00    +0.032 A 
ATOM      5  C   UNL A   1      43.546 -20.297 -39.058  0.00  0.00    -0.017 A 
ATOM      6  C   UNL A   1      42.295 -20.595 -38.553  0.00  0.00    -0.014 A 
ATOM      7  C   UNL A   1      44.078 -20.245 -40.453  0.00  0.00    +0.002 C 
ATOM      8  C   UNL A   1      43.850 -18.785 -40.941  0.00  0.00    -0.055 C 
ATOM      9  C   UNL A   1      43.714 -21.224 -41.533  0.00  0.00    -0.054 C 
ATOM     10  C   UNL A   1      44.936 -21.076 -42.430  0.00  0.00    -0.048 C 
ATOM     11  N   UNL A   1      46.128 -20.837 -41.509  0.00  0.00    +0.433 N 
ATOM     12  C   UNL A   1      46.902 -19.603 -41.855  0.00  0.00    -0.060 C 
ATOM     13  O   UNL A   1      46.989 -21.926 -41.700  0.00  0.00    -0.289 OA
ATOM     14  C   UNL A   1      45.547 -20.809 -40.046  0.00  0.00    +0.039 C 
ATOM     15  N   UNL A   1      45.811 -19.681 -39.019  0.00  0.00    -0.341 N 
ATOM     16  C   UNL A   1      47.051 -19.689 -38.240  0.00  0.00    -0.001 C 
ENDROOT
BRANCH   1  17
ATOM     17  O   UNL A   1      40.913 -20.787 -36.582  0.00  0.00    -0.411 OA
BRANCH  17  19
ATOM     18  N   UNL A   1      40.388 -22.113 -34.739  0.00  0.00    -0.251 N 
ATOM     19  C   UNL A   1      40.914 -22.055 -36.015  0.00  0.00    +0.410 C 
ATOM     20  O   UNL A   1      41.263 -23.087 -36.581  0.00  0.00    -0.226 OA
ATOM     21  H   UNL A   1      40.491 -22.959 -34.245  0.00  0.00    +0.000 HD
BRANCH  18  27
ATOM     22  C   UNL A   1      40.369 -20.060 -33.342  0.00  0.00    -0.026 A 
ATOM     23  C   UNL A   1      39.593 -19.012 -32.810  0.00  0.00    -0.057 A 
ATOM     24  C   UNL A   1      38.206 -18.990 -32.960  0.00  0.00    -0.061 A 
ATOM     25  C   UNL A   1      37.567 -20.024 -33.633  0.00  0.00    -0.060 A 
ATOM     26  C   UNL A   1      38.319 -21.060 -34.185  0.00  0.00    -0.040 A 
ATOM     27  C   UNL A   1      39.719 -21.060 -34.089  0.00  0.00    +0.040 A 
BRANCH  22  28
ATOM     28  C   UNL A   1      41.839 -20.106 -32.979  0.00  0.00    -0.026 C 
BRANCH  28  30
ATOM     29  C   UNL A   1      43.971 -18.704 -32.991  0.00  0.00    -0.065 C 
ATOM     30  C   UNL A   1      42.464 -18.718 -32.770  0.00  0.00    -0.052 C 
ENDBRANCH  28  30
ENDBRANCH  22  28
ENDBRANCH  18  27
ENDBRANCH  17  19
ENDBRANCH   1  17
TORSDOF 5
ENDMDL
MODEL 13
REMARK VINA RESULT:    -7.532     15.919     19.255
REMARK INTER + INTRA:          -9.997
REMARK INTER:                  -8.891
REMARK INTRA:                  -1.106
REMARK UNBOUND:                -0.263
REMARK  Name = cpd263.pdb
REMARK  9 active torsions:
REMARK  status: ('A' for Active; 'I' for Inactive)
REMARK    1  A    between atoms: C_1  and  C_2
REMARK    2  A    between atoms: C_2  and  C_3
REMARK    3  A    between atoms: C_3  and  C_4
REMARK    4  A    between atoms: C_9  and  N_10
REMARK    5  A    between atoms: C_11  and  O_13
REMARK    6  A    between atoms: O_13  and  C_14
REMARK    7  A    between atoms: C_20  and  C_21
REMARK    8  A    between atoms: N_24  and  C_25
REMARK    9  A    between atoms: N_28  and  C_29
REMARK                            x       y       z     vdW  Elec       q    Type
REMARK                         _______ _______ _______ _____ _____    ______ ____
ROOT
ATOM      1  C   UNL A   1      42.090 -21.120 -37.884  0.00  0.00    +0.134 A 
ATOM      2  C   UNL A   1      43.026 -20.727 -36.910  0.00  0.00    -0.017 A 
ATOM      3  C   UNL A   1      44.326 -20.377 -37.281  0.00  0.00    -0.037 A 
ATOM      4  C   UNL A   1      44.668 -20.465 -38.618  0.00  0.00    +0.032 A 
ATOM      5  C   UNL A   1      43.705 -20.850 -39.581  0.00  0.00    -0.017 A 
ATOM      6  C   UNL A   1      42.412 -21.194 -39.238  0.00  0.00    -0.014 A 
ATOM      7  C   UNL A   1      44.389 -20.712 -40.903  0.00  0.00    +0.002 C 
ATOM      8  C   UNL A   1      44.186 -19.231 -41.335  0.00  0.00    -0.055 C 
ATOM      9  C   UNL A   1      44.168 -21.636 -42.068  0.00  0.00    -0.054 C 
ATOM     10  C   UNL A   1      45.479 -21.419 -42.812  0.00  0.00    -0.048 C 
ATOM     11  N   UNL A   1      46.556 -21.214 -41.751  0.00  0.00    +0.433 N 
ATOM     12  C   UNL A   1      47.337 -19.951 -41.941  0.00  0.00    -0.060 C 
ATOM     13  O   UNL A   1      47.456 -22.277 -41.902  0.00  0.00    -0.289 OA
ATOM     14  C   UNL A   1      45.815 -21.276 -40.364  0.00  0.00    +0.039 C 
ATOM     15  N   UNL A   1      45.939 -20.202 -39.255  0.00  0.00    -0.341 N 
ATOM     16  C   UNL A   1      47.083 -20.236 -38.342  0.00  0.00    -0.001 C 
ENDROOT
BRANCH   1  17
ATOM     17  O   UNL A   1      40.823 -21.516 -37.447  0.00  0.00    -0.411 OA
BRANCH  17  19
ATOM     18  N   UNL A   1      39.518 -20.346 -35.913  0.00  0.00    -0.251 N 
ATOM     19  C   UNL A   1      39.960 -20.454 -37.217  0.00  0.00    +0.410 C 
ATOM     20  O   UNL A   1      39.643 -19.601 -38.043  0.00  0.00    -0.226 OA
ATOM     21  H   UNL A   1      38.802 -19.694 -35.730  0.00  0.00    +0.000 HD
BRANCH  18  27
ATOM     22  C   UNL A   1      40.909 -20.587 -33.870  0.00  0.00    -0.026 A 
ATOM     23  C   UNL A   1      41.261 -21.408 -32.781  0.00  0.00    -0.057 A 
ATOM     24  C   UNL A   1      40.782 -22.714 -32.676  0.00  0.00    -0.061 A 
ATOM     25  C   UNL A   1      39.955 -23.229 -33.667  0.00  0.00    -0.060 A 
ATOM     26  C   UNL A   1      39.579 -22.425 -34.743  0.00  0.00    -0.040 A 
ATOM     27  C   UNL A   1      40.009 -21.092 -34.826  0.00  0.00    +0.040 A 
BRANCH  22  28
ATOM     28  C   UNL A   1      41.614 -19.252 -34.005  0.00  0.00    -0.026 C 
BRANCH  28  30
ATOM     29  C   UNL A   1      44.091 -18.955 -33.468  0.00  0.00    -0.065 C 
ATOM     30  C   UNL A   1      42.671 -19.002 -32.918  0.00  0.00    -0.052 C 
ENDBRANCH  28  30
ENDBRANCH  22  28
ENDBRANCH  18  27
ENDBRANCH  17  19
ENDBRANCH   1  17
TORSDOF 5
ENDMDL
MODEL 14
REMARK VINA RESULT:    -7.489     16.211     18.499
REMARK INTER + INTRA:          -9.942
REMARK INTER:                  -8.986
REMARK INTRA:                  -0.956
REMARK UNBOUND:                -0.263
REMARK  Name = cpd263.pdb
REMARK  9 active torsions:
REMARK  status: ('A' for Active; 'I' for Inactive)
REMARK    1  A    between atoms: C_1  and  C_2
REMARK    2  A    between atoms: C_2  and  C_3
REMARK    3  A    between atoms: C_3  and  C_4
REMARK    4  A    between atoms: C_9  and  N_10
REMARK    5  A    between atoms: C_11  and  O_13
REMARK    6  A    between atoms: O_13  and  C_14
REMARK    7  A    between atoms: C_20  and  C_21
REMARK    8  A    between atoms: N_24  and  C_25
REMARK    9  A    between atoms: N_28  and  C_29
REMARK                            x       y       z     vdW  Elec       q    Type
REMARK                         _______ _______ _______ _____ _____    ______ ____
ROOT
ATOM      1  C   UNL A   1      43.476 -20.207 -37.312  0.00  0.00    +0.134 A 
ATOM      2  C   UNL A   1      42.808 -19.099 -37.865  0.00  0.00    -0.017 A 
ATOM      3  C   UNL A   1      41.715 -18.532 -37.205  0.00  0.00    -0.037 A 
ATOM      4  C   UNL A   1      41.296 -19.114 -36.022  0.00  0.00    +0.032 A 
ATOM      5  C   UNL A   1      41.993 -20.218 -35.479  0.00  0.00    -0.017 A 
ATOM      6  C   UNL A   1      43.079 -20.791 -36.111  0.00  0.00    -0.014 A 
ATOM      7  C   UNL A   1      41.342 -20.488 -34.161  0.00  0.00    +0.002 C 
ATOM      8  C   UNL A   1      42.061 -19.567 -33.134  0.00  0.00    -0.055 C 
ATOM      9  C   UNL A   1      41.140 -21.862 -33.584  0.00  0.00    -0.054 C 
ATOM     10  C   UNL A   1      39.967 -21.575 -32.656  0.00  0.00    -0.048 C 
ATOM     11  N   UNL A   1      39.103 -20.528 -33.352  0.00  0.00    +0.433 N 
ATOM     12  C   UNL A   1      38.842 -19.321 -32.506  0.00  0.00    -0.060 C 
ATOM     13  O   UNL A   1      37.864 -21.141 -33.583  0.00  0.00    -0.289 OA
ATOM     14  C   UNL A   1      39.839 -20.186 -34.701  0.00  0.00    +0.039 C 
ATOM     15  N   UNL A   1      40.184 -18.752 -35.173  0.00  0.00    -0.341 N 
ATOM     16  C   UNL A   1      39.160 -17.945 -35.838  0.00  0.00    -0.001 C 
ENDROOT
BRANCH   1  17
ATOM     17  O   UNL A   1      44.524 -20.768 -38.046  0.00  0.00    -0.411 OA
BRANCH  17  19
ATOM     18  N   UNL A   1      46.326 -19.724 -39.091  0.00  0.00    -0.251 N 
ATOM     19  C   UNL A   1      45.727 -20.090 -37.902  0.00  0.00    +0.410 C 
ATOM     20  O   UNL A   1      46.226 -19.744 -36.834  0.00  0.00    -0.226 OA
ATOM     21  H   UNL A   1      47.241 -19.363 -39.046  0.00  0.00    +0.000 HD
BRANCH  18  27
ATOM     22  C   UNL A   1      45.816 -20.968 -41.179  0.00  0.00    -0.026 A 
ATOM     23  C   UNL A   1      45.106 -20.976 -42.396  0.00  0.00    -0.057 A 
ATOM     24  C   UNL A   1      44.386 -19.859 -42.819  0.00  0.00    -0.061 A 
ATOM     25  C   UNL A   1      44.373 -18.708 -42.042  0.00  0.00    -0.060 A 
ATOM     26  C   UNL A   1      45.053 -18.687 -40.824  0.00  0.00    -0.040 A 
ATOM     27  C   UNL A   1      45.732 -19.825 -40.363  0.00  0.00    +0.040 A 
BRANCH  22  28
ATOM     28  C   UNL A   1      46.719 -22.148 -40.879  0.00  0.00    -0.026 C 
BRANCH  28  30
ATOM     29  C   UNL A   1      47.888 -23.878 -42.346  0.00  0.00    -0.065 C 
ATOM     30  C   UNL A   1      47.772 -22.407 -41.967  0.00  0.00    -0.052 C 
ENDBRANCH  28  30
ENDBRANCH  22  28
ENDBRANCH  18  27
ENDBRANCH  17  19
ENDBRANCH   1  17
TORSDOF 5
ENDMDL
MODEL 15
REMARK VINA RESULT:    -7.305      1.985      3.191
REMARK INTER + INTRA:          -9.704
REMARK INTER:                  -9.184
REMARK INTRA:                  -0.520
REMARK UNBOUND:                -0.263
REMARK  Name = cpd263.pdb
REMARK  9 active torsions:
REMARK  status: ('A' for Active; 'I' for Inactive)
REMARK    1  A    between atoms: C_1  and  C_2
REMARK    2  A    between atoms: C_2  and  C_3
REMARK    3  A    between atoms: C_3  and  C_4
REMARK    4  A    between atoms: C_9  and  N_10
REMARK    5  A    between atoms: C_11  and  O_13
REMARK    6  A    between atoms: O_13  and  C_14
REMARK    7  A    between atoms: C_20  and  C_21
REMARK    8  A    between atoms: N_24  and  C_25
REMARK    9  A    between atoms: N_28  and  C_29
REMARK                            x       y       z     vdW  Elec       q    Type
REMARK                         _______ _______ _______ _____ _____    ______ ____
ROOT
ATOM      1  C   UNL A   1      33.078 -35.392 -30.057  0.00  0.00    +0.134 A 
ATOM      2  C   UNL A   1      32.136 -36.093 -29.282  0.00  0.00    -0.017 A 
ATOM      3  C   UNL A   1      30.890 -35.526 -29.002  0.00  0.00    -0.037 A 
ATOM      4  C   UNL A   1      30.634 -34.252 -29.476  0.00  0.00    +0.032 A 
ATOM      5  C   UNL A   1      31.591 -33.573 -30.265  0.00  0.00    -0.017 A 
ATOM      6  C   UNL A   1      32.827 -34.117 -30.559  0.00  0.00    -0.014 A 
ATOM      7  C   UNL A   1      30.927 -32.304 -30.691  0.00  0.00    +0.002 C 
ATOM      8  C   UNL A   1      30.144 -32.650 -31.991  0.00  0.00    -0.055 C 
ATOM      9  C   UNL A   1      31.636 -30.987 -30.838  0.00  0.00    -0.054 C 
ATOM     10  C   UNL A   1      30.453 -30.044 -30.665  0.00  0.00    -0.048 C 
ATOM     11  N   UNL A   1      29.521 -30.692 -29.646  0.00  0.00    +0.433 N 
ATOM     12  C   UNL A   1      28.116 -30.839 -30.141  0.00  0.00    -0.060 C 
ATOM     13  O   UNL A   1      29.479 -29.820 -28.550  0.00  0.00    -0.289 OA
ATOM     14  C   UNL A   1      30.185 -32.067 -29.264  0.00  0.00    +0.039 C 
ATOM     15  N   UNL A   1      29.456 -33.433 -29.297  0.00  0.00    -0.341 N 
ATOM     16  C   UNL A   1      28.616 -33.830 -28.166  0.00  0.00    -0.001 C 
ENDROOT
BRANCH   1  17
ATOM     17  O   UNL A   1      34.328 -35.984 -30.254  0.00  0.00    -0.411 OA
BRANCH  17  19
ATOM     18  N   UNL A   1      35.615 -37.350 -31.634  0.00  0.00    -0.251 N 
ATOM     19  C   UNL A   1      34.451 -36.625 -31.479  0.00  0.00    +0.410 C 
ATOM     20  O   UNL A   1      33.593 -36.650 -32.359  0.00  0.00    -0.226 OA
ATOM     21  H   UNL A   1      35.810 -37.710 -32.530  0.00  0.00    +0.000 HD
BRANCH  18  27
ATOM     22  C   UNL A   1      37.804 -36.993 -30.516  0.00  0.00    -0.026 A 
ATOM     23  C   UNL A   1      38.611 -37.284 -29.398  0.00  0.00    -0.057 A 
ATOM     24  C   UNL A   1      38.209 -38.213 -28.438  0.00  0.00    -0.061 A 
ATOM     25  C   UNL A   1      37.000 -38.881 -28.586  0.00  0.00    -0.060 A 
ATOM     26  C   UNL A   1      36.177 -38.592 -29.674  0.00  0.00    -0.040 A 
ATOM     27  C   UNL A   1      36.547 -37.617 -30.612  0.00  0.00    +0.040 A 
BRANCH  22  28
ATOM     28  C   UNL A   1      38.390 -36.113 -31.601  0.00  0.00    -0.026 C 
BRANCH  28  30
ATOM     29  C   UNL A   1      40.830 -36.154 -32.347  0.00  0.00    -0.065 C 
ATOM     30  C   UNL A   1      39.829 -35.657 -31.312  0.00  0.00    -0.052 C 
ENDBRANCH  28  30
ENDBRANCH  22  28
ENDBRANCH  18  27
ENDBRANCH  17  19
ENDBRANCH   1  17
TORSDOF 5
ENDMDL
MODEL 16
REMARK VINA RESULT:    -7.302      2.150      3.385
REMARK INTER + INTRA:          -9.700
REMARK INTER:                 -10.009
REMARK INTRA:                   0.308
REMARK UNBOUND:                -0.263
REMARK  Name = cpd263.pdb
REMARK  9 active torsions:
REMARK  status: ('A' for Active; 'I' for Inactive)
REMARK    1  A    between atoms: C_1  and  C_2
REMARK    2  A    between atoms: C_2  and  C_3
REMARK    3  A    between atoms: C_3  and  C_4
REMARK    4  A    between atoms: C_9  and  N_10
REMARK    5  A    between atoms: C_11  and  O_13
REMARK    6  A    between atoms: O_13  and  C_14
REMARK    7  A    between atoms: C_20  and  C_21
REMARK    8  A    between atoms: N_24  and  C_25
REMARK    9  A    between atoms: N_28  and  C_29
REMARK                            x       y       z     vdW  Elec       q    Type
REMARK                         _______ _______ _______ _____ _____    ______ ____
ROOT
ATOM      1  C   UNL A   1      33.883 -33.376 -29.730  0.00  0.00    +0.134 A 
ATOM      2  C   UNL A   1      33.352 -34.455 -28.999  0.00  0.00    -0.017 A 
ATOM      3  C   UNL A   1      31.976 -34.547 -28.776  0.00  0.00    -0.037 A 
ATOM      4  C   UNL A   1      31.169 -33.534 -29.261  0.00  0.00    +0.032 A 
ATOM      5  C   UNL A   1      31.724 -32.467 -30.005  0.00  0.00    -0.017 A 
ATOM      6  C   UNL A   1      33.081 -32.359 -30.243  0.00  0.00    -0.014 A 
ATOM      7  C   UNL A   1      30.558 -31.651 -30.461  0.00  0.00    +0.002 C 
ATOM      8  C   UNL A   1      30.083 -32.296 -31.795  0.00  0.00    -0.055 C 
ATOM      9  C   UNL A   1      30.568 -30.153 -30.575  0.00  0.00    -0.054 C 
ATOM     10  C   UNL A   1      29.074 -29.881 -30.456  0.00  0.00    -0.048 C 
ATOM     11  N   UNL A   1      28.518 -30.914 -29.480  0.00  0.00    +0.433 N 
ATOM     12  C   UNL A   1      27.369 -31.694 -30.039  0.00  0.00    -0.060 C 
ATOM     13  O   UNL A   1      28.026 -30.188 -28.387  0.00  0.00    -0.289 OA
ATOM     14  C   UNL A   1      29.736 -31.822 -29.069  0.00  0.00    +0.039 C 
ATOM     15  N   UNL A   1      29.739 -33.369 -29.136  0.00  0.00    -0.341 N 
ATOM     16  C   UNL A   1      29.140 -34.140 -28.044  0.00  0.00    -0.001 C 
ENDROOT
BRANCH   1  17
ATOM     17  O   UNL A   1      35.272 -33.305 -29.870  0.00  0.00    -0.411 OA
BRANCH  17  19
ATOM     18  N   UNL A   1      36.585 -33.868 -31.710  0.00  0.00    -0.251 N 
ATOM     19  C   UNL A   1      35.683 -32.982 -31.157  0.00  0.00    +0.410 C 
ATOM     20  O   UNL A   1      35.254 -32.046 -31.827  0.00  0.00    -0.226 OA
ATOM     21  H   UNL A   1      37.008 -33.612 -32.562  0.00  0.00    +0.000 HD
BRANCH  18  27
ATOM     22  C   UNL A   1      38.280 -35.528 -30.976  0.00  0.00    -0.026 A 
ATOM     23  C   UNL A   1      38.514 -36.758 -30.329  0.00  0.00    -0.057 A 
ATOM     24  C   UNL A   1      37.458 -37.575 -29.927  0.00  0.00    -0.061 A 
ATOM     25  C   UNL A   1      36.147 -37.187 -30.178  0.00  0.00    -0.060 A 
ATOM     26  C   UNL A   1      35.895 -35.964 -30.799  0.00  0.00    -0.040 A 
ATOM     27  C   UNL A   1      36.949 -35.109 -31.154  0.00  0.00    +0.040 A 
BRANCH  22  28
ATOM     28  C   UNL A   1      39.476 -34.789 -31.542  0.00  0.00    -0.026 C 
BRANCH  28  30
ATOM     29  C   UNL A   1      41.465 -36.055 -32.517  0.00  0.00    -0.065 C 
ATOM     30  C   UNL A   1      40.817 -35.484 -31.262  0.00  0.00    -0.052 C 
ENDBRANCH  28  30
ENDBRANCH  22  28
ENDBRANCH  18  27
ENDBRANCH  17  19
ENDBRANCH   1  17
TORSDOF 5
ENDMDL
MODEL 17
REMARK VINA RESULT:    -7.260     15.107     18.191
REMARK INTER + INTRA:          -9.646
REMARK INTER:                  -8.073
REMARK INTRA:                  -1.573
REMARK UNBOUND:                -0.263
REMARK  Name = cpd263.pdb
REMARK  9 active torsions:
REMARK  status: ('A' for Active; 'I' for Inactive)
REMARK    1  A    between atoms: C_1  and  C_2
REMARK    2  A    between atoms: C_2  and  C_3
REMARK    3  A    between atoms: C_3  and  C_4
REMARK    4  A    between atoms: C_9  and  N_10
REMARK    5  A    between atoms: C_11  and  O_13
REMARK    6  A    between atoms: O_13  and  C_14
REMARK    7  A    between atoms: C_20  and  C_21
REMARK    8  A    between atoms: N_24  and  C_25
REMARK    9  A    between atoms: N_28  and  C_29
REMARK                            x       y       z     vdW  Elec       q    Type
REMARK                         _______ _______ _______ _____ _____    ______ ____
ROOT
ATOM      1  C   UNL A   1      40.077 -21.515 -36.519  0.00  0.00    +0.134 A 
ATOM      2  C   UNL A   1      40.246 -22.324 -37.657  0.00  0.00    -0.017 A 
ATOM      3  C   UNL A   1      41.373 -22.172 -38.470  0.00  0.00    -0.037 A 
ATOM      4  C   UNL A   1      42.284 -21.186 -38.141  0.00  0.00    +0.032 A 
ATOM      5  C   UNL A   1      42.099 -20.394 -36.984  0.00  0.00    -0.017 A 
ATOM      6  C   UNL A   1      40.997 -20.530 -36.163  0.00  0.00    -0.014 A 
ATOM      7  C   UNL A   1      43.322 -19.541 -36.886  0.00  0.00    +0.002 C 
ATOM      8  C   UNL A   1      44.369 -20.386 -36.105  0.00  0.00    -0.055 C 
ATOM      9  C   UNL A   1      43.325 -18.119 -36.400  0.00  0.00    -0.054 C 
ATOM     10  C   UNL A   1      44.593 -17.622 -37.080  0.00  0.00    -0.048 C 
ATOM     11  N   UNL A   1      44.673 -18.330 -38.429  0.00  0.00    +0.433 N 
ATOM     12  C   UNL A   1      45.971 -19.044 -38.644  0.00  0.00    -0.060 C 
ATOM     13  O   UNL A   1      44.595 -17.323 -39.400  0.00  0.00    -0.289 OA
ATOM     14  C   UNL A   1      43.426 -19.289 -38.489  0.00  0.00    +0.039 C 
ATOM     15  N   UNL A   1      43.496 -20.799 -38.827  0.00  0.00    -0.341 N 
ATOM     16  C   UNL A   1      43.554 -21.223 -40.227  0.00  0.00    -0.001 C 
ENDROOT
BRANCH   1  17
ATOM     17  O   UNL A   1      38.903 -21.671 -35.778  0.00  0.00    -0.411 OA
BRANCH  17  19
ATOM     18  N   UNL A   1      38.790 -22.251 -33.524  0.00  0.00    -0.251 N 
ATOM     19  C   UNL A   1      38.979 -22.677 -34.824  0.00  0.00    +0.410 C 
ATOM     20  O   UNL A   1      39.120 -23.874 -35.061  0.00  0.00    -0.226 OA
ATOM     21  H   UNL A   1      38.968 -22.899 -32.804  0.00  0.00    +0.000 HD
BRANCH  18  27
ATOM     22  C   UNL A   1      39.237 -19.914 -32.813  0.00  0.00    -0.026 A 
ATOM     23  C   UNL A   1      38.686 -18.647 -32.534  0.00  0.00    -0.057 A 
ATOM     24  C   UNL A   1      37.306 -18.445 -32.525  0.00  0.00    -0.061 A 
ATOM     25  C   UNL A   1      36.449 -19.509 -32.779  0.00  0.00    -0.060 A 
ATOM     26  C   UNL A   1      36.975 -20.766 -33.078  0.00  0.00    -0.040 A 
ATOM     27  C   UNL A   1      38.362 -20.964 -33.147  0.00  0.00    +0.040 A 
BRANCH  22  28
ATOM     28  C   UNL A   1      40.730 -20.093 -32.624  0.00  0.00    -0.026 C 
BRANCH  28  30
ATOM     29  C   UNL A   1      43.044 -19.034 -32.806  0.00  0.00    -0.065 C 
ATOM     30  C   UNL A   1      41.539 -18.811 -32.878  0.00  0.00    -0.052 C 
ENDBRANCH  28  30
ENDBRANCH  22  28
ENDBRANCH  18  27
ENDBRANCH  17  19
ENDBRANCH   1  17
TORSDOF 5
ENDMDL
MODEL 18
REMARK VINA RESULT:    -7.255     16.014     19.172
REMARK INTER + INTRA:          -9.639
REMARK INTER:                  -8.401
REMARK INTRA:                  -1.238
REMARK UNBOUND:                -0.263
REMARK  Name = cpd263.pdb
REMARK  9 active torsions:
REMARK  status: ('A' for Active; 'I' for Inactive)
REMARK    1  A    between atoms: C_1  and  C_2
REMARK    2  A    between atoms: C_2  and  C_3
REMARK    3  A    between atoms: C_3  and  C_4
REMARK    4  A    between atoms: C_9  and  N_10
REMARK    5  A    between atoms: C_11  and  O_13
REMARK    6  A    between atoms: O_13  and  C_14
REMARK    7  A    between atoms: C_20  and  C_21
REMARK    8  A    between atoms: N_24  and  C_25
REMARK    9  A    between atoms: N_28  and  C_29
REMARK                            x       y       z     vdW  Elec       q    Type
REMARK                         _______ _______ _______ _____ _____    ______ ____
ROOT
ATOM      1  C   UNL A   1      41.480 -21.568 -38.514  0.00  0.00    +0.134 A 
ATOM      2  C   UNL A   1      41.267 -21.955 -39.850  0.00  0.00    -0.017 A 
ATOM      3  C   UNL A   1      42.224 -21.672 -40.827  0.00  0.00    -0.037 A 
ATOM      4  C   UNL A   1      43.356 -20.975 -40.448  0.00  0.00    +0.032 A 
ATOM      5  C   UNL A   1      43.555 -20.609 -39.096  0.00  0.00    -0.017 A 
ATOM      6  C   UNL A   1      42.625 -20.883 -38.112  0.00  0.00    -0.014 A 
ATOM      7  C   UNL A   1      44.916 -19.995 -39.046  0.00  0.00    +0.002 C 
ATOM      8  C   UNL A   1      45.908 -21.176 -38.842  0.00  0.00    -0.055 C 
ATOM      9  C   UNL A   1      45.289 -18.836 -38.165  0.00  0.00    -0.054 C 
ATOM     10  C   UNL A   1      46.475 -18.293 -38.951  0.00  0.00    -0.048 C 
ATOM     11  N   UNL A   1      46.155 -18.503 -40.428  0.00  0.00    +0.433 N 
ATOM     12  C   UNL A   1      47.223 -19.252 -41.162  0.00  0.00    -0.060 C 
ATOM     13  O   UNL A   1      46.090 -17.224 -40.996  0.00  0.00    -0.289 OA
ATOM     14  C   UNL A   1      44.757 -19.226 -40.470  0.00  0.00    +0.039 C 
ATOM     15  N   UNL A   1      44.466 -20.527 -41.258  0.00  0.00    -0.341 N 
ATOM     16  C   UNL A   1      44.170 -20.452 -42.690  0.00  0.00    -0.001 C 
ENDROOT
BRANCH   1  17
ATOM     17  O   UNL A   1      40.462 -21.824 -37.592  0.00  0.00    -0.411 OA
BRANCH  17  19
ATOM     18  N   UNL A   1      39.288 -20.594 -35.999  0.00  0.00    -0.251 N 
ATOM     19  C   UNL A   1      39.668 -20.718 -37.320  0.00  0.00    +0.410 C 
ATOM     20  O   UNL A   1      39.364 -19.844 -38.129  0.00  0.00    -0.226 OA
ATOM     21  H   UNL A   1      38.618 -19.906 -35.782  0.00  0.00    +0.000 HD
BRANCH  18  27
ATOM     22  C   UNL A   1      40.920 -21.035 -34.179  0.00  0.00    -0.026 A 
ATOM     23  C   UNL A   1      41.265 -21.855 -33.087  0.00  0.00    -0.057 A 
ATOM     24  C   UNL A   1      40.540 -23.010 -32.793  0.00  0.00    -0.061 A 
ATOM     25  C   UNL A   1      39.466 -23.376 -33.595  0.00  0.00    -0.060 A 
ATOM     26  C   UNL A   1      39.097 -22.567 -34.669  0.00  0.00    -0.040 A 
ATOM     27  C   UNL A   1      39.784 -21.374 -34.936  0.00  0.00    +0.040 A 
BRANCH  22  28
ATOM     28  C   UNL A   1      41.863 -19.905 -34.540  0.00  0.00    -0.026 C 
BRANCH  28  30
ATOM     29  C   UNL A   1      44.309 -19.240 -34.245  0.00  0.00    -0.065 C 
ATOM     30  C   UNL A   1      43.332 -20.340 -34.643  0.00  0.00    -0.052 C 
ENDBRANCH  28  30
ENDBRANCH  22  28
ENDBRANCH  18  27
ENDBRANCH  17  19
ENDBRANCH   1  17
TORSDOF 5
ENDMDL
MODEL 19
REMARK VINA RESULT:    -7.241     15.420     18.691
REMARK INTER + INTRA:          -9.621
REMARK INTER:                  -8.202
REMARK INTRA:                  -1.419
REMARK UNBOUND:                -0.263
REMARK  Name = cpd263.pdb
REMARK  9 active torsions:
REMARK  status: ('A' for Active; 'I' for Inactive)
REMARK    1  A    between atoms: C_1  and  C_2
REMARK    2  A    between atoms: C_2  and  C_3
REMARK    3  A    between atoms: C_3  and  C_4
REMARK    4  A    between atoms: C_9  and  N_10
REMARK    5  A    between atoms: C_11  and  O_13
REMARK    6  A    between atoms: O_13  and  C_14
REMARK    7  A    between atoms: C_20  and  C_21
REMARK    8  A    between atoms: N_24  and  C_25
REMARK    9  A    between atoms: N_28  and  C_29
REMARK                            x       y       z     vdW  Elec       q    Type
REMARK                         _______ _______ _______ _____ _____    ______ ____
ROOT
ATOM      1  C   UNL A   1      43.645 -20.268 -35.053  0.00  0.00    +0.134 A 
ATOM      2  C   UNL A   1      44.994 -19.888 -34.929  0.00  0.00    -0.017 A 
ATOM      3  C   UNL A   1      45.792 -19.738 -36.067  0.00  0.00    -0.037 A 
ATOM      4  C   UNL A   1      45.226 -20.009 -37.299  0.00  0.00    +0.032 A 
ATOM      5  C   UNL A   1      43.863 -20.376 -37.398  0.00  0.00    -0.017 A 
ATOM      6  C   UNL A   1      43.054 -20.524 -36.288  0.00  0.00    -0.014 A 
ATOM      7  C   UNL A   1      43.581 -20.463 -38.863  0.00  0.00    +0.002 C 
ATOM      8  C   UNL A   1      43.196 -19.023 -39.309  0.00  0.00    -0.055 C 
ATOM      9  C   UNL A   1      42.658 -21.473 -39.487  0.00  0.00    -0.054 C 
ATOM     10  C   UNL A   1      43.229 -21.496 -40.899  0.00  0.00    -0.048 C 
ATOM     11  N   UNL A   1      44.737 -21.309 -40.765  0.00  0.00    +0.433 N 
ATOM     12  C   UNL A   1      45.266 -20.177 -41.589  0.00  0.00    -0.060 C 
ATOM     13  O   UNL A   1      45.318 -22.483 -41.263  0.00  0.00    -0.289 OA
ATOM     14  C   UNL A   1      45.017 -21.133 -39.226  0.00  0.00    +0.039 C 
ATOM     15  N   UNL A   1      45.833 -19.970 -38.610  0.00  0.00    -0.341 N 
ATOM     16  C   UNL A   1      47.295 -20.043 -38.595  0.00  0.00    -0.001 C 
ENDROOT
BRANCH   1  17
ATOM     17  O   UNL A   1      42.913 -20.460 -33.878  0.00  0.00    -0.411 OA
BRANCH  17  19
ATOM     18  N   UNL A   1      40.727 -19.758 -33.479  0.00  0.00    -0.251 N 
ATOM     19  C   UNL A   1      42.059 -19.407 -33.579  0.00  0.00    +0.410 C 
ATOM     20  O   UNL A   1      42.408 -18.255 -33.334  0.00  0.00    -0.226 OA
ATOM     21  H   UNL A   1      40.070 -19.028 -33.404  0.00  0.00    +0.000 HD
BRANCH  18  27
ATOM     22  C   UNL A   1      39.450 -21.622 -34.509  0.00  0.00    -0.026 A 
ATOM     23  C   UNL A   1      39.089 -22.982 -34.428  0.00  0.00    -0.057 A 
ATOM     24  C   UNL A   1      39.444 -23.760 -33.325  0.00  0.00    -0.061 A 
ATOM     25  C   UNL A   1      40.153 -23.189 -32.275  0.00  0.00    -0.060 A 
ATOM     26  C   UNL A   1      40.537 -21.850 -32.346  0.00  0.00    -0.040 A 
ATOM     27  C   UNL A   1      40.235 -21.077 -33.477  0.00  0.00    +0.040 A 
BRANCH  22  28
ATOM     28  C   UNL A   1      38.872 -20.804 -35.646  0.00  0.00    -0.026 C 
BRANCH  28  30
ATOM     29  C   UNL A   1      39.536 -20.086 -38.003  0.00  0.00    -0.065 C 
ATOM     30  C   UNL A   1      39.363 -21.247 -37.033  0.00  0.00    -0.052 C 
ENDBRANCH  28  30
ENDBRANCH  22  28
ENDBRANCH  18  27
ENDBRANCH  17  19
ENDBRANCH   1  17
TORSDOF 5
ENDMDL
MODEL 20
REMARK VINA RESULT:    -7.177      3.214      5.130
REMARK INTER + INTRA:          -9.538
REMARK INTER:                  -8.049
REMARK INTRA:                  -1.489
REMARK UNBOUND:                -0.263
REMARK  Name = cpd263.pdb
REMARK  9 active torsions:
REMARK  status: ('A' for Active; 'I' for Inactive)
REMARK    1  A    between atoms: C_1  and  C_2
REMARK    2  A    between atoms: C_2  and  C_3
REMARK    3  A    between atoms: C_3  and  C_4
REMARK    4  A    between atoms: C_9  and  N_10
REMARK    5  A    between atoms: C_11  and  O_13
REMARK    6  A    between atoms: O_13  and  C_14
REMARK    7  A    between atoms: C_20  and  C_21
REMARK    8  A    between atoms: N_24  and  C_25
REMARK    9  A    between atoms: N_28  and  C_29
REMARK                            x       y       z     vdW  Elec       q    Type
REMARK                         _______ _______ _______ _____ _____    ______ ____
ROOT
ATOM      1  C   UNL A   1      33.463 -33.056 -29.739  0.00  0.00    +0.134 A 
ATOM      2  C   UNL A   1      32.940 -34.053 -28.896  0.00  0.00    -0.017 A 
ATOM      3  C   UNL A   1      31.560 -34.165 -28.708  0.00  0.00    -0.037 A 
ATOM      4  C   UNL A   1      30.740 -33.250 -29.343  0.00  0.00    +0.032 A 
ATOM      5  C   UNL A   1      31.289 -32.266 -30.198  0.00  0.00    -0.017 A 
ATOM      6  C   UNL A   1      32.650 -32.140 -30.403  0.00  0.00    -0.014 A 
ATOM      7  C   UNL A   1      30.116 -31.555 -30.791  0.00  0.00    +0.002 C 
ATOM      8  C   UNL A   1      29.711 -32.378 -32.048  0.00  0.00    -0.055 C 
ATOM      9  C   UNL A   1      30.084 -30.083 -31.093  0.00  0.00    -0.054 C 
ATOM     10  C   UNL A   1      28.579 -29.852 -31.058  0.00  0.00    -0.048 C 
ATOM     11  N   UNL A   1      28.019 -30.773 -29.979  0.00  0.00    +0.433 N 
ATOM     12  C   UNL A   1      26.916 -31.657 -30.472  0.00  0.00    -0.060 C 
ATOM     13  O   UNL A   1      27.464 -29.934 -29.004  0.00  0.00    -0.289 OA
ATOM     14  C   UNL A   1      29.248 -31.579 -29.417  0.00  0.00    +0.039 C 
ATOM     15  N   UNL A   1      29.301 -33.121 -29.287  0.00  0.00    -0.341 N 
ATOM     16  C   UNL A   1      28.687 -33.770 -28.128  0.00  0.00    -0.001 C 
ENDROOT
BRANCH   1  17
ATOM     17  O   UNL A   1      34.853 -32.954 -29.841  0.00  0.00    -0.411 OA
BRANCH  17  19
ATOM     18  N   UNL A   1      35.802 -34.041 -31.671  0.00  0.00    -0.251 N 
ATOM     19  C   UNL A   1      35.307 -32.862 -31.150  0.00  0.00    +0.410 C 
ATOM     20  O   UNL A   1      35.227 -31.864 -31.863  0.00  0.00    -0.226 OA
ATOM     21  H   UNL A   1      36.258 -33.996 -32.543  0.00  0.00    +0.000 HD
BRANCH  18  27
ATOM     22  C   UNL A   1      34.682 -36.230 -31.320  0.00  0.00    -0.026 A 
ATOM     23  C   UNL A   1      34.746 -37.493 -30.700  0.00  0.00    -0.057 A 
ATOM     24  C   UNL A   1      35.761 -37.804 -29.795  0.00  0.00    -0.061 A 
ATOM     25  C   UNL A   1      36.723 -36.853 -29.481  0.00  0.00    -0.060 A 
ATOM     26  C   UNL A   1      36.689 -35.603 -30.099  0.00  0.00    -0.040 A 
ATOM     27  C   UNL A   1      35.706 -35.303 -31.054  0.00  0.00    +0.040 A 
BRANCH  22  28
ATOM     28  C   UNL A   1      33.453 -35.908 -32.146  0.00  0.00    -0.026 C 
BRANCH  28  30
ATOM     29  C   UNL A   1      30.913 -35.938 -31.900  0.00  0.00    -0.065 C 
ATOM     30  C   UNL A   1      32.212 -36.718 -31.740  0.00  0.00    -0.052 C 
ENDBRANCH  28  30
ENDBRANCH  22  28
ENDBRANCH  18  27
ENDBRANCH  17  19
ENDBRANCH   1  17
TORSDOF 5
ENDMDL
