@<TRIPOS>MOLECULE
*****
 29 32 0 0 0
SMALL
GASTEIGER

@<TRIPOS>ATOM
      1 C           7.6981    1.4568    0.0000 C.3     1  UNL1        0.0004
      2 C           6.8150    1.9584    0.0000 C.3     1  UNL1        0.0047
      3 C           5.9391    1.4445    0.0000 C.3     1  UNL1        0.0277
      4 C           5.9462    0.4289    0.0000 C.ar    1  UNL1       -0.0067
      5 C           6.8293   -0.0727    0.0000 C.ar    1  UNL1       -0.0030
      6 C           6.8364   -1.0882    0.0000 C.ar    1  UNL1       -0.0002
      7 C           5.9605   -1.6021    0.0000 C.ar    1  UNL1        0.0013
      8 C           5.0775   -1.1006    0.0000 C.ar    1  UNL1        0.0164
      9 C           5.0703   -0.0850    0.0000 C.ar    1  UNL1        0.0727
     10 N           4.1873    0.4166    0.0000 N.am    1  UNL1       -0.1424
     11 C           4.1801    1.4321    0.0000 C.2     1  UNL1        0.4300
     12 O           5.0560    1.9461    0.0000 O.2     1  UNL1       -0.2238
     13 O           3.2971    1.9337    0.0000 O.3     1  UNL1       -0.4089
     14 C           2.4212    1.4197    0.0000 C.ar    1  UNL1        0.1499
     15 C           2.4277    0.4913    0.0000 C.ar    1  UNL1        0.0389
     16 C           1.6270    0.0215    0.0000 C.ar    1  UNL1        0.0175
     17 C           0.8197    0.4800    0.0000 C.ar    1  UNL1        0.0484
     18 C           0.8132    1.4084    0.0000 C.ar    1  UNL1        0.0010
     19 C           1.6139    1.8783    0.0000 C.ar    1  UNL1        0.0349
     20 C          -0.0002    1.8780    0.0000 C.3     1  UNL1        0.0894
     21 C           0.4998    2.7440    0.0000 C.3     1  UNL1        0.0123
     22 C          -0.8137    2.3477    0.0000 C.3     1  UNL1        0.0723
     23 C          -1.6334    1.8677    0.0000 C.3     1  UNL1        0.1067
     24 N          -1.6269    0.9393    0.0000 N.3     1  UNL1        0.2728
     25 C          -2.4911    0.4362    0.0000 C.3     1  UNL1        0.1677
     26 O          -2.4929    1.4393    0.0000 O.co2   1  UNL1       -0.7702
     27 C          -0.8133    0.4696    0.0000 C.3     1  UNL1        0.1391
     28 N          -0.0000   -0.0000    0.0000 N.pl3   1  UNL1       -0.2662
     29 C           0.0031   -1.0000    0.0000 C.3     1  UNL1        0.1174
@<TRIPOS>UNITY_ATOM_ATTR
24 1
charge 1
26 1
charge -1
@<TRIPOS>BOND
     1     1     2    1
     2     2     3    1
     3     3     4    1
     4     4     5   ar
     5     5     6   ar
     6     6     7   ar
     7     7     8   ar
     8     8     9   ar
     9     4     9   ar
    10     9    10    1
    11    10    11   am
    12    11    12    2
    13    11    13    1
    14    13    14    1
    15    14    15   ar
    16    15    16   ar
    17    16    17   ar
    18    17    18   ar
    19    18    19   ar
    20    14    19   ar
    21    18    20    1
    22    20    21    1
    23    20    22    1
    24    22    23    1
    25    23    24    1
    26    24    25    1
    27    24    26    1
    28    24    27    1
    29    20    27    1
    30    27    28    1
    31    17    28    1
    32    28    29    1
