REMARK  Name = cpd292.pdb
REMARK  11 active torsions:
REMARK  status: ('A' for Active; 'I' for Inactive)
REMARK    1  A    between atoms: C_1  and  C_2
REMARK    2  A    between atoms: C_2  and  C_3
REMARK    3  A    between atoms: C_2  and  C_20
REMARK    4  A    between atoms: C_3  and  C_4
REMARK    5  A    between atoms: C_4  and  C_5
REMARK    6  A    between atoms: C_6  and  C_7
REMARK    7  A    between atoms: C_7  and  O_8
REMARK    8  A    between atoms: C_12  and  C_13
REMARK    9  A    between atoms: C_12  and  C_14
REMARK   10  A    between atoms: C_18  and  C_19
REMARK   11  A    between atoms: C_20  and  C_21
REMARK                            x       y       z     vdW  Elec       q    Type
REMARK                         _______ _______ _______ _____ _____    ______ ____
ROOT
ATOM      1  C   UNL A   1      -1.858  -0.069  -0.395  0.00  0.00    -0.012 C 
ATOM      2  C   UNL A   1      -2.721   1.039   0.232  0.00  0.00    -0.045 C 
ATOM      3  C   UNL A   1      -2.139   1.749   1.200  0.00  0.00    -0.082 C 
ATOM      4  C   UNL A   1      -0.680   1.538   1.386  0.00  0.00    -0.031 C 
ATOM      5  C   UNL A   1       0.000   1.000   0.000  0.00  0.00    -0.027 C 
ATOM      6  C   UNL A   1       1.551   1.697   0.123  0.00  0.00    -0.031 C 
ATOM      7  C   UNL A   1       2.367   1.084   1.289  0.00  0.00    -0.060 C 
ATOM      8  C   UNL A   1       1.518   3.240   0.329  0.00  0.00    -0.060 C 
ATOM      9  C   UNL A   1       2.352   1.512  -1.192  0.00  0.00    -0.048 C 
ATOM     10  C   UNL A   1       2.115   0.151  -1.778  0.00  0.00    -0.052 C 
ATOM     11  C   UNL A   1       0.614  -0.077  -1.715  0.00  0.00    -0.047 C 
ATOM     12  C   UNL A   1       0.000   0.000   0.000  0.00  0.00    -0.022 C 
ATOM     13  C   UNL A   1       0.000  -1.000   0.000  0.00  0.00    -0.059 C 
ENDROOT
BRANCH   1  14
ATOM     14  C   UNL A   1      -2.636  -1.434  -0.116  0.00  0.00    -0.046 C 
BRANCH  14  15
ATOM     15  C   UNL A   1      -2.923  -2.206  -1.417  0.00  0.00    -0.049 C 
BRANCH  15  17
ATOM     16  C   UNL A   1      -2.132  -4.526  -0.754  0.00  0.00    -0.062 C 
ATOM     17  C   UNL A   1      -3.325  -3.685  -1.227  0.00  0.00    -0.034 C 
BRANCH  17  18
ATOM     18  C   UNL A   1      -4.523  -3.843  -0.281  0.00  0.00    +0.052 C 
BRANCH  18  19
ATOM     19  C   UNL A   1      -5.188  -5.226  -0.260  0.00  0.00    +0.356 C 
ATOM     20  O   UNL A   1      -5.762  -5.510   0.830  0.00  0.00    -0.246 OA
ATOM     21  O   UNL A   1      -5.104  -5.902  -1.322  0.00  0.00    -0.246 OA
ENDBRANCH  18  19
ENDBRANCH  17  18
ENDBRANCH  15  17
ENDBRANCH  14  15
ENDBRANCH   1  14
BRANCH   2  22
ATOM     22  C   UNL A   1      -4.104   1.285  -0.316  0.00  0.00    +0.066 C 
BRANCH  22  23
ATOM     23  O   UNL A   1      -4.798   2.258   0.456  0.00  0.00    -0.391 OA
ATOM     24  H   UNL A   1      -4.890   1.941   1.368  0.00  0.00    +0.000 HD
ENDBRANCH  22  23
ENDBRANCH   2  22
TORSDOF 7
