MODEL 1
REMARK VINA RESULT:    -6.987      0.000      0.000
REMARK INTER + INTRA:         -10.463
REMARK INTER:                  -9.643
REMARK INTRA:                  -0.821
REMARK UNBOUND:                -0.821
REMARK  Name = cpd292.pdb
REMARK  11 active torsions:
REMARK  status: ('A' for Active; 'I' for Inactive)
REMARK    1  A    between atoms: C_1  and  C_2
REMARK    2  A    between atoms: C_2  and  C_3
REMARK    3  A    between atoms: C_2  and  C_20
REMARK    4  A    between atoms: C_3  and  C_4
REMARK    5  A    between atoms: C_4  and  C_5
REMARK    6  A    between atoms: C_6  and  C_7
REMARK    7  A    between atoms: C_7  and  O_8
REMARK    8  A    between atoms: C_12  and  C_13
REMARK    9  A    between atoms: C_12  and  C_14
REMARK   10  A    between atoms: C_18  and  C_19
REMARK   11  A    between atoms: C_20  and  C_21
REMARK                            x       y       z     vdW  Elec       q    Type
REMARK                         _______ _______ _______ _____ _____    ______ ____
ROOT
ATOM      1  C   UNL A   1      35.713 -37.187 -30.486  0.00  0.00    -0.012 C 
ATOM      2  C   UNL A   1      35.436 -37.856 -29.129  0.00  0.00    -0.045 C 
ATOM      3  C   UNL A   1      35.175 -37.028 -28.117  0.00  0.00    -0.082 C 
ATOM      4  C   UNL A   1      34.957 -35.601 -28.471  0.00  0.00    -0.031 C 
ATOM      5  C   UNL A   1      34.454 -35.469 -30.021  0.00  0.00    -0.027 C 
ATOM      6  C   UNL A   1      33.453 -34.094 -29.907  0.00  0.00    -0.031 C 
ATOM      7  C   UNL A   1      34.267 -32.814 -29.590  0.00  0.00    -0.060 C 
ATOM      8  C   UNL A   1      32.343 -34.228 -28.824  0.00  0.00    -0.060 C 
ATOM      9  C   UNL A   1      32.666 -33.866 -31.223  0.00  0.00    -0.048 C 
ATOM     10  C   UNL A   1      33.526 -34.150 -32.420  0.00  0.00    -0.052 C 
ATOM     11  C   UNL A   1      34.233 -35.462 -32.126  0.00  0.00    -0.047 C 
ATOM     12  C   UNL A   1      35.249 -35.348 -30.616  0.00  0.00    -0.022 C 
ATOM     13  C   UNL A   1      36.043 -35.227 -31.211  0.00  0.00    -0.059 C 
ENDROOT
BRANCH   1  14
ATOM     14  C   UNL A   1      37.196 -37.618 -30.887  0.00  0.00    -0.046 C 
BRANCH  14  15
ATOM     15  C   UNL A   1      38.218 -37.234 -29.802  0.00  0.00    -0.049 C 
BRANCH  15  17
ATOM     16  C   UNL A   1      40.727 -37.567 -30.000  0.00  0.00    -0.062 C 
ATOM     17  C   UNL A   1      39.545 -36.646 -30.329  0.00  0.00    -0.034 C 
BRANCH  17  18
ATOM     18  C   UNL A   1      39.485 -36.336 -31.831  0.00  0.00    +0.052 C 
BRANCH  18  19
ATOM     19  C   UNL A   1      40.282 -35.111 -32.299  0.00  0.00    +0.356 C 
ATOM     20  O   UNL A   1      39.742 -34.002 -32.018  0.00  0.00    -0.246 OA
ATOM     21  O   UNL A   1      41.375 -35.345 -32.883  0.00  0.00    -0.246 OA
ENDBRANCH  18  19
ENDBRANCH  17  18
ENDBRANCH  15  17
ENDBRANCH  14  15
ENDBRANCH   1  14
BRANCH   2  22
ATOM     22  C   UNL A   1      35.416 -39.362 -29.049  0.00  0.00    +0.066 C 
BRANCH  22  23
ATOM     23  O   UNL A   1      36.440 -39.845 -28.189  0.00  0.00    -0.391 OA
ATOM     24  H   UNL A   1      36.239 -40.758 -27.928  0.00  0.00    +0.000 HD
ENDBRANCH  22  23
ENDBRANCH   2  22
TORSDOF 7
ENDMDL
MODEL 2
REMARK VINA RESULT:    -6.678     16.535     19.468
REMARK INTER + INTRA:         -10.037
REMARK INTER:                  -8.362
REMARK INTRA:                  -1.674
REMARK UNBOUND:                -0.821
REMARK  Name = cpd292.pdb
REMARK  11 active torsions:
REMARK  status: ('A' for Active; 'I' for Inactive)
REMARK    1  A    between atoms: C_1  and  C_2
REMARK    2  A    between atoms: C_2  and  C_3
REMARK    3  A    between atoms: C_2  and  C_20
REMARK    4  A    between atoms: C_3  and  C_4
REMARK    5  A    between atoms: C_4  and  C_5
REMARK    6  A    between atoms: C_6  and  C_7
REMARK    7  A    between atoms: C_7  and  O_8
REMARK    8  A    between atoms: C_12  and  C_13
REMARK    9  A    between atoms: C_12  and  C_14
REMARK   10  A    between atoms: C_18  and  C_19
REMARK   11  A    between atoms: C_20  and  C_21
REMARK                            x       y       z     vdW  Elec       q    Type
REMARK                         _______ _______ _______ _____ _____    ______ ____
ROOT
ATOM      1  C   UNL A   1      44.610 -20.001 -39.070  0.00  0.00    -0.012 C 
ATOM      2  C   UNL A   1      45.371 -20.058 -37.735  0.00  0.00    -0.045 C 
ATOM      3  C   UNL A   1      44.620 -19.968 -36.636  0.00  0.00    -0.082 C 
ATOM      4  C   UNL A   1      43.150 -20.057 -36.833  0.00  0.00    -0.031 C 
ATOM      5  C   UNL A   1      42.807 -20.871 -38.208  0.00  0.00    -0.027 C 
ATOM      6  C   UNL A   1      41.339 -21.619 -37.770  0.00  0.00    -0.031 C 
ATOM      7  C   UNL A   1      40.203 -20.584 -37.567  0.00  0.00    -0.060 C 
ATOM      8  C   UNL A   1      41.444 -22.466 -36.468  0.00  0.00    -0.060 C 
ATOM      9  C   UNL A   1      40.890 -22.641 -38.847  0.00  0.00    -0.048 C 
ATOM     10  C   UNL A   1      41.157 -22.118 -40.228  0.00  0.00    -0.052 C 
ATOM     11  C   UNL A   1      42.567 -21.554 -40.197  0.00  0.00    -0.047 C 
ATOM     12  C   UNL A   1      42.725 -20.221 -38.964  0.00  0.00    -0.022 C 
ATOM     13  C   UNL A   1      42.643 -19.570 -39.719  0.00  0.00    -0.059 C 
ENDROOT
BRANCH   1  14
ATOM     14  C   UNL A   1      45.175 -18.720 -39.837  0.00  0.00    -0.046 C 
BRANCH  14  15
ATOM     15  C   UNL A   1      46.050 -19.114 -41.041  0.00  0.00    -0.049 C 
BRANCH  15  17
ATOM     16  C   UNL A   1      44.873 -20.352 -42.919  0.00  0.00    -0.062 C 
ATOM     17  C   UNL A   1      45.735 -20.494 -41.658  0.00  0.00    -0.034 C 
BRANCH  17  18
ATOM     18  C   UNL A   1      47.005 -21.305 -41.944  0.00  0.00    +0.052 C 
BRANCH  18  19
ATOM     19  C   UNL A   1      46.918 -22.813 -41.674  0.00  0.00    +0.356 C 
ATOM     20  O   UNL A   1      46.203 -23.449 -42.500  0.00  0.00    -0.246 OA
ATOM     21  O   UNL A   1      47.575 -23.242 -40.686  0.00  0.00    -0.246 OA
ENDBRANCH  18  19
ENDBRANCH  17  18
ENDBRANCH  15  17
ENDBRANCH  14  15
ENDBRANCH   1  14
BRANCH   2  22
ATOM     22  C   UNL A   1      46.863 -20.270 -37.754  0.00  0.00    +0.066 C 
BRANCH  22  23
ATOM     23  O   UNL A   1      47.203 -21.478 -38.425  0.00  0.00    -0.391 OA
ATOM     24  H   UNL A   1      48.106 -21.411 -38.772  0.00  0.00    +0.000 HD
ENDBRANCH  22  23
ENDBRANCH   2  22
TORSDOF 7
ENDMDL
MODEL 3
REMARK VINA RESULT:    -6.622      2.164      4.218
REMARK INTER + INTRA:          -9.958
REMARK INTER:                  -9.430
REMARK INTRA:                  -0.528
REMARK UNBOUND:                -0.821
REMARK  Name = cpd292.pdb
REMARK  11 active torsions:
REMARK  status: ('A' for Active; 'I' for Inactive)
REMARK    1  A    between atoms: C_1  and  C_2
REMARK    2  A    between atoms: C_2  and  C_3
REMARK    3  A    between atoms: C_2  and  C_20
REMARK    4  A    between atoms: C_3  and  C_4
REMARK    5  A    between atoms: C_4  and  C_5
REMARK    6  A    between atoms: C_6  and  C_7
REMARK    7  A    between atoms: C_7  and  O_8
REMARK    8  A    between atoms: C_12  and  C_13
REMARK    9  A    between atoms: C_12  and  C_14
REMARK   10  A    between atoms: C_18  and  C_19
REMARK   11  A    between atoms: C_20  and  C_21
REMARK                            x       y       z     vdW  Elec       q    Type
REMARK                         _______ _______ _______ _____ _____    ______ ____
ROOT
ATOM      1  C   UNL A   1      36.466 -35.614 -30.520  0.00  0.00    -0.012 C 
ATOM      2  C   UNL A   1      35.631 -34.449 -31.079  0.00  0.00    -0.045 C 
ATOM      3  C   UNL A   1      34.371 -34.744 -31.406  0.00  0.00    -0.082 C 
ATOM      4  C   UNL A   1      33.874 -36.077 -30.978  0.00  0.00    -0.031 C 
ATOM      5  C   UNL A   1      34.718 -36.613 -29.685  0.00  0.00    -0.027 C 
ATOM      6  C   UNL A   1      33.514 -37.508 -28.875  0.00  0.00    -0.031 C 
ATOM      7  C   UNL A   1      33.088 -38.761 -29.682  0.00  0.00    -0.060 C 
ATOM      8  C   UNL A   1      32.229 -36.680 -28.574  0.00  0.00    -0.060 C 
ATOM      9  C   UNL A   1      34.002 -37.964 -27.476  0.00  0.00    -0.048 C 
ATOM     10  C   UNL A   1      35.440 -38.389 -27.522  0.00  0.00    -0.052 C 
ATOM     11  C   UNL A   1      36.170 -37.318 -28.316  0.00  0.00    -0.047 C 
ATOM     12  C   UNL A   1      35.492 -37.161 -30.001  0.00  0.00    -0.022 C 
ATOM     13  C   UNL A   1      36.266 -37.710 -30.318  0.00  0.00    -0.059 C 
ENDROOT
BRANCH   1  14
ATOM     14  C   UNL A   1      37.685 -35.798 -31.533  0.00  0.00    -0.046 C 
BRANCH  14  15
ATOM     15  C   UNL A   1      39.004 -36.092 -30.794  0.00  0.00    -0.049 C 
BRANCH  15  17
ATOM     16  C   UNL A   1      40.228 -34.038 -31.648  0.00  0.00    -0.062 C 
ATOM     17  C   UNL A   1      40.278 -35.563 -31.489  0.00  0.00    -0.034 C 
BRANCH  17  18
ATOM     18  C   UNL A   1      41.558 -36.003 -30.766  0.00  0.00    +0.052 C 
BRANCH  18  19
ATOM     19  C   UNL A   1      41.893 -37.499 -30.839  0.00  0.00    +0.356 C 
ATOM     20  O   UNL A   1      42.168 -37.914 -32.001  0.00  0.00    -0.246 OA
ATOM     21  O   UNL A   1      41.876 -38.129 -29.746  0.00  0.00    -0.246 OA
ENDBRANCH  18  19
ENDBRANCH  17  18
ENDBRANCH  15  17
ENDBRANCH  14  15
ENDBRANCH   1  14
BRANCH   2  22
ATOM     22  C   UNL A   1      36.253 -33.078 -31.159  0.00  0.00    +0.066 C 
BRANCH  22  23
ATOM     23  O   UNL A   1      35.539 -32.241 -32.061  0.00  0.00    -0.391 OA
ATOM     24  H   UNL A   1      36.074 -32.093 -32.857  0.00  0.00    +0.000 HD
ENDBRANCH  22  23
ENDBRANCH   2  22
TORSDOF 7
ENDMDL
MODEL 4
REMARK VINA RESULT:    -6.554      1.334      1.769
REMARK INTER + INTRA:          -9.865
REMARK INTER:                  -9.044
REMARK INTRA:                  -0.821
REMARK UNBOUND:                -0.821
REMARK  Name = cpd292.pdb
REMARK  11 active torsions:
REMARK  status: ('A' for Active; 'I' for Inactive)
REMARK    1  A    between atoms: C_1  and  C_2
REMARK    2  A    between atoms: C_2  and  C_3
REMARK    3  A    between atoms: C_2  and  C_20
REMARK    4  A    between atoms: C_3  and  C_4
REMARK    5  A    between atoms: C_4  and  C_5
REMARK    6  A    between atoms: C_6  and  C_7
REMARK    7  A    between atoms: C_7  and  O_8
REMARK    8  A    between atoms: C_12  and  C_13
REMARK    9  A    between atoms: C_12  and  C_14
REMARK   10  A    between atoms: C_18  and  C_19
REMARK   11  A    between atoms: C_20  and  C_21
REMARK                            x       y       z     vdW  Elec       q    Type
REMARK                         _______ _______ _______ _____ _____    ______ ____
ROOT
ATOM      1  C   UNL A   1      35.767 -36.528 -29.904  0.00  0.00    -0.012 C 
ATOM      2  C   UNL A   1      35.349 -37.514 -28.800  0.00  0.00    -0.045 C 
ATOM      3  C   UNL A   1      34.461 -37.054 -27.917  0.00  0.00    -0.082 C 
ATOM      4  C   UNL A   1      33.825 -35.750 -28.241  0.00  0.00    -0.031 C 
ATOM      5  C   UNL A   1      33.853 -35.487 -29.854  0.00  0.00    -0.027 C 
ATOM      6  C   UNL A   1      32.411 -34.598 -30.049  0.00  0.00    -0.031 C 
ATOM      7  C   UNL A   1      32.494 -33.209 -29.368  0.00  0.00    -0.060 C 
ATOM      8  C   UNL A   1      31.157 -35.328 -29.485  0.00  0.00    -0.060 C 
ATOM      9  C   UNL A   1      32.080 -34.393 -31.551  0.00  0.00    -0.048 C 
ATOM     10  C   UNL A   1      33.324 -34.111 -32.341  0.00  0.00    -0.052 C 
ATOM     11  C   UNL A   1      34.355 -35.127 -31.878  0.00  0.00    -0.047 C 
ATOM     12  C   UNL A   1      34.681 -34.979 -30.091  0.00  0.00    -0.022 C 
ATOM     13  C   UNL A   1      35.510 -34.471 -30.327  0.00  0.00    -0.059 C 
ENDROOT
BRANCH   1  14
ATOM     14  C   UNL A   1      37.341 -36.327 -29.732  0.00  0.00    -0.046 C 
BRANCH  14  15
ATOM     15  C   UNL A   1      38.138 -37.117 -30.786  0.00  0.00    -0.049 C 
BRANCH  15  17
ATOM     16  C   UNL A   1      38.900 -34.885 -31.724  0.00  0.00    -0.062 C 
ATOM     17  C   UNL A   1      39.296 -36.341 -31.450  0.00  0.00    -0.034 C 
BRANCH  17  18
ATOM     18  C   UNL A   1      40.591 -36.418 -30.630  0.00  0.00    +0.052 C 
BRANCH  18  19
ATOM     19  C   UNL A   1      41.769 -37.141 -31.296  0.00  0.00    +0.356 C 
ATOM     20  O   UNL A   1      42.697 -37.464 -30.500  0.00  0.00    -0.246 OA
ATOM     21  O   UNL A   1      41.670 -37.344 -32.537  0.00  0.00    -0.246 OA
ENDBRANCH  18  19
ENDBRANCH  17  18
ENDBRANCH  15  17
ENDBRANCH  14  15
ENDBRANCH   1  14
BRANCH   2  22
ATOM     22  C   UNL A   1      35.904 -38.916 -28.826  0.00  0.00    +0.066 C 
BRANCH  22  23
ATOM     23  O   UNL A   1      36.900 -39.093 -27.825  0.00  0.00    -0.391 OA
ATOM     24  H   UNL A   1      37.631 -39.618 -28.187  0.00  0.00    +0.000 HD
ENDBRANCH  22  23
ENDBRANCH   2  22
TORSDOF 7
ENDMDL
MODEL 5
REMARK VINA RESULT:    -6.411     15.324     18.600
REMARK INTER + INTRA:          -9.668
REMARK INTER:                  -8.505
REMARK INTRA:                  -1.164
REMARK UNBOUND:                -0.821
REMARK  Name = cpd292.pdb
REMARK  11 active torsions:
REMARK  status: ('A' for Active; 'I' for Inactive)
REMARK    1  A    between atoms: C_1  and  C_2
REMARK    2  A    between atoms: C_2  and  C_3
REMARK    3  A    between atoms: C_2  and  C_20
REMARK    4  A    between atoms: C_3  and  C_4
REMARK    5  A    between atoms: C_4  and  C_5
REMARK    6  A    between atoms: C_6  and  C_7
REMARK    7  A    between atoms: C_7  and  O_8
REMARK    8  A    between atoms: C_12  and  C_13
REMARK    9  A    between atoms: C_12  and  C_14
REMARK   10  A    between atoms: C_18  and  C_19
REMARK   11  A    between atoms: C_20  and  C_21
REMARK                            x       y       z     vdW  Elec       q    Type
REMARK                         _______ _______ _______ _____ _____    ______ ____
ROOT
ATOM      1  C   UNL A   1      41.921 -20.884 -38.574  0.00  0.00    -0.012 C 
ATOM      2  C   UNL A   1      41.379 -21.920 -39.573  0.00  0.00    -0.045 C 
ATOM      3  C   UNL A   1      41.998 -21.964 -40.754  0.00  0.00    -0.082 C 
ATOM      4  C   UNL A   1      43.257 -21.185 -40.869  0.00  0.00    -0.031 C 
ATOM      5  C   UNL A   1      43.937 -20.980 -39.396  0.00  0.00    -0.027 C 
ATOM      6  C   UNL A   1      45.590 -20.968 -39.815  0.00  0.00    -0.031 C 
ATOM      7  C   UNL A   1      45.962 -19.722 -40.656  0.00  0.00    -0.060 C 
ATOM      8  C   UNL A   1      46.031 -22.228 -40.616  0.00  0.00    -0.060 C 
ATOM      9  C   UNL A   1      46.487 -20.997 -38.550  0.00  0.00    -0.048 C 
ATOM     10  C   UNL A   1      45.915 -20.129 -37.467  0.00  0.00    -0.052 C 
ATOM     11  C   UNL A   1      44.432 -20.457 -37.406  0.00  0.00    -0.047 C 
ATOM     12  C   UNL A   1      43.610 -20.123 -38.999  0.00  0.00    -0.022 C 
ATOM     13  C   UNL A   1      43.283 -19.265 -38.601  0.00  0.00    -0.059 C 
ENDROOT
BRANCH   1  14
ATOM     14  C   UNL A   1      40.705 -19.895 -38.273  0.00  0.00    -0.046 C 
BRANCH  14  15
ATOM     15  C   UNL A   1      40.350 -19.863 -36.775  0.00  0.00    -0.049 C 
BRANCH  15  17
ATOM     16  C   UNL A   1      41.612 -21.040 -34.913  0.00  0.00    -0.062 C 
ATOM     17  C   UNL A   1      40.563 -21.194 -36.022  0.00  0.00    -0.034 C 
BRANCH  17  18
ATOM     18  C   UNL A   1      39.250 -21.763 -35.467  0.00  0.00    +0.052 C 
BRANCH  18  19
ATOM     19  C   UNL A   1      39.231 -23.273 -35.192  0.00  0.00    +0.356 C 
ATOM     20  O   UNL A   1      39.038 -23.985 -36.219  0.00  0.00    -0.246 OA
ATOM     21  O   UNL A   1      39.427 -23.625 -33.997  0.00  0.00    -0.246 OA
ENDBRANCH  18  19
ENDBRANCH  17  18
ENDBRANCH  15  17
ENDBRANCH  14  15
ENDBRANCH   1  14
BRANCH   2  22
ATOM     22  C   UNL A   1      40.260 -22.833 -39.142  0.00  0.00    +0.066 C 
BRANCH  22  23
ATOM     23  O   UNL A   1      40.267 -24.044 -39.890  0.00  0.00    -0.391 OA
ATOM     24  H   UNL A   1      39.409 -24.487 -39.795  0.00  0.00    +0.000 HD
ENDBRANCH  22  23
ENDBRANCH   2  22
TORSDOF 7
ENDMDL
MODEL 6
REMARK VINA RESULT:    -6.292     18.935     21.585
REMARK INTER + INTRA:          -9.504
REMARK INTER:                  -8.456
REMARK INTRA:                  -1.048
REMARK UNBOUND:                -0.821
REMARK  Name = cpd292.pdb
REMARK  11 active torsions:
REMARK  status: ('A' for Active; 'I' for Inactive)
REMARK    1  A    between atoms: C_1  and  C_2
REMARK    2  A    between atoms: C_2  and  C_3
REMARK    3  A    between atoms: C_2  and  C_20
REMARK    4  A    between atoms: C_3  and  C_4
REMARK    5  A    between atoms: C_4  and  C_5
REMARK    6  A    between atoms: C_6  and  C_7
REMARK    7  A    between atoms: C_7  and  O_8
REMARK    8  A    between atoms: C_12  and  C_13
REMARK    9  A    between atoms: C_12  and  C_14
REMARK   10  A    between atoms: C_18  and  C_19
REMARK   11  A    between atoms: C_20  and  C_21
REMARK                            x       y       z     vdW  Elec       q    Type
REMARK                         _______ _______ _______ _____ _____    ______ ____
ROOT
ATOM      1  C   UNL A   1      46.389 -18.786 -38.734  0.00  0.00    -0.012 C 
ATOM      2  C   UNL A   1      46.975 -17.654 -39.595  0.00  0.00    -0.045 C 
ATOM      3  C   UNL A   1      47.255 -17.973 -40.860  0.00  0.00    -0.082 C 
ATOM      4  C   UNL A   1      46.757 -19.291 -41.332  0.00  0.00    -0.031 C 
ATOM      5  C   UNL A   1      45.465 -19.763 -40.449  0.00  0.00    -0.027 C 
ATOM      6  C   UNL A   1      44.587 -20.633 -41.623  0.00  0.00    -0.031 C 
ATOM      7  C   UNL A   1      45.327 -21.923 -42.058  0.00  0.00    -0.060 C 
ATOM      8  C   UNL A   1      44.287 -19.805 -42.907  0.00  0.00    -0.060 C 
ATOM      9  C   UNL A   1      43.182 -21.024 -41.094  0.00  0.00    -0.048 C 
ATOM     10  C   UNL A   1      43.248 -21.438 -39.653  0.00  0.00    -0.052 C 
ATOM     11  C   UNL A   1      44.106 -20.396 -38.956  0.00  0.00    -0.047 C 
ATOM     12  C   UNL A   1      45.778 -20.318 -39.679  0.00  0.00    -0.022 C 
ATOM     13  C   UNL A   1      46.091 -20.873 -38.908  0.00  0.00    -0.059 C 
ENDROOT
BRANCH   1  14
ATOM     14  C   UNL A   1      47.424 -19.002 -37.540  0.00  0.00    -0.046 C 
BRANCH  14  15
ATOM     15  C   UNL A   1      46.901 -18.418 -36.215  0.00  0.00    -0.049 C 
BRANCH  15  17
ATOM     16  C   UNL A   1      45.691 -20.302 -35.017  0.00  0.00    -0.062 C 
ATOM     17  C   UNL A   1      45.532 -18.965 -35.752  0.00  0.00    -0.034 C 
BRANCH  17  18
ATOM     18  C   UNL A   1      44.762 -17.951 -34.896  0.00  0.00    +0.052 C 
BRANCH  18  19
ATOM     19  C   UNL A   1      44.922 -18.091 -33.377  0.00  0.00    +0.356 C 
ATOM     20  O   UNL A   1      45.966 -17.551 -32.912  0.00  0.00    -0.246 OA
ATOM     21  O   UNL A   1      43.998 -18.702 -32.772  0.00  0.00    -0.246 OA
ENDBRANCH  18  19
ENDBRANCH  17  18
ENDBRANCH  15  17
ENDBRANCH  14  15
ENDBRANCH   1  14
BRANCH   2  22
ATOM     22  C   UNL A   1      47.130 -16.282 -38.989  0.00  0.00    +0.066 C 
BRANCH  22  23
ATOM     23  O   UNL A   1      48.184 -15.559 -39.614  0.00  0.00    -0.391 OA
ATOM     24  H   UNL A   1      47.817 -14.988 -40.307  0.00  0.00    +0.000 HD
ENDBRANCH  22  23
ENDBRANCH   2  22
TORSDOF 7
ENDMDL
MODEL 7
REMARK VINA RESULT:    -6.211      2.241      4.454
REMARK INTER + INTRA:          -9.392
REMARK INTER:                  -8.577
REMARK INTRA:                  -0.815
REMARK UNBOUND:                -0.821
REMARK  Name = cpd292.pdb
REMARK  11 active torsions:
REMARK  status: ('A' for Active; 'I' for Inactive)
REMARK    1  A    between atoms: C_1  and  C_2
REMARK    2  A    between atoms: C_2  and  C_3
REMARK    3  A    between atoms: C_2  and  C_20
REMARK    4  A    between atoms: C_3  and  C_4
REMARK    5  A    between atoms: C_4  and  C_5
REMARK    6  A    between atoms: C_6  and  C_7
REMARK    7  A    between atoms: C_7  and  O_8
REMARK    8  A    between atoms: C_12  and  C_13
REMARK    9  A    between atoms: C_12  and  C_14
REMARK   10  A    between atoms: C_18  and  C_19
REMARK   11  A    between atoms: C_20  and  C_21
REMARK                            x       y       z     vdW  Elec       q    Type
REMARK                         _______ _______ _______ _____ _____    ______ ____
ROOT
ATOM      1  C   UNL A   1      35.408 -36.012 -30.325  0.00  0.00    -0.012 C 
ATOM      2  C   UNL A   1      34.586 -36.301 -31.592  0.00  0.00    -0.045 C 
ATOM      3  C   UNL A   1      34.465 -37.588 -31.924  0.00  0.00    -0.082 C 
ATOM      4  C   UNL A   1      34.934 -38.575 -30.917  0.00  0.00    -0.031 C 
ATOM      5  C   UNL A   1      34.891 -37.925 -29.417  0.00  0.00    -0.027 C 
ATOM      6  C   UNL A   1      34.540 -39.310 -28.487  0.00  0.00    -0.031 C 
ATOM      7  C   UNL A   1      35.711 -40.324 -28.501  0.00  0.00    -0.060 C 
ATOM      8  C   UNL A   1      33.259 -40.060 -28.958  0.00  0.00    -0.060 C 
ATOM      9  C   UNL A   1      34.232 -38.931 -27.016  0.00  0.00    -0.048 C 
ATOM     10  C   UNL A   1      35.146 -37.840 -26.539  0.00  0.00    -0.052 C 
ATOM     11  C   UNL A   1      35.170 -36.800 -27.647  0.00  0.00    -0.047 C 
ATOM     12  C   UNL A   1      35.777 -37.509 -29.213  0.00  0.00    -0.022 C 
ATOM     13  C   UNL A   1      36.663 -37.093 -29.009  0.00  0.00    -0.059 C 
ENDROOT
BRANCH   1  14
ATOM     14  C   UNL A   1      36.635 -35.109 -30.802  0.00  0.00    -0.046 C 
BRANCH  14  15
ATOM     15  C   UNL A   1      37.376 -35.735 -31.998  0.00  0.00    -0.049 C 
BRANCH  15  17
ATOM     16  C   UNL A   1      39.293 -34.075 -31.869  0.00  0.00    -0.062 C 
ATOM     17  C   UNL A   1      38.910 -35.556 -31.986  0.00  0.00    -0.034 C 
BRANCH  17  18
ATOM     18  C   UNL A   1      39.582 -36.389 -30.886  0.00  0.00    +0.052 C 
BRANCH  18  19
ATOM     19  C   UNL A   1      41.040 -36.794 -31.143  0.00  0.00    +0.356 C 
ATOM     20  O   UNL A   1      41.745 -36.886 -30.097  0.00  0.00    -0.246 OA
ATOM     21  O   UNL A   1      41.358 -37.003 -32.345  0.00  0.00    -0.246 OA
ENDBRANCH  18  19
ENDBRANCH  17  18
ENDBRANCH  15  17
ENDBRANCH  14  15
ENDBRANCH   1  14
BRANCH   2  22
ATOM     22  C   UNL A   1      33.936 -35.151 -32.319  0.00  0.00    +0.066 C 
BRANCH  22  23
ATOM     23  O   UNL A   1      34.261 -35.167 -33.704  0.00  0.00    -0.391 OA
ATOM     24  H   UNL A   1      33.467 -34.972 -34.225  0.00  0.00    +0.000 HD
ENDBRANCH  22  23
ENDBRANCH   2  22
TORSDOF 7
ENDMDL
MODEL 8
REMARK VINA RESULT:    -6.171     19.907     22.086
REMARK INTER + INTRA:          -9.336
REMARK INTER:                  -8.108
REMARK INTRA:                  -1.228
REMARK UNBOUND:                -0.821
REMARK  Name = cpd292.pdb
REMARK  11 active torsions:
REMARK  status: ('A' for Active; 'I' for Inactive)
REMARK    1  A    between atoms: C_1  and  C_2
REMARK    2  A    between atoms: C_2  and  C_3
REMARK    3  A    between atoms: C_2  and  C_20
REMARK    4  A    between atoms: C_3  and  C_4
REMARK    5  A    between atoms: C_4  and  C_5
REMARK    6  A    between atoms: C_6  and  C_7
REMARK    7  A    between atoms: C_7  and  O_8
REMARK    8  A    between atoms: C_12  and  C_13
REMARK    9  A    between atoms: C_12  and  C_14
REMARK   10  A    between atoms: C_18  and  C_19
REMARK   11  A    between atoms: C_20  and  C_21
REMARK                            x       y       z     vdW  Elec       q    Type
REMARK                         _______ _______ _______ _____ _____    ______ ____
ROOT
ATOM      1  C   UNL A   1      46.074 -19.159 -38.959  0.00  0.00    -0.012 C 
ATOM      2  C   UNL A   1      46.532 -18.874 -37.519  0.00  0.00    -0.045 C 
ATOM      3  C   UNL A   1      47.158 -17.712 -37.329  0.00  0.00    -0.082 C 
ATOM      4  C   UNL A   1      47.128 -16.754 -38.465  0.00  0.00    -0.031 C 
ATOM      5  C   UNL A   1      45.834 -17.042 -39.421  0.00  0.00    -0.027 C 
ATOM      6  C   UNL A   1      45.488 -15.463 -39.963  0.00  0.00    -0.031 C 
ATOM      7  C   UNL A   1      46.608 -14.912 -40.881  0.00  0.00    -0.060 C 
ATOM      8  C   UNL A   1      45.283 -14.445 -38.803  0.00  0.00    -0.060 C 
ATOM      9  C   UNL A   1      44.146 -15.421 -40.739  0.00  0.00    -0.048 C 
ATOM     10  C   UNL A   1      43.992 -16.633 -41.610  0.00  0.00    -0.052 C 
ATOM     11  C   UNL A   1      44.381 -17.822 -40.748  0.00  0.00    -0.047 C 
ATOM     12  C   UNL A   1      46.097 -17.676 -40.148  0.00  0.00    -0.022 C 
ATOM     13  C   UNL A   1      46.360 -18.310 -40.876  0.00  0.00    -0.059 C 
ENDROOT
BRANCH   1  14
ATOM     14  C   UNL A   1      46.838 -20.489 -39.401  0.00  0.00    -0.046 C 
BRANCH  14  15
ATOM     15  C   UNL A   1      45.857 -21.613 -39.781  0.00  0.00    -0.049 C 
BRANCH  15  17
ATOM     16  C   UNL A   1      44.917 -21.557 -42.139  0.00  0.00    -0.062 C 
ATOM     17  C   UNL A   1      45.997 -22.147 -41.223  0.00  0.00    -0.034 C 
BRANCH  17  18
ATOM     18  C   UNL A   1      47.400 -21.906 -41.796  0.00  0.00    +0.052 C 
BRANCH  18  19
ATOM     19  C   UNL A   1      48.414 -23.042 -41.598  0.00  0.00    +0.356 C 
ATOM     20  O   UNL A   1      48.165 -24.084 -42.269  0.00  0.00    -0.246 OA
ATOM     21  O   UNL A   1      49.374 -22.802 -40.816  0.00  0.00    -0.246 OA
ENDBRANCH  18  19
ENDBRANCH  17  18
ENDBRANCH  15  17
ENDBRANCH  14  15
ENDBRANCH   1  14
BRANCH   2  22
ATOM     22  C   UNL A   1      46.196 -19.869 -36.436  0.00  0.00    +0.066 C 
BRANCH  22  23
ATOM     23  O   UNL A   1      47.371 -20.332 -35.781  0.00  0.00    -0.391 OA
ATOM     24  H   UNL A   1      47.966 -20.737 -36.432  0.00  0.00    +0.000 HD
ENDBRANCH  22  23
ENDBRANCH   2  22
TORSDOF 7
ENDMDL
MODEL 9
REMARK VINA RESULT:    -6.128     19.277     21.998
REMARK INTER + INTRA:          -9.277
REMARK INTER:                  -7.577
REMARK INTRA:                  -1.701
REMARK UNBOUND:                -0.821
REMARK  Name = cpd292.pdb
REMARK  11 active torsions:
REMARK  status: ('A' for Active; 'I' for Inactive)
REMARK    1  A    between atoms: C_1  and  C_2
REMARK    2  A    between atoms: C_2  and  C_3
REMARK    3  A    between atoms: C_2  and  C_20
REMARK    4  A    between atoms: C_3  and  C_4
REMARK    5  A    between atoms: C_4  and  C_5
REMARK    6  A    between atoms: C_6  and  C_7
REMARK    7  A    between atoms: C_7  and  O_8
REMARK    8  A    between atoms: C_12  and  C_13
REMARK    9  A    between atoms: C_12  and  C_14
REMARK   10  A    between atoms: C_18  and  C_19
REMARK   11  A    between atoms: C_20  and  C_21
REMARK                            x       y       z     vdW  Elec       q    Type
REMARK                         _______ _______ _______ _____ _____    ______ ____
ROOT
ATOM      1  C   UNL A   1      45.766 -18.140 -39.961  0.00  0.00    -0.012 C 
ATOM      2  C   UNL A   1      46.974 -17.263 -40.331  0.00  0.00    -0.045 C 
ATOM      3  C   UNL A   1      47.337 -16.362 -39.417  0.00  0.00    -0.082 C 
ATOM      4  C   UNL A   1      46.688 -16.475 -38.085  0.00  0.00    -0.031 C 
ATOM      5  C   UNL A   1      46.181 -18.007 -37.825  0.00  0.00    -0.027 C 
ATOM      6  C   UNL A   1      46.373 -18.117 -36.135  0.00  0.00    -0.031 C 
ATOM      7  C   UNL A   1      45.389 -17.187 -35.382  0.00  0.00    -0.060 C 
ATOM      8  C   UNL A   1      47.813 -17.768 -35.655  0.00  0.00    -0.060 C 
ATOM      9  C   UNL A   1      46.156 -19.571 -35.641  0.00  0.00    -0.048 C 
ATOM     10  C   UNL A   1      45.021 -20.223 -36.376  0.00  0.00    -0.052 C 
ATOM     11  C   UNL A   1      45.232 -19.898 -37.845  0.00  0.00    -0.047 C 
ATOM     12  C   UNL A   1      45.235 -18.099 -38.136  0.00  0.00    -0.022 C 
ATOM     13  C   UNL A   1      44.289 -18.190 -38.447  0.00  0.00    -0.059 C 
ENDROOT
BRANCH   1  14
ATOM     14  C   UNL A   1      44.660 -17.845 -41.072  0.00  0.00    -0.046 C 
BRANCH  14  15
ATOM     15  C   UNL A   1      44.467 -19.042 -42.022  0.00  0.00    -0.049 C 
BRANCH  15  17
ATOM     16  C   UNL A   1      43.527 -21.124 -40.913  0.00  0.00    -0.062 C 
ATOM     17  C   UNL A   1      44.797 -20.422 -41.412  0.00  0.00    -0.034 C 
BRANCH  17  18
ATOM     18  C   UNL A   1      45.576 -21.315 -42.386  0.00  0.00    +0.052 C 
BRANCH  18  19
ATOM     19  C   UNL A   1      46.726 -22.132 -41.780  0.00  0.00    +0.356 C 
ATOM     20  O   UNL A   1      47.874 -21.643 -41.982  0.00  0.00    -0.246 OA
ATOM     21  O   UNL A   1      46.397 -23.170 -41.143  0.00  0.00    -0.246 OA
ENDBRANCH  18  19
ENDBRANCH  17  18
ENDBRANCH  15  17
ENDBRANCH  14  15
ENDBRANCH   1  14
BRANCH   2  22
ATOM     22  C   UNL A   1      47.687 -17.515 -41.635  0.00  0.00    +0.066 C 
BRANCH  22  23
ATOM     23  O   UNL A   1      48.250 -18.821 -41.670  0.00  0.00    -0.391 OA
ATOM     24  H   UNL A   1      47.890 -19.308 -42.427  0.00  0.00    +0.000 HD
ENDBRANCH  22  23
ENDBRANCH   2  22
TORSDOF 7
ENDMDL
MODEL 10
REMARK VINA RESULT:    -6.012      2.366      4.356
REMARK INTER + INTRA:          -9.117
REMARK INTER:                  -8.476
REMARK INTRA:                  -0.641
REMARK UNBOUND:                -0.821
REMARK  Name = cpd292.pdb
REMARK  11 active torsions:
REMARK  status: ('A' for Active; 'I' for Inactive)
REMARK    1  A    between atoms: C_1  and  C_2
REMARK    2  A    between atoms: C_2  and  C_3
REMARK    3  A    between atoms: C_2  and  C_20
REMARK    4  A    between atoms: C_3  and  C_4
REMARK    5  A    between atoms: C_4  and  C_5
REMARK    6  A    between atoms: C_6  and  C_7
REMARK    7  A    between atoms: C_7  and  O_8
REMARK    8  A    between atoms: C_12  and  C_13
REMARK    9  A    between atoms: C_12  and  C_14
REMARK   10  A    between atoms: C_18  and  C_19
REMARK   11  A    between atoms: C_20  and  C_21
REMARK                            x       y       z     vdW  Elec       q    Type
REMARK                         _______ _______ _______ _____ _____    ______ ____
ROOT
ATOM      1  C   UNL A   1      34.407 -34.423 -30.956  0.00  0.00    -0.012 C 
ATOM      2  C   UNL A   1      33.790 -35.794 -31.282  0.00  0.00    -0.045 C 
ATOM      3  C   UNL A   1      32.776 -36.173 -30.502  0.00  0.00    -0.082 C 
ATOM      4  C   UNL A   1      32.229 -35.140 -29.583  0.00  0.00    -0.031 C 
ATOM      5  C   UNL A   1      32.533 -33.642 -30.163  0.00  0.00    -0.027 C 
ATOM      6  C   UNL A   1      31.163 -32.804 -29.593  0.00  0.00    -0.031 C 
ATOM      7  C   UNL A   1      31.158 -32.693 -28.047  0.00  0.00    -0.060 C 
ATOM      8  C   UNL A   1      29.817 -33.458 -30.024  0.00  0.00    -0.060 C 
ATOM      9  C   UNL A   1      31.093 -31.375 -30.192  0.00  0.00    -0.048 C 
ATOM     10  C   UNL A   1      32.458 -30.754 -30.260  0.00  0.00    -0.052 C 
ATOM     11  C   UNL A   1      33.375 -31.821 -30.834  0.00  0.00    -0.047 C 
ATOM     12  C   UNL A   1      33.399 -33.313 -29.788  0.00  0.00    -0.022 C 
ATOM     13  C   UNL A   1      34.266 -32.984 -29.412  0.00  0.00    -0.059 C 
ENDROOT
BRANCH   1  14
ATOM     14  C   UNL A   1      35.933 -34.712 -30.590  0.00  0.00    -0.046 C 
BRANCH  14  15
ATOM     15  C   UNL A   1      36.066 -35.788 -29.497  0.00  0.00    -0.049 C 
BRANCH  15  17
ATOM     16  C   UNL A   1      38.336 -36.387 -30.463  0.00  0.00    -0.062 C 
ATOM     17  C   UNL A   1      37.055 -36.930 -29.817  0.00  0.00    -0.034 C 
BRANCH  17  18
ATOM     18  C   UNL A   1      37.376 -37.783 -28.582  0.00  0.00    +0.052 C 
BRANCH  18  19
ATOM     19  C   UNL A   1      36.278 -38.755 -28.131  0.00  0.00    +0.356 C 
ATOM     20  O   UNL A   1      36.145 -39.770 -28.873  0.00  0.00    -0.246 OA
ATOM     21  O   UNL A   1      35.657 -38.446 -27.077  0.00  0.00    -0.246 OA
ENDBRANCH  18  19
ENDBRANCH  17  18
ENDBRANCH  15  17
ENDBRANCH  14  15
ENDBRANCH   1  14
BRANCH   2  22
ATOM     22  C   UNL A   1      34.313 -36.567 -32.466  0.00  0.00    +0.066 C 
BRANCH  22  23
ATOM     23  O   UNL A   1      34.517 -35.716 -33.587  0.00  0.00    -0.391 OA
ATOM     24  H   UNL A   1      33.744 -35.762 -34.172  0.00  0.00    +0.000 HD
ENDBRANCH  22  23
ENDBRANCH   2  22
TORSDOF 7
ENDMDL
MODEL 11
REMARK VINA RESULT:    -6.006     16.457     19.514
REMARK INTER + INTRA:          -9.109
REMARK INTER:                  -7.879
REMARK INTRA:                  -1.230
REMARK UNBOUND:                -0.821
REMARK  Name = cpd292.pdb
REMARK  11 active torsions:
REMARK  status: ('A' for Active; 'I' for Inactive)
REMARK    1  A    between atoms: C_1  and  C_2
REMARK    2  A    between atoms: C_2  and  C_3
REMARK    3  A    between atoms: C_2  and  C_20
REMARK    4  A    between atoms: C_3  and  C_4
REMARK    5  A    between atoms: C_4  and  C_5
REMARK    6  A    between atoms: C_6  and  C_7
REMARK    7  A    between atoms: C_7  and  O_8
REMARK    8  A    between atoms: C_12  and  C_13
REMARK    9  A    between atoms: C_12  and  C_14
REMARK   10  A    between atoms: C_18  and  C_19
REMARK   11  A    between atoms: C_20  and  C_21
REMARK                            x       y       z     vdW  Elec       q    Type
REMARK                         _______ _______ _______ _____ _____    ______ ____
ROOT
ATOM      1  C   UNL A   1      42.886 -21.164 -38.529  0.00  0.00    -0.012 C 
ATOM      2  C   UNL A   1      41.862 -21.939 -39.377  0.00  0.00    -0.045 C 
ATOM      3  C   UNL A   1      41.903 -21.707 -40.690  0.00  0.00    -0.082 C 
ATOM      4  C   UNL A   1      43.064 -20.923 -41.185  0.00  0.00    -0.031 C 
ATOM      5  C   UNL A   1      44.329 -21.067 -40.160  0.00  0.00    -0.027 C 
ATOM      6  C   UNL A   1      45.632 -20.959 -41.255  0.00  0.00    -0.031 C 
ATOM      7  C   UNL A   1      45.732 -19.551 -41.893  0.00  0.00    -0.060 C 
ATOM      8  C   UNL A   1      45.551 -21.998 -42.412  0.00  0.00    -0.060 C 
ATOM      9  C   UNL A   1      46.978 -21.282 -40.555  0.00  0.00    -0.048 C 
ATOM     10  C   UNL A   1      47.021 -20.690 -39.176  0.00  0.00    -0.052 C 
ATOM     11  C   UNL A   1      45.685 -21.023 -38.535  0.00  0.00    -0.047 C 
ATOM     12  C   UNL A   1      44.296 -20.326 -39.489  0.00  0.00    -0.022 C 
ATOM     13  C   UNL A   1      44.263 -19.585 -38.819  0.00  0.00    -0.059 C 
ENDROOT
BRANCH   1  14
ATOM     14  C   UNL A   1      42.028 -20.273 -37.522  0.00  0.00    -0.046 C 
BRANCH  14  15
ATOM     15  C   UNL A   1      42.113 -20.798 -36.077  0.00  0.00    -0.049 C 
BRANCH  15  17
ATOM     16  C   UNL A   1      42.313 -19.877 -33.719  0.00  0.00    -0.062 C 
ATOM     17  C   UNL A   1      42.953 -19.933 -35.113  0.00  0.00    -0.034 C 
BRANCH  17  18
ATOM     18  C   UNL A   1      44.411 -20.405 -35.033  0.00  0.00    +0.052 C 
BRANCH  18  19
ATOM     19  C   UNL A   1      45.482 -19.315 -35.183  0.00  0.00    +0.356 C 
ATOM     20  O   UNL A   1      46.662 -19.757 -35.280  0.00  0.00    -0.246 OA
ATOM     21  O   UNL A   1      45.066 -18.124 -35.213  0.00  0.00    -0.246 OA
ENDBRANCH  18  19
ENDBRANCH  17  18
ENDBRANCH  15  17
ENDBRANCH  14  15
ENDBRANCH   1  14
BRANCH   2  22
ATOM     22  C   UNL A   1      40.950 -22.927 -38.696  0.00  0.00    +0.066 C 
BRANCH  22  23
ATOM     23  O   UNL A   1      40.352 -23.810 -39.638  0.00  0.00    -0.391 OA
ATOM     24  H   UNL A   1      40.028 -24.601 -39.179  0.00  0.00    +0.000 HD
ENDBRANCH  22  23
ENDBRANCH   2  22
TORSDOF 7
ENDMDL
MODEL 12
REMARK VINA RESULT:    -5.996     15.353     17.886
REMARK INTER + INTRA:          -9.095
REMARK INTER:                  -8.418
REMARK INTRA:                  -0.677
REMARK UNBOUND:                -0.821
REMARK  Name = cpd292.pdb
REMARK  11 active torsions:
REMARK  status: ('A' for Active; 'I' for Inactive)
REMARK    1  A    between atoms: C_1  and  C_2
REMARK    2  A    between atoms: C_2  and  C_3
REMARK    3  A    between atoms: C_2  and  C_20
REMARK    4  A    between atoms: C_3  and  C_4
REMARK    5  A    between atoms: C_4  and  C_5
REMARK    6  A    between atoms: C_6  and  C_7
REMARK    7  A    between atoms: C_7  and  O_8
REMARK    8  A    between atoms: C_12  and  C_13
REMARK    9  A    between atoms: C_12  and  C_14
REMARK   10  A    between atoms: C_18  and  C_19
REMARK   11  A    between atoms: C_20  and  C_21
REMARK                            x       y       z     vdW  Elec       q    Type
REMARK                         _______ _______ _______ _____ _____    ______ ____
ROOT
ATOM      1  C   UNL A   1      43.323 -20.738 -36.300  0.00  0.00    -0.012 C 
ATOM      2  C   UNL A   1      44.020 -20.227 -35.028  0.00  0.00    -0.045 C 
ATOM      3  C   UNL A   1      43.244 -19.570 -34.165  0.00  0.00    -0.082 C 
ATOM      4  C   UNL A   1      41.782 -19.617 -34.426  0.00  0.00    -0.031 C 
ATOM      5  C   UNL A   1      41.400 -20.948 -35.295  0.00  0.00    -0.027 C 
ATOM      6  C   UNL A   1      39.840 -21.278 -34.691  0.00  0.00    -0.031 C 
ATOM      7  C   UNL A   1      38.824 -20.177 -35.089  0.00  0.00    -0.060 C 
ATOM      8  C   UNL A   1      39.797 -21.422 -33.142  0.00  0.00    -0.060 C 
ATOM      9  C   UNL A   1      39.318 -22.643 -35.209  0.00  0.00    -0.048 C 
ATOM     10  C   UNL A   1      39.696 -22.852 -36.647  0.00  0.00    -0.052 C 
ATOM     11  C   UNL A   1      41.159 -22.460 -36.756  0.00  0.00    -0.047 C 
ATOM     12  C   UNL A   1      41.422 -20.723 -36.269  0.00  0.00    -0.022 C 
ATOM     13  C   UNL A   1      41.444 -20.497 -37.243  0.00  0.00    -0.059 C 
ENDROOT
BRANCH   1  14
ATOM     14  C   UNL A   1      44.061 -20.018 -37.518  0.00  0.00    -0.046 C 
BRANCH  14  15
ATOM     15  C   UNL A   1      44.497 -21.024 -38.599  0.00  0.00    -0.049 C 
BRANCH  15  17
ATOM     16  C   UNL A   1      46.781 -19.958 -38.288  0.00  0.00    -0.062 C 
ATOM     17  C   UNL A   1      45.870 -20.738 -39.245  0.00  0.00    -0.034 C 
BRANCH  17  18
ATOM     18  C   UNL A   1      46.555 -22.018 -39.741  0.00  0.00    +0.052 C 
BRANCH  18  19
ATOM     19  C   UNL A   1      46.755 -22.132 -41.259  0.00  0.00    +0.356 C 
ATOM     20  O   UNL A   1      47.679 -21.401 -41.718  0.00  0.00    -0.246 OA
ATOM     21  O   UNL A   1      45.999 -22.943 -41.862  0.00  0.00    -0.246 OA
ENDBRANCH  18  19
ENDBRANCH  17  18
ENDBRANCH  15  17
ENDBRANCH  14  15
ENDBRANCH   1  14
BRANCH   2  22
ATOM     22  C   UNL A   1      45.478 -20.548 -34.816  0.00  0.00    +0.066 C 
BRANCH  22  23
ATOM     23  O   UNL A   1      45.666 -21.350 -33.656  0.00  0.00    -0.391 OA
ATOM     24  H   UNL A   1      45.364 -22.254 -33.836  0.00  0.00    +0.000 HD
ENDBRANCH  22  23
ENDBRANCH   2  22
TORSDOF 7
ENDMDL
MODEL 13
REMARK VINA RESULT:    -5.958     24.735     27.131
REMARK INTER + INTRA:          -9.042
REMARK INTER:                  -7.938
REMARK INTRA:                  -1.104
REMARK UNBOUND:                -0.821
REMARK  Name = cpd292.pdb
REMARK  11 active torsions:
REMARK  status: ('A' for Active; 'I' for Inactive)
REMARK    1  A    between atoms: C_1  and  C_2
REMARK    2  A    between atoms: C_2  and  C_3
REMARK    3  A    between atoms: C_2  and  C_20
REMARK    4  A    between atoms: C_3  and  C_4
REMARK    5  A    between atoms: C_4  and  C_5
REMARK    6  A    between atoms: C_6  and  C_7
REMARK    7  A    between atoms: C_7  and  O_8
REMARK    8  A    between atoms: C_12  and  C_13
REMARK    9  A    between atoms: C_12  and  C_14
REMARK   10  A    between atoms: C_18  and  C_19
REMARK   11  A    between atoms: C_20  and  C_21
REMARK                            x       y       z     vdW  Elec       q    Type
REMARK                         _______ _______ _______ _____ _____    ______ ____
ROOT
ATOM      1  C   UNL A   1      46.415 -33.795 -55.244  0.00  0.00    -0.012 C 
ATOM      2  C   UNL A   1      46.715 -33.527 -53.760  0.00  0.00    -0.045 C 
ATOM      3  C   UNL A   1      45.804 -33.973 -52.894  0.00  0.00    -0.082 C 
ATOM      4  C   UNL A   1      44.750 -34.862 -53.446  0.00  0.00    -0.031 C 
ATOM      5  C   UNL A   1      45.282 -35.604 -54.802  0.00  0.00    -0.027 C 
ATOM      6  C   UNL A   1      44.447 -37.087 -54.694  0.00  0.00    -0.031 C 
ATOM      7  C   UNL A   1      42.917 -36.899 -54.858  0.00  0.00    -0.060 C 
ATOM      8  C   UNL A   1      44.691 -37.834 -53.350  0.00  0.00    -0.060 C 
ATOM      9  C   UNL A   1      44.941 -38.085 -55.773  0.00  0.00    -0.048 C 
ATOM     10  C   UNL A   1      45.193 -37.386 -57.077  0.00  0.00    -0.052 C 
ATOM     11  C   UNL A   1      45.972 -36.127 -56.733  0.00  0.00    -0.047 C 
ATOM     12  C   UNL A   1      45.034 -35.052 -55.599  0.00  0.00    -0.022 C 
ATOM     13  C   UNL A   1      44.786 -34.500 -56.395  0.00  0.00    -0.059 C 
ENDROOT
BRANCH   1  14
ATOM     14  C   UNL A   1      46.320 -32.359 -55.933  0.00  0.00    -0.046 C 
BRANCH  14  15
ATOM     15  C   UNL A   1      47.516 -32.091 -56.865  0.00  0.00    -0.049 C 
BRANCH  15  17
ATOM     16  C   UNL A   1      49.804 -31.035 -57.176  0.00  0.00    -0.062 C 
ATOM     17  C   UNL A   1      48.494 -30.999 -56.378  0.00  0.00    -0.034 C 
BRANCH  17  18
ATOM     18  C   UNL A   1      47.864 -29.600 -56.411  0.00  0.00    +0.052 C 
BRANCH  18  19
ATOM     19  C   UNL A   1      47.632 -28.933 -55.049  0.00  0.00    +0.356 C 
ATOM     20  O   UNL A   1      48.475 -29.252 -54.163  0.00  0.00    -0.246 OA
ATOM     21  O   UNL A   1      46.653 -28.140 -54.975  0.00  0.00    -0.246 OA
ENDBRANCH  18  19
ENDBRANCH  17  18
ENDBRANCH  15  17
ENDBRANCH  14  15
ENDBRANCH   1  14
BRANCH   2  22
ATOM     22  C   UNL A   1      48.012 -32.853 -53.388  0.00  0.00    +0.066 C 
BRANCH  22  23
ATOM     23  O   UNL A   1      47.782 -31.691 -52.601  0.00  0.00    -0.391 OA
ATOM     24  H   UNL A   1      48.194 -31.804 -51.730  0.00  0.00    +0.000 HD
ENDBRANCH  22  23
ENDBRANCH   2  22
TORSDOF 7
ENDMDL
MODEL 14
REMARK VINA RESULT:    -5.945      2.321      5.496
REMARK INTER + INTRA:          -9.024
REMARK INTER:                  -8.314
REMARK INTRA:                  -0.709
REMARK UNBOUND:                -0.821
REMARK  Name = cpd292.pdb
REMARK  11 active torsions:
REMARK  status: ('A' for Active; 'I' for Inactive)
REMARK    1  A    between atoms: C_1  and  C_2
REMARK    2  A    between atoms: C_2  and  C_3
REMARK    3  A    between atoms: C_2  and  C_20
REMARK    4  A    between atoms: C_3  and  C_4
REMARK    5  A    between atoms: C_4  and  C_5
REMARK    6  A    between atoms: C_6  and  C_7
REMARK    7  A    between atoms: C_7  and  O_8
REMARK    8  A    between atoms: C_12  and  C_13
REMARK    9  A    between atoms: C_12  and  C_14
REMARK   10  A    between atoms: C_18  and  C_19
REMARK   11  A    between atoms: C_20  and  C_21
REMARK                            x       y       z     vdW  Elec       q    Type
REMARK                         _______ _______ _______ _____ _____    ______ ____
ROOT
ATOM      1  C   UNL A   1      36.160 -37.678 -29.626  0.00  0.00    -0.012 C 
ATOM      2  C   UNL A   1      37.594 -37.237 -29.965  0.00  0.00    -0.045 C 
ATOM      3  C   UNL A   1      37.704 -36.272 -30.880  0.00  0.00    -0.082 C 
ATOM      4  C   UNL A   1      36.442 -35.595 -31.277  0.00  0.00    -0.031 C 
ATOM      5  C   UNL A   1      35.330 -35.715 -30.086  0.00  0.00    -0.027 C 
ATOM      6  C   UNL A   1      34.488 -34.248 -30.296  0.00  0.00    -0.031 C 
ATOM      7  C   UNL A   1      33.708 -34.218 -31.635  0.00  0.00    -0.060 C 
ATOM      8  C   UNL A   1      35.414 -32.997 -30.260  0.00  0.00    -0.060 C 
ATOM      9  C   UNL A   1      33.488 -34.006 -29.135  0.00  0.00    -0.048 C 
ATOM     10  C   UNL A   1      32.810 -35.284 -28.737  0.00  0.00    -0.052 C 
ATOM     11  C   UNL A   1      33.907 -36.331 -28.644  0.00  0.00    -0.047 C 
ATOM     12  C   UNL A   1      34.772 -36.532 -30.237  0.00  0.00    -0.022 C 
ATOM     13  C   UNL A   1      34.215 -37.348 -30.388  0.00  0.00    -0.059 C 
ENDROOT
BRANCH   1  14
ATOM     14  C   UNL A   1      36.081 -39.225 -30.008  0.00  0.00    -0.046 C 
BRANCH  14  15
ATOM     15  C   UNL A   1      35.912 -40.115 -28.763  0.00  0.00    -0.049 C 
BRANCH  15  17
ATOM     16  C   UNL A   1      34.370 -41.843 -29.803  0.00  0.00    -0.062 C 
ATOM     17  C   UNL A   1      34.554 -40.842 -28.655  0.00  0.00    -0.034 C 
BRANCH  17  18
ATOM     18  C   UNL A   1      34.367 -41.522 -27.293  0.00  0.00    +0.052 C 
BRANCH  18  19
ATOM     19  C   UNL A   1      35.142 -42.830 -27.080  0.00  0.00    +0.356 C 
ATOM     20  O   UNL A   1      36.361 -42.671 -26.788  0.00  0.00    -0.246 OA
ATOM     21  O   UNL A   1      34.479 -43.897 -27.201  0.00  0.00    -0.246 OA
ENDBRANCH  18  19
ENDBRANCH  17  18
ENDBRANCH  15  17
ENDBRANCH  14  15
ENDBRANCH   1  14
BRANCH   2  22
ATOM     22  C   UNL A   1      38.745 -37.860 -29.216  0.00  0.00    +0.066 C 
BRANCH  22  23
ATOM     23  O   UNL A   1      38.439 -38.014 -27.835  0.00  0.00    -0.391 OA
ATOM     24  H   UNL A   1      39.176 -38.457 -27.388  0.00  0.00    +0.000 HD
ENDBRANCH  22  23
ENDBRANCH   2  22
TORSDOF 7
ENDMDL
MODEL 15
REMARK VINA RESULT:    -5.921      2.847      5.889
REMARK INTER + INTRA:          -8.992
REMARK INTER:                  -7.711
REMARK INTRA:                  -1.281
REMARK UNBOUND:                -0.821
REMARK  Name = cpd292.pdb
REMARK  11 active torsions:
REMARK  status: ('A' for Active; 'I' for Inactive)
REMARK    1  A    between atoms: C_1  and  C_2
REMARK    2  A    between atoms: C_2  and  C_3
REMARK    3  A    between atoms: C_2  and  C_20
REMARK    4  A    between atoms: C_3  and  C_4
REMARK    5  A    between atoms: C_4  and  C_5
REMARK    6  A    between atoms: C_6  and  C_7
REMARK    7  A    between atoms: C_7  and  O_8
REMARK    8  A    between atoms: C_12  and  C_13
REMARK    9  A    between atoms: C_12  and  C_14
REMARK   10  A    between atoms: C_18  and  C_19
REMARK   11  A    between atoms: C_20  and  C_21
REMARK                            x       y       z     vdW  Elec       q    Type
REMARK                         _______ _______ _______ _____ _____    ______ ____
ROOT
ATOM      1  C   UNL A   1      36.282 -35.609 -30.769  0.00  0.00    -0.012 C 
ATOM      2  C   UNL A   1      37.768 -35.946 -30.979  0.00  0.00    -0.045 C 
ATOM      3  C   UNL A   1      38.286 -36.836 -30.132  0.00  0.00    -0.082 C 
ATOM      4  C   UNL A   1      37.321 -37.551 -29.256  0.00  0.00    -0.031 C 
ATOM      5  C   UNL A   1      35.838 -37.576 -29.942  0.00  0.00    -0.027 C 
ATOM      6  C   UNL A   1      35.252 -39.070 -29.364  0.00  0.00    -0.031 C 
ATOM      7  C   UNL A   1      35.035 -39.048 -27.830  0.00  0.00    -0.060 C 
ATOM      8  C   UNL A   1      36.191 -40.268 -29.692  0.00  0.00    -0.060 C 
ATOM      9  C   UNL A   1      33.912 -39.446 -30.047  0.00  0.00    -0.048 C 
ATOM     10  C   UNL A   1      33.037 -38.239 -30.216  0.00  0.00    -0.052 C 
ATOM     11  C   UNL A   1      33.936 -37.143 -30.764  0.00  0.00    -0.047 C 
ATOM     12  C   UNL A   1      35.316 -36.783 -29.628  0.00  0.00    -0.022 C 
ATOM     13  C   UNL A   1      34.795 -35.990 -29.313  0.00  0.00    -0.059 C 
ENDROOT
BRANCH   1  14
ATOM     14  C   UNL A   1      36.232 -34.045 -30.454  0.00  0.00    -0.046 C 
BRANCH  14  15
ATOM     15  C   UNL A   1      35.668 -33.240 -31.640  0.00  0.00    -0.049 C 
BRANCH  15  17
ATOM     16  C   UNL A   1      33.207 -33.669 -32.094  0.00  0.00    -0.062 C 
ATOM     17  C   UNL A   1      34.226 -32.720 -31.451  0.00  0.00    -0.034 C 
BRANCH  17  18
ATOM     18  C   UNL A   1      33.890 -32.464 -29.976  0.00  0.00    +0.052 C 
BRANCH  18  19
ATOM     19  C   UNL A   1      32.492 -31.898 -29.691  0.00  0.00    +0.356 C 
ATOM     20  O   UNL A   1      32.273 -30.768 -30.212  0.00  0.00    -0.246 OA
ATOM     21  O   UNL A   1      31.728 -32.624 -28.997  0.00  0.00    -0.246 OA
ENDBRANCH  18  19
ENDBRANCH  17  18
ENDBRANCH  15  17
ENDBRANCH  14  15
ENDBRANCH   1  14
BRANCH   2  22
ATOM     22  C   UNL A   1      38.503 -35.314 -32.135  0.00  0.00    +0.066 C 
BRANCH  22  23
ATOM     23  O   UNL A   1      39.537 -34.451 -31.677  0.00  0.00    -0.391 OA
ATOM     24  H   UNL A   1      40.384 -34.922 -31.699  0.00  0.00    +0.000 HD
ENDBRANCH  22  23
ENDBRANCH   2  22
TORSDOF 7
ENDMDL
MODEL 16
REMARK VINA RESULT:    -5.893     18.113     20.581
REMARK INTER + INTRA:          -8.953
REMARK INTER:                  -7.735
REMARK INTRA:                  -1.218
REMARK UNBOUND:                -0.821
REMARK  Name = cpd292.pdb
REMARK  11 active torsions:
REMARK  status: ('A' for Active; 'I' for Inactive)
REMARK    1  A    between atoms: C_1  and  C_2
REMARK    2  A    between atoms: C_2  and  C_3
REMARK    3  A    between atoms: C_2  and  C_20
REMARK    4  A    between atoms: C_3  and  C_4
REMARK    5  A    between atoms: C_4  and  C_5
REMARK    6  A    between atoms: C_6  and  C_7
REMARK    7  A    between atoms: C_7  and  O_8
REMARK    8  A    between atoms: C_12  and  C_13
REMARK    9  A    between atoms: C_12  and  C_14
REMARK   10  A    between atoms: C_18  and  C_19
REMARK   11  A    between atoms: C_20  and  C_21
REMARK                            x       y       z     vdW  Elec       q    Type
REMARK                         _______ _______ _______ _____ _____    ______ ____
ROOT
ATOM      1  C   UNL A   1      44.647 -19.995 -38.257  0.00  0.00    -0.012 C 
ATOM      2  C   UNL A   1      43.503 -20.406 -37.313  0.00  0.00    -0.045 C 
ATOM      3  C   UNL A   1      43.796 -20.403 -36.012  0.00  0.00    -0.082 C 
ATOM      4  C   UNL A   1      45.095 -19.789 -35.630  0.00  0.00    -0.031 C 
ATOM      5  C   UNL A   1      45.568 -18.707 -36.760  0.00  0.00    -0.027 C 
ATOM      6  C   UNL A   1      46.396 -17.580 -35.784  0.00  0.00    -0.031 C 
ATOM      7  C   UNL A   1      47.686 -18.185 -35.175  0.00  0.00    -0.060 C 
ATOM      8  C   UNL A   1      45.533 -17.030 -34.611  0.00  0.00    -0.060 C 
ATOM      9  C   UNL A   1      46.778 -16.314 -36.594  0.00  0.00    -0.048 C 
ATOM     10  C   UNL A   1      47.228 -16.678 -37.979  0.00  0.00    -0.052 C 
ATOM     11  C   UNL A   1      46.216 -17.686 -38.497  0.00  0.00    -0.047 C 
ATOM     12  C   UNL A   1      46.146 -19.166 -37.434  0.00  0.00    -0.022 C 
ATOM     13  C   UNL A   1      46.724 -19.626 -38.108  0.00  0.00    -0.059 C 
ENDROOT
BRANCH   1  14
ATOM     14  C   UNL A   1      44.908 -21.258 -39.197  0.00  0.00    -0.046 C 
BRANCH  14  15
ATOM     15  C   UNL A   1      44.270 -21.078 -40.587  0.00  0.00    -0.049 C 
BRANCH  15  17
ATOM     16  C   UNL A   1      45.353 -19.128 -41.800  0.00  0.00    -0.062 C 
ATOM     17  C   UNL A   1      45.247 -20.656 -41.706  0.00  0.00    -0.034 C 
BRANCH  17  18
ATOM     18  C   UNL A   1      46.631 -21.298 -41.541  0.00  0.00    +0.052 C 
BRANCH  18  19
ATOM     19  C   UNL A   1      46.715 -22.804 -41.825  0.00  0.00    +0.356 C 
ATOM     20  O   UNL A   1      46.076 -23.175 -42.851  0.00  0.00    -0.246 OA
ATOM     21  O   UNL A   1      47.416 -23.484 -41.027  0.00  0.00    -0.246 OA
ENDBRANCH  18  19
ENDBRANCH  17  18
ENDBRANCH  15  17
ENDBRANCH  14  15
ENDBRANCH   1  14
BRANCH   2  22
ATOM     22  C   UNL A   1      42.149 -20.715 -37.900  0.00  0.00    +0.066 C 
BRANCH  22  23
ATOM     23  O   UNL A   1      41.786 -22.072 -37.672  0.00  0.00    -0.391 OA
ATOM     24  H   UNL A   1      41.050 -22.108 -37.042  0.00  0.00    +0.000 HD
ENDBRANCH  22  23
ENDBRANCH   2  22
TORSDOF 7
ENDMDL
MODEL 17
REMARK VINA RESULT:    -5.883      3.502      6.984
REMARK INTER + INTRA:          -8.939
REMARK INTER:                  -7.543
REMARK INTRA:                  -1.395
REMARK UNBOUND:                -0.821
REMARK  Name = cpd292.pdb
REMARK  11 active torsions:
REMARK  status: ('A' for Active; 'I' for Inactive)
REMARK    1  A    between atoms: C_1  and  C_2
REMARK    2  A    between atoms: C_2  and  C_3
REMARK    3  A    between atoms: C_2  and  C_20
REMARK    4  A    between atoms: C_3  and  C_4
REMARK    5  A    between atoms: C_4  and  C_5
REMARK    6  A    between atoms: C_6  and  C_7
REMARK    7  A    between atoms: C_7  and  O_8
REMARK    8  A    between atoms: C_12  and  C_13
REMARK    9  A    between atoms: C_12  and  C_14
REMARK   10  A    between atoms: C_18  and  C_19
REMARK   11  A    between atoms: C_20  and  C_21
REMARK                            x       y       z     vdW  Elec       q    Type
REMARK                         _______ _______ _______ _____ _____    ______ ____
ROOT
ATOM      1  C   UNL A   1      33.859 -34.651 -29.770  0.00  0.00    -0.012 C 
ATOM      2  C   UNL A   1      34.785 -34.058 -30.846  0.00  0.00    -0.045 C 
ATOM      3  C   UNL A   1      36.044 -34.496 -30.831  0.00  0.00    -0.082 C 
ATOM      4  C   UNL A   1      36.329 -35.654 -29.945  0.00  0.00    -0.031 C 
ATOM      5  C   UNL A   1      34.969 -36.524 -29.687  0.00  0.00    -0.027 C 
ATOM      6  C   UNL A   1      35.626 -38.089 -29.530  0.00  0.00    -0.031 C 
ATOM      7  C   UNL A   1      36.492 -38.225 -28.252  0.00  0.00    -0.060 C 
ATOM      8  C   UNL A   1      36.505 -38.513 -30.744  0.00  0.00    -0.060 C 
ATOM      9  C   UNL A   1      34.508 -39.162 -29.485  0.00  0.00    -0.048 C 
ATOM     10  C   UNL A   1      33.338 -38.685 -28.675  0.00  0.00    -0.052 C 
ATOM     11  C   UNL A   1      33.065 -37.261 -29.131  0.00  0.00    -0.047 C 
ATOM     12  C   UNL A   1      34.514 -36.187 -28.863  0.00  0.00    -0.022 C 
ATOM     13  C   UNL A   1      34.059 -35.850 -28.039  0.00  0.00    -0.059 C 
ENDROOT
BRANCH   1  14
ATOM     14  C   UNL A   1      33.366 -33.412 -28.892  0.00  0.00    -0.046 C 
BRANCH  14  15
ATOM     15  C   UNL A   1      31.844 -33.202 -29.002  0.00  0.00    -0.049 C 
BRANCH  15  17
ATOM     16  C   UNL A   1      30.013 -34.944 -29.247  0.00  0.00    -0.062 C 
ATOM     17  C   UNL A   1      31.117 -34.162 -29.969  0.00  0.00    -0.034 C 
BRANCH  17  18
ATOM     18  C   UNL A   1      30.564 -33.434 -31.202  0.00  0.00    +0.052 C 
BRANCH  18  19
ATOM     19  C   UNL A   1      30.206 -31.954 -31.006  0.00  0.00    +0.356 C 
ATOM     20  O   UNL A   1      31.017 -31.148 -31.545  0.00  0.00    -0.246 OA
ATOM     21  O   UNL A   1      29.150 -31.716 -30.358  0.00  0.00    -0.246 OA
ENDBRANCH  18  19
ENDBRANCH  17  18
ENDBRANCH  15  17
ENDBRANCH  14  15
ENDBRANCH   1  14
BRANCH   2  22
ATOM     22  C   UNL A   1      34.209 -33.097 -31.855  0.00  0.00    +0.066 C 
BRANCH  22  23
ATOM     23  O   UNL A   1      35.046 -31.958 -32.017  0.00  0.00    -0.391 OA
ATOM     24  H   UNL A   1      35.857 -32.076 -31.497  0.00  0.00    +0.000 HD
ENDBRANCH  22  23
ENDBRANCH   2  22
TORSDOF 7
ENDMDL
MODEL 18
REMARK VINA RESULT:    -5.873     16.704     18.846
REMARK INTER + INTRA:          -8.925
REMARK INTER:                  -7.829
REMARK INTRA:                  -1.096
REMARK UNBOUND:                -0.821
REMARK  Name = cpd292.pdb
REMARK  11 active torsions:
REMARK  status: ('A' for Active; 'I' for Inactive)
REMARK    1  A    between atoms: C_1  and  C_2
REMARK    2  A    between atoms: C_2  and  C_3
REMARK    3  A    between atoms: C_2  and  C_20
REMARK    4  A    between atoms: C_3  and  C_4
REMARK    5  A    between atoms: C_4  and  C_5
REMARK    6  A    between atoms: C_6  and  C_7
REMARK    7  A    between atoms: C_7  and  O_8
REMARK    8  A    between atoms: C_12  and  C_13
REMARK    9  A    between atoms: C_12  and  C_14
REMARK   10  A    between atoms: C_18  and  C_19
REMARK   11  A    between atoms: C_20  and  C_21
REMARK                            x       y       z     vdW  Elec       q    Type
REMARK                         _______ _______ _______ _____ _____    ______ ____
ROOT
ATOM      1  C   UNL A   1      44.017 -20.131 -37.410  0.00  0.00    -0.012 C 
ATOM      2  C   UNL A   1      43.843 -19.821 -35.914  0.00  0.00    -0.045 C 
ATOM      3  C   UNL A   1      42.659 -19.316 -35.561  0.00  0.00    -0.082 C 
ATOM      4  C   UNL A   1      41.598 -19.335 -36.601  0.00  0.00    -0.031 C 
ATOM      5  C   UNL A   1      41.890 -20.516 -37.693  0.00  0.00    -0.027 C 
ATOM      6  C   UNL A   1      40.297 -20.951 -38.115  0.00  0.00    -0.031 C 
ATOM      7  C   UNL A   1      39.570 -19.812 -38.873  0.00  0.00    -0.060 C 
ATOM      8  C   UNL A   1      39.419 -21.340 -36.889  0.00  0.00    -0.060 C 
ATOM      9  C   UNL A   1      40.283 -22.223 -39.003  0.00  0.00    -0.048 C 
ATOM     10  C   UNL A   1      41.410 -22.199 -39.994  0.00  0.00    -0.052 C 
ATOM     11  C   UNL A   1      42.645 -21.780 -39.213  0.00  0.00    -0.047 C 
ATOM     12  C   UNL A   1      42.425 -20.139 -38.449  0.00  0.00    -0.022 C 
ATOM     13  C   UNL A   1      42.960 -19.763 -39.205  0.00  0.00    -0.059 C 
ENDROOT
BRANCH   1  14
ATOM     14  C   UNL A   1      45.232 -19.221 -37.903  0.00  0.00    -0.046 C 
BRANCH  14  15
ATOM     15  C   UNL A   1      46.481 -20.060 -38.227  0.00  0.00    -0.049 C 
BRANCH  15  17
ATOM     16  C   UNL A   1      46.526 -19.963 -40.764  0.00  0.00    -0.062 C 
ATOM     17  C   UNL A   1      46.402 -20.875 -39.537  0.00  0.00    -0.034 C 
BRANCH  17  18
ATOM     18  C   UNL A   1      47.440 -22.004 -39.580  0.00  0.00    +0.052 C 
BRANCH  18  19
ATOM     19  C   UNL A   1      47.508 -22.809 -40.885  0.00  0.00    +0.356 C 
ATOM     20  O   UNL A   1      48.592 -22.675 -41.522  0.00  0.00    -0.246 OA
ATOM     21  O   UNL A   1      46.499 -23.515 -41.159  0.00  0.00    -0.246 OA
ENDBRANCH  18  19
ENDBRANCH  17  18
ENDBRANCH  15  17
ENDBRANCH  14  15
ENDBRANCH   1  14
BRANCH   2  22
ATOM     22  C   UNL A   1      44.963 -20.157 -34.963  0.00  0.00    +0.066 C 
BRANCH  22  23
ATOM     23  O   UNL A   1      44.532 -21.070 -33.961  0.00  0.00    -0.391 OA
ATOM     24  H   UNL A   1      43.578 -21.222 -34.052  0.00  0.00    +0.000 HD
ENDBRANCH  22  23
ENDBRANCH   2  22
TORSDOF 7
ENDMDL
MODEL 19
REMARK VINA RESULT:    -5.866      3.940      6.900
REMARK INTER + INTRA:          -8.915
REMARK INTER:                  -7.919
REMARK INTRA:                  -0.996
REMARK UNBOUND:                -0.821
REMARK  Name = cpd292.pdb
REMARK  11 active torsions:
REMARK  status: ('A' for Active; 'I' for Inactive)
REMARK    1  A    between atoms: C_1  and  C_2
REMARK    2  A    between atoms: C_2  and  C_3
REMARK    3  A    between atoms: C_2  and  C_20
REMARK    4  A    between atoms: C_3  and  C_4
REMARK    5  A    between atoms: C_4  and  C_5
REMARK    6  A    between atoms: C_6  and  C_7
REMARK    7  A    between atoms: C_7  and  O_8
REMARK    8  A    between atoms: C_12  and  C_13
REMARK    9  A    between atoms: C_12  and  C_14
REMARK   10  A    between atoms: C_18  and  C_19
REMARK   11  A    between atoms: C_20  and  C_21
REMARK                            x       y       z     vdW  Elec       q    Type
REMARK                         _______ _______ _______ _____ _____    ______ ____
ROOT
ATOM      1  C   UNL A   1      33.876 -34.868 -30.055  0.00  0.00    -0.012 C 
ATOM      2  C   UNL A   1      33.103 -34.965 -28.729  0.00  0.00    -0.045 C 
ATOM      3  C   UNL A   1      33.155 -36.147 -28.112  0.00  0.00    -0.082 C 
ATOM      4  C   UNL A   1      34.127 -37.131 -28.655  0.00  0.00    -0.031 C 
ATOM      5  C   UNL A   1      35.339 -36.363 -29.440  0.00  0.00    -0.027 C 
ATOM      6  C   UNL A   1      36.634 -37.427 -29.130  0.00  0.00    -0.031 C 
ATOM      7  C   UNL A   1      36.438 -38.793 -29.836  0.00  0.00    -0.060 C 
ATOM      8  C   UNL A   1      36.853 -37.706 -27.614  0.00  0.00    -0.060 C 
ATOM      9  C   UNL A   1      37.981 -36.818 -29.598  0.00  0.00    -0.048 C 
ATOM     10  C   UNL A   1      37.818 -36.090 -30.900  0.00  0.00    -0.052 C 
ATOM     11  C   UNL A   1      36.564 -35.245 -30.754  0.00  0.00    -0.047 C 
ATOM     12  C   UNL A   1      35.102 -36.278 -30.407  0.00  0.00    -0.022 C 
ATOM     13  C   UNL A   1      34.865 -36.193 -31.375  0.00  0.00    -0.059 C 
ENDROOT
BRANCH   1  14
ATOM     14  C   UNL A   1      32.787 -34.523 -31.168  0.00  0.00    -0.046 C 
BRANCH  14  15
ATOM     15  C   UNL A   1      32.941 -33.084 -31.693  0.00  0.00    -0.049 C 
BRANCH  15  17
ATOM     16  C   UNL A   1      30.408 -33.140 -31.515  0.00  0.00    -0.062 C 
ATOM     17  C   UNL A   1      31.642 -32.248 -31.707  0.00  0.00    -0.034 C 
BRANCH  17  18
ATOM     18  C   UNL A   1      31.671 -31.114 -30.674  0.00  0.00    +0.052 C 
BRANCH  18  19
ATOM     19  C   UNL A   1      30.384 -30.289 -30.541  0.00  0.00    +0.356 C 
ATOM     20  O   UNL A   1      29.863 -30.320 -29.390  0.00  0.00    -0.246 OA
ATOM     21  O   UNL A   1      30.009 -29.669 -31.574  0.00  0.00    -0.246 OA
ENDBRANCH  18  19
ENDBRANCH  17  18
ENDBRANCH  15  17
ENDBRANCH  14  15
ENDBRANCH   1  14
BRANCH   2  22
ATOM     22  C   UNL A   1      32.410 -33.736 -28.197  0.00  0.00    +0.066 C 
BRANCH  22  23
ATOM     23  O   UNL A   1      30.998 -33.910 -28.173  0.00  0.00    -0.391 OA
ATOM     24  H   UNL A   1      30.567 -33.088 -28.454  0.00  0.00    +0.000 HD
ENDBRANCH  22  23
ENDBRANCH   2  22
TORSDOF 7
ENDMDL
MODEL 20
REMARK VINA RESULT:    -5.724     15.054     18.196
REMARK INTER + INTRA:          -8.720
REMARK INTER:                  -7.393
REMARK INTRA:                  -1.327
REMARK UNBOUND:                -0.821
REMARK  Name = cpd292.pdb
REMARK  11 active torsions:
REMARK  status: ('A' for Active; 'I' for Inactive)
REMARK    1  A    between atoms: C_1  and  C_2
REMARK    2  A    between atoms: C_2  and  C_3
REMARK    3  A    between atoms: C_2  and  C_20
REMARK    4  A    between atoms: C_3  and  C_4
REMARK    5  A    between atoms: C_4  and  C_5
REMARK    6  A    between atoms: C_6  and  C_7
REMARK    7  A    between atoms: C_7  and  O_8
REMARK    8  A    between atoms: C_12  and  C_13
REMARK    9  A    between atoms: C_12  and  C_14
REMARK   10  A    between atoms: C_18  and  C_19
REMARK   11  A    between atoms: C_20  and  C_21
REMARK                            x       y       z     vdW  Elec       q    Type
REMARK                         _______ _______ _______ _____ _____    ______ ____
ROOT
ATOM      1  C   UNL A   1      41.915 -20.477 -36.425  0.00  0.00    -0.012 C 
ATOM      2  C   UNL A   1      41.480 -21.351 -37.613  0.00  0.00    -0.045 C 
ATOM      3  C   UNL A   1      42.138 -21.146 -38.756  0.00  0.00    -0.082 C 
ATOM      4  C   UNL A   1      43.343 -20.280 -38.676  0.00  0.00    -0.031 C 
ATOM      5  C   UNL A   1      43.959 -20.297 -37.161  0.00  0.00    -0.027 C 
ATOM      6  C   UNL A   1      45.619 -20.107 -37.498  0.00  0.00    -0.031 C 
ATOM      7  C   UNL A   1      45.930 -18.709 -38.091  0.00  0.00    -0.060 C 
ATOM      8  C   UNL A   1      46.174 -21.174 -38.487  0.00  0.00    -0.060 C 
ATOM      9  C   UNL A   1      46.474 -20.302 -36.219  0.00  0.00    -0.048 C 
ATOM     10  C   UNL A   1      45.808 -19.679 -35.028  0.00  0.00    -0.052 C 
ATOM     11  C   UNL A   1      44.351 -20.106 -35.091  0.00  0.00    -0.047 C 
ATOM     12  C   UNL A   1      43.560 -19.547 -36.635  0.00  0.00    -0.022 C 
ATOM     13  C   UNL A   1      43.160 -18.796 -36.109  0.00  0.00    -0.059 C 
ENDROOT
BRANCH   1  14
ATOM     14  C   UNL A   1      40.624 -19.636 -36.010  0.00  0.00    -0.046 C 
BRANCH  14  15
ATOM     15  C   UNL A   1      39.895 -20.263 -34.808  0.00  0.00    -0.049 C 
BRANCH  15  17
ATOM     16  C   UNL A   1      41.410 -19.644 -32.866  0.00  0.00    -0.062 C 
ATOM     17  C   UNL A   1      40.815 -20.795 -33.687  0.00  0.00    -0.034 C 
BRANCH  17  18
ATOM     18  C   UNL A   1      40.100 -21.808 -32.782  0.00  0.00    +0.052 C 
BRANCH  18  19
ATOM     19  C   UNL A   1      40.330 -23.289 -33.115  0.00  0.00    +0.356 C 
ATOM     20  O   UNL A   1      41.235 -23.842 -32.426  0.00  0.00    -0.246 OA
ATOM     21  O   UNL A   1      39.588 -23.782 -34.008  0.00  0.00    -0.246 OA
ENDBRANCH  18  19
ENDBRANCH  17  18
ENDBRANCH  15  17
ENDBRANCH  14  15
ENDBRANCH   1  14
BRANCH   2  22
ATOM     22  C   UNL A   1      40.415 -22.396 -37.399  0.00  0.00    +0.066 C 
BRANCH  22  23
ATOM     23  O   UNL A   1      40.751 -23.260 -36.320  0.00  0.00    -0.391 OA
ATOM     24  H   UNL A   1      41.452 -22.854 -35.787  0.00  0.00    +0.000 HD
ENDBRANCH  22  23
ENDBRANCH   2  22
TORSDOF 7
ENDMDL
