@<TRIPOS>MOLECULE
*****
 23 24 0 0 0
SMALL
GASTEIGER

@<TRIPOS>ATOM
      1 C          -0.8660   -3.5000    0.0000 C.3     1  UNL1        0.0006
      2 C          -1.7321   -3.0000    0.0000 C.3     1  UNL1        0.0113
      3 C          -1.7321   -2.0000    0.0000 C.3     1  UNL1        0.0009
      4 C          -0.8660   -1.5000    0.0000 C.3     1  UNL1        0.0041
      5 C          -0.8660   -0.5000    0.0000 C.3     1  UNL1        0.0205
      6 C          -1.7321   -0.0000    0.0000 C.2     1  UNL1       -0.0162
      7 C          -2.5981   -0.5000    0.0000 C.3     1  UNL1        0.2041
      8 O          -3.4641   -0.0000    0.0000 O.3     1  UNL1       -0.2155
      9 C          -1.7321    1.0000    0.0000 C.2     1  UNL1       -0.0321
     10 C          -0.8660    1.5000    0.0000 C.3     1  UNL1        0.0255
     11 C           0.0000    1.0000    0.0000 C.3     1  UNL1        0.0046
     12 C           0.8660    1.5000    0.0000 C.3     1  UNL1        0.0003
     13 C           1.3660    2.3660    0.0000 C.3     1  UNL1        0.0000
     14 C           0.3660    2.3660    0.0000 C.3     1  UNL1        0.0000
     15 C           1.7321    1.0000    0.0000 C.3     1  UNL1        0.0000
     16 C           1.7321   -0.0000    0.0000 C.3     1  UNL1        0.0000
     17 C           0.8660   -0.5000    0.0000 C.3     1  UNL1        0.0003
     18 C          -0.0000   -0.0000    0.0000 C.3     1  UNL1        0.0038
     19 C           0.0000   -1.0000    0.0000 C.3     1  UNL1        0.0003
     20 C          -2.5981   -3.5000    0.0000 C.3     1  UNL1        0.1140
     21 C          -2.5981   -4.5000    0.0000 C.2     1  UNL1        0.3649
     22 O          -3.4641   -5.0000    0.0000 O.co2   1  UNL1       -0.2457
     23 O          -1.7321   -5.0000    0.0000 O.co2   1  UNL1       -0.2457
@<TRIPOS>BOND
     1     1     2    1
     2     2     3    1
     3     3     4    1
     4     4     5    1
     5     5     6    1
     6     6     7    1
     7     7     8    1
     8     6     9    2
     9     9    10    1
    10    10    11    1
    11    11    12    1
    12    12    13    1
    13    12    14    1
    14    12    15    1
    15    15    16    1
    16    16    17    1
    17    17    18    1
    18     5    18    1
    19    11    18    1
    20    18    19    1
    21     2    20    1
    22    20    21    1
    23    21    22   ar
    24    21    23   ar
