MODEL 1
REMARK VINA RESULT:    -7.700      0.000      0.000
REMARK INTER + INTRA:         -18.188
REMARK INTER:                 -14.002
REMARK INTRA:                  -4.186
REMARK UNBOUND:                -4.186
REMARK  Name = cpd13.pdb
REMARK  16 active torsions:
REMARK  status: ('A' for Active; 'I' for Inactive)
REMARK    1  A    between atoms: C_1  and  C_2
REMARK    2  A    between atoms: C_6  and  N_7
REMARK    3  A    between atoms: N_7  and  C_8
REMARK    4  A    between atoms: C_13  and  C_14
REMARK    5  A    between atoms: N_16  and  C_17
REMARK    6  A    between atoms: C_17  and  C_18
REMARK    7  A    between atoms: C_18  and  C_19
REMARK    8  A    between atoms: N_21  and  C_22
REMARK    9  A    between atoms: C_22  and  C_23
REMARK   10  A    between atoms: C_23  and  C_24
REMARK   11  A    between atoms: C_24  and  C_25
REMARK   12  A    between atoms: C_25  and  C_26
REMARK   13  A    between atoms: C_26  and  C_27
REMARK   14  A    between atoms: C_27  and  N_28
REMARK   15  A    between atoms: N_28  and  C_29
REMARK   16  A    between atoms: C_44  and  C_45
REMARK                            x       y       z     vdW  Elec       q    Type
REMARK                         _______ _______ _______ _____ _____    ______ ____
ROOT
ATOM      1  C   UNL A   1      41.816 -21.927 -36.733  0.00  0.00    +0.215 C 
ATOM      2  O   UNL A   1      41.251 -22.989 -36.494  0.00  0.00    -0.276 OA
ATOM      3  N   UNL A   1      41.950 -21.400 -38.000  0.00  0.00    -0.315 N 
ATOM      4  H   UNL A   1      42.442 -20.554 -38.111  0.00  0.00    +0.000 HD
ENDROOT
BRANCH   1   5
ATOM      5  C   UNL A   1      42.456 -21.095 -35.646  0.00  0.00    +0.039 C 
BRANCH   5   6
ATOM      6  C   UNL A   1      43.742 -20.446 -36.134  0.00  0.00    +0.020 C 
BRANCH   6   9
ATOM      7  C   UNL A   1      46.124 -20.143 -35.328  0.00  0.00    +0.246 C 
ATOM      8  O   UNL A   1      47.031 -20.695 -34.708  0.00  0.00    -0.270 OA
ATOM      9  N   UNL A   1      44.822 -20.552 -35.162  0.00  0.00    -0.311 N 
ATOM     10  H   UNL A   1      44.596 -20.959 -34.295  0.00  0.00    +0.000 HD
BRANCH   7  16
ATOM     11  C   UNL A   1      46.920 -19.330 -37.562  0.00  0.00    +0.044 A 
ATOM     12  C   UNL A   1      47.127 -18.247 -38.433  0.00  0.00    -0.040 A 
ATOM     13  C   UNL A   1      46.979 -16.926 -38.000  0.00  0.00    -0.060 A 
ATOM     14  C   UNL A   1      46.596 -16.659 -36.688  0.00  0.00    -0.061 A 
ATOM     15  C   UNL A   1      46.327 -17.714 -35.820  0.00  0.00    -0.048 A 
ATOM     16  C   UNL A   1      46.445 -19.041 -36.266  0.00  0.00    +0.058 A 
BRANCH  11  17
ATOM     17  N   UNL A   1      47.030 -20.671 -38.026  0.00  0.00    -0.314 N 
ATOM     18  H   UNL A   1      47.574 -21.283 -37.481  0.00  0.00    +0.000 HD
BRANCH  17  24
ATOM     19  C   UNL A   1      47.365 -23.442 -42.184  0.00  0.00    -0.039 C 
ATOM     20  C   UNL A   1      46.614 -22.529 -41.250  0.00  0.00    -0.046 A 
ATOM     21  C   UNL A   1      45.305 -22.154 -41.587  0.00  0.00    -0.058 A 
ATOM     22  C   UNL A   1      44.575 -21.303 -40.763  0.00  0.00    -0.060 A 
ATOM     23  C   UNL A   1      45.141 -20.831 -39.582  0.00  0.00    -0.040 A 
ATOM     24  C   UNL A   1      46.433 -21.217 -39.197  0.00  0.00    +0.035 A 
ATOM     25  C   UNL A   1      47.204 -22.023 -40.068  0.00  0.00    -0.026 A 
ATOM     26  C   UNL A   1      48.611 -22.412 -39.686  0.00  0.00    -0.038 C 
ENDBRANCH  17  24
ENDBRANCH  11  17
ENDBRANCH   7  16
ENDBRANCH   6   9
ENDBRANCH   5   6
ENDBRANCH   1   5
BRANCH   3  27
ATOM     27  C   UNL A   1      41.395 -22.044 -39.172  0.00  0.00    +0.012 C 
BRANCH  27  28
ATOM     28  C   UNL A   1      40.279 -21.220 -39.814  0.00  0.00    -0.037 C 
BRANCH  28  29
ATOM     29  C   UNL A   1      39.422 -20.391 -38.848  0.00  0.00    -0.052 C 
BRANCH  29  30
ATOM     30  C   UNL A   1      38.988 -19.001 -39.324  0.00  0.00    -0.052 C 
BRANCH  30  31
ATOM     31  C   UNL A   1      39.716 -17.815 -38.684  0.00  0.00    -0.037 C 
BRANCH  31  32
ATOM     32  C   UNL A   1      40.442 -18.150 -37.384  0.00  0.00    +0.009 C 
BRANCH  32  33
ATOM     33  N   UNL A   1      39.702 -17.575 -36.251  0.00  0.00    -0.343 N 
ATOM     34  H   UNL A   1      39.039 -16.852 -36.333  0.00  0.00    +0.000 HD
BRANCH  33  35
ATOM     35  C   UNL A   1      40.064 -18.197 -35.017  0.00  0.00    +0.041 A 
ATOM     36  C   UNL A   1      39.273 -19.224 -34.462  0.00  0.00    -0.005 A 
ATOM     37  C   UNL A   1      39.771 -19.880 -33.331  0.00  0.00    +0.047 A 
ATOM     38  N   UNL A   1      40.946 -19.557 -32.740  0.00  0.00    -0.251 NA
ATOM     39  C   UNL A   1      41.687 -18.568 -33.257  0.00  0.00    +0.074 A 
ATOM     40  C   UNL A   1      42.883 -18.252 -32.630  0.00  0.00    -0.017 A 
ATOM     41  C   UNL A   1      43.704 -17.234 -33.111  0.00  0.00    +0.043 A 
ATOM     42 CL   UNL A   1      45.181 -16.873 -32.305  0.00  0.00    -0.083 Cl
ATOM     43  C   UNL A   1      43.337 -16.508 -34.235  0.00  0.00    -0.043 A 
ATOM     44  C   UNL A   1      42.140 -16.814 -34.876  0.00  0.00    -0.049 A 
ATOM     45  C   UNL A   1      41.299 -17.851 -34.404  0.00  0.00    +0.022 A 
ATOM     46  C   UNL A   1      39.004 -20.984 -32.648  0.00  0.00    -0.010 C 
ATOM     47  C   UNL A   1      37.958 -21.633 -33.545  0.00  0.00    -0.047 C 
ATOM     48  C   UNL A   1      37.108 -20.556 -34.201  0.00  0.00    -0.049 C 
ATOM     49  C   UNL A   1      37.971 -19.662 -35.091  0.00  0.00    -0.024 C 
ENDBRANCH  33  35
ENDBRANCH  32  33
ENDBRANCH  31  32
ENDBRANCH  30  31
ENDBRANCH  29  30
ENDBRANCH  28  29
ENDBRANCH  27  28
ENDBRANCH   3  27
TORSDOF 14
ENDMDL
MODEL 2
REMARK VINA RESULT:    -7.566     17.648     20.584
REMARK INTER + INTRA:         -17.944
REMARK INTER:                 -12.727
REMARK INTRA:                  -5.217
REMARK UNBOUND:                -4.186
REMARK  Name = cpd13.pdb
REMARK  16 active torsions:
REMARK  status: ('A' for Active; 'I' for Inactive)
REMARK    1  A    between atoms: C_1  and  C_2
REMARK    2  A    between atoms: C_6  and  N_7
REMARK    3  A    between atoms: N_7  and  C_8
REMARK    4  A    between atoms: C_13  and  C_14
REMARK    5  A    between atoms: N_16  and  C_17
REMARK    6  A    between atoms: C_17  and  C_18
REMARK    7  A    between atoms: C_18  and  C_19
REMARK    8  A    between atoms: N_21  and  C_22
REMARK    9  A    between atoms: C_22  and  C_23
REMARK   10  A    between atoms: C_23  and  C_24
REMARK   11  A    between atoms: C_24  and  C_25
REMARK   12  A    between atoms: C_25  and  C_26
REMARK   13  A    between atoms: C_26  and  C_27
REMARK   14  A    between atoms: C_27  and  N_28
REMARK   15  A    between atoms: N_28  and  C_29
REMARK   16  A    between atoms: C_44  and  C_45
REMARK                            x       y       z     vdW  Elec       q    Type
REMARK                         _______ _______ _______ _____ _____    ______ ____
ROOT
ATOM      1  C   UNL A   1      31.561 -38.281 -32.436  0.00  0.00    +0.215 C 
ATOM      2  O   UNL A   1      30.474 -38.461 -32.973  0.00  0.00    -0.276 OA
ATOM      3  N   UNL A   1      32.221 -37.072 -32.430  0.00  0.00    -0.315 N 
ATOM      4  H   UNL A   1      33.105 -37.016 -31.999  0.00  0.00    +0.000 HD
ENDROOT
BRANCH   1   5
ATOM      5  C   UNL A   1      32.309 -39.397 -31.742  0.00  0.00    +0.039 C 
BRANCH   5   6
ATOM      6  C   UNL A   1      33.726 -38.974 -31.389  0.00  0.00    +0.020 C 
BRANCH   6   9
ATOM      7  C   UNL A   1      35.388 -40.066 -29.820  0.00  0.00    +0.246 C 
ATOM      8  O   UNL A   1      36.349 -40.831 -29.781  0.00  0.00    -0.270 OA
ATOM      9  N   UNL A   1      34.530 -40.083 -30.894  0.00  0.00    -0.311 N 
ATOM     10  H   UNL A   1      34.451 -40.936 -31.380  0.00  0.00    +0.000 HD
BRANCH   7  16
ATOM     11  C   UNL A   1      35.967 -37.962 -28.586  0.00  0.00    +0.044 A 
ATOM     12  C   UNL A   1      35.654 -37.057 -27.557  0.00  0.00    -0.040 A 
ATOM     13  C   UNL A   1      34.661 -37.341 -26.615  0.00  0.00    -0.060 A 
ATOM     14  C   UNL A   1      33.939 -38.529 -26.696  0.00  0.00    -0.061 A 
ATOM     15  C   UNL A   1      34.189 -39.417 -27.740  0.00  0.00    -0.048 A 
ATOM     16  C   UNL A   1      35.164 -39.116 -28.704  0.00  0.00    +0.058 A 
BRANCH  11  17
ATOM     17  N   UNL A   1      36.948 -37.642 -29.565  0.00  0.00    -0.314 N 
ATOM     18  H   UNL A   1      36.615 -37.329 -30.437  0.00  0.00    +0.000 HD
BRANCH  17  24
ATOM     19  C   UNL A   1      41.564 -36.724 -31.278  0.00  0.00    -0.039 C 
ATOM     20  C   UNL A   1      40.611 -37.322 -30.277  0.00  0.00    -0.046 A 
ATOM     21  C   UNL A   1      41.139 -38.044 -29.197  0.00  0.00    -0.058 A 
ATOM     22  C   UNL A   1      40.298 -38.625 -28.252  0.00  0.00    -0.060 A 
ATOM     23  C   UNL A   1      38.919 -38.475 -28.367  0.00  0.00    -0.040 A 
ATOM     24  C   UNL A   1      38.360 -37.727 -29.414  0.00  0.00    +0.035 A 
ATOM     25  C   UNL A   1      39.208 -37.197 -30.416  0.00  0.00    -0.026 A 
ATOM     26  C   UNL A   1      38.618 -36.425 -31.570  0.00  0.00    -0.038 C 
ENDBRANCH  17  24
ENDBRANCH  11  17
ENDBRANCH   7  16
ENDBRANCH   6   9
ENDBRANCH   5   6
ENDBRANCH   1   5
BRANCH   3  27
ATOM     27  C   UNL A   1      31.663 -35.879 -33.034  0.00  0.00    +0.012 C 
BRANCH  27  28
ATOM     28  C   UNL A   1      30.596 -35.227 -32.155  0.00  0.00    -0.037 C 
BRANCH  28  29
ATOM     29  C   UNL A   1      30.543 -33.694 -32.197  0.00  0.00    -0.052 C 
BRANCH  29  30
ATOM     30  C   UNL A   1      29.361 -33.021 -31.493  0.00  0.00    -0.052 C 
BRANCH  30  31
ATOM     31  C   UNL A   1      29.714 -32.100 -30.321  0.00  0.00    -0.037 C 
BRANCH  31  32
ATOM     32  C   UNL A   1      29.392 -32.679 -28.946  0.00  0.00    +0.009 C 
BRANCH  32  33
ATOM     33  N   UNL A   1      30.629 -32.774 -28.156  0.00  0.00    -0.343 N 
ATOM     34  H   UNL A   1      30.900 -32.121 -27.471  0.00  0.00    +0.000 HD
BRANCH  33  35
ATOM     35  C   UNL A   1      31.388 -33.932 -28.507  0.00  0.00    +0.041 A 
ATOM     36  C   UNL A   1      30.858 -35.227 -28.336  0.00  0.00    -0.005 A 
ATOM     37  C   UNL A   1      31.604 -36.299 -28.837  0.00  0.00    +0.047 A 
ATOM     38  N   UNL A   1      32.806 -36.152 -29.443  0.00  0.00    -0.251 NA
ATOM     39  C   UNL A   1      33.318 -34.923 -29.587  0.00  0.00    +0.074 A 
ATOM     40  C   UNL A   1      34.553 -34.797 -30.205  0.00  0.00    -0.017 A 
ATOM     41  C   UNL A   1      35.148 -33.551 -30.386  0.00  0.00    +0.043 A 
ATOM     42 CL   UNL A   1      36.682 -33.438 -31.158  0.00  0.00    -0.083 Cl
ATOM     43  C   UNL A   1      34.511 -32.399 -29.947  0.00  0.00    -0.043 A 
ATOM     44  C   UNL A   1      33.270 -32.507 -29.326  0.00  0.00    -0.049 A 
ATOM     45  C   UNL A   1      32.649 -33.767 -29.141  0.00  0.00    +0.022 A 
ATOM     46  C   UNL A   1      31.138 -37.727 -28.700  0.00  0.00    -0.010 C 
ATOM     47  C   UNL A   1      29.640 -37.850 -28.452  0.00  0.00    -0.047 C 
ATOM     48  C   UNL A   1      29.230 -36.917 -27.324  0.00  0.00    -0.049 C 
ATOM     49  C   UNL A   1      29.506 -35.463 -27.705  0.00  0.00    -0.024 C 
ENDBRANCH  33  35
ENDBRANCH  32  33
ENDBRANCH  31  32
ENDBRANCH  30  31
ENDBRANCH  29  30
ENDBRANCH  28  29
ENDBRANCH  27  28
ENDBRANCH   3  27
TORSDOF 14
ENDMDL
MODEL 3
REMARK VINA RESULT:    -7.184      1.878      3.038
REMARK INTER + INTRA:         -17.249
REMARK INTER:                 -13.168
REMARK INTRA:                  -4.081
REMARK UNBOUND:                -4.186
REMARK  Name = cpd13.pdb
REMARK  16 active torsions:
REMARK  status: ('A' for Active; 'I' for Inactive)
REMARK    1  A    between atoms: C_1  and  C_2
REMARK    2  A    between atoms: C_6  and  N_7
REMARK    3  A    between atoms: N_7  and  C_8
REMARK    4  A    between atoms: C_13  and  C_14
REMARK    5  A    between atoms: N_16  and  C_17
REMARK    6  A    between atoms: C_17  and  C_18
REMARK    7  A    between atoms: C_18  and  C_19
REMARK    8  A    between atoms: N_21  and  C_22
REMARK    9  A    between atoms: C_22  and  C_23
REMARK   10  A    between atoms: C_23  and  C_24
REMARK   11  A    between atoms: C_24  and  C_25
REMARK   12  A    between atoms: C_25  and  C_26
REMARK   13  A    between atoms: C_26  and  C_27
REMARK   14  A    between atoms: C_27  and  N_28
REMARK   15  A    between atoms: N_28  and  C_29
REMARK   16  A    between atoms: C_44  and  C_45
REMARK                            x       y       z     vdW  Elec       q    Type
REMARK                         _______ _______ _______ _____ _____    ______ ____
ROOT
ATOM      1  C   UNL A   1      42.249 -18.678 -37.307  0.00  0.00    +0.215 C 
ATOM      2  O   UNL A   1      43.172 -19.216 -37.908  0.00  0.00    -0.276 OA
ATOM      3  N   UNL A   1      40.930 -19.053 -37.436  0.00  0.00    -0.315 N 
ATOM      4  H   UNL A   1      40.244 -18.552 -36.938  0.00  0.00    +0.000 HD
ENDROOT
BRANCH   1   5
ATOM      5  C   UNL A   1      42.472 -17.510 -36.373  0.00  0.00    +0.039 C 
BRANCH   5   6
ATOM      6  C   UNL A   1      43.776 -16.794 -36.688  0.00  0.00    +0.020 C 
BRANCH   6   9
ATOM      7  C   UNL A   1      46.102 -17.775 -36.476  0.00  0.00    +0.246 C 
ATOM      8  O   UNL A   1      46.756 -18.643 -35.901  0.00  0.00    -0.270 OA
ATOM      9  N   UNL A   1      44.905 -17.346 -35.952  0.00  0.00    -0.311 N 
ATOM     10  H   UNL A   1      44.801 -17.420 -34.976  0.00  0.00    +0.000 HD
BRANCH   7  16
ATOM     11  C   UNL A   1      46.499 -17.932 -38.946  0.00  0.00    +0.044 A 
ATOM     12  C   UNL A   1      46.919 -17.302 -40.130  0.00  0.00    -0.040 A 
ATOM     13  C   UNL A   1      47.527 -16.044 -40.108  0.00  0.00    -0.060 A 
ATOM     14  C   UNL A   1      47.707 -15.375 -38.901  0.00  0.00    -0.061 A 
ATOM     15  C   UNL A   1      47.247 -15.950 -37.719  0.00  0.00    -0.048 A 
ATOM     16  C   UNL A   1      46.607 -17.200 -37.746  0.00  0.00    +0.058 A 
BRANCH  11  17
ATOM     17  N   UNL A   1      45.840 -19.193 -38.985  0.00  0.00    -0.314 N 
ATOM     18  H   UNL A   1      45.038 -19.289 -38.422  0.00  0.00    +0.000 HD
BRANCH  17  24
ATOM     19  C   UNL A   1      45.129 -22.216 -42.914  0.00  0.00    -0.039 C 
ATOM     20  C   UNL A   1      45.840 -21.830 -41.644  0.00  0.00    -0.046 A 
ATOM     21  C   UNL A   1      46.867 -22.660 -41.172  0.00  0.00    -0.058 A 
ATOM     22  C   UNL A   1      47.546 -22.352 -39.997  0.00  0.00    -0.060 A 
ATOM     23  C   UNL A   1      47.217 -21.200 -39.289  0.00  0.00    -0.040 A 
ATOM     24  C   UNL A   1      46.220 -20.328 -39.754  0.00  0.00    +0.035 A 
ATOM     25  C   UNL A   1      45.480 -20.676 -40.908  0.00  0.00    -0.026 A 
ATOM     26  C   UNL A   1      44.377 -19.769 -41.396  0.00  0.00    -0.038 C 
ENDBRANCH  17  24
ENDBRANCH  11  17
ENDBRANCH   7  16
ENDBRANCH   6   9
ENDBRANCH   5   6
ENDBRANCH   1   5
BRANCH   3  27
ATOM     27  C   UNL A   1      40.514 -20.157 -38.277  0.00  0.00    +0.012 C 
BRANCH  27  28
ATOM     28  C   UNL A   1      39.308 -20.902 -37.704  0.00  0.00    -0.037 C 
BRANCH  28  29
ATOM     29  C   UNL A   1      39.284 -21.056 -36.177  0.00  0.00    -0.052 C 
BRANCH  29  30
ATOM     30  C   UNL A   1      39.111 -22.475 -35.626  0.00  0.00    -0.052 C 
BRANCH  30  31
ATOM     31  C   UNL A   1      39.975 -22.833 -34.413  0.00  0.00    -0.037 C 
BRANCH  31  32
ATOM     32  C   UNL A   1      40.962 -21.744 -33.999  0.00  0.00    +0.009 C 
BRANCH  32  33
ATOM     33  N   UNL A   1      40.541 -21.169 -32.713  0.00  0.00    -0.343 N 
ATOM     34  H   UNL A   1      40.489 -21.675 -31.871  0.00  0.00    +0.000 HD
BRANCH  33  35
ATOM     35  C   UNL A   1      40.216 -19.784 -32.838  0.00  0.00    +0.041 A 
ATOM     36  C   UNL A   1      38.874 -19.353 -32.885  0.00  0.00    -0.005 A 
ATOM     37  C   UNL A   1      38.639 -17.974 -32.862  0.00  0.00    +0.047 A 
ATOM     38  N   UNL A   1      39.629 -17.051 -32.827  0.00  0.00    -0.251 NA
ATOM     39  C   UNL A   1      40.904 -17.460 -32.802  0.00  0.00    +0.074 A 
ATOM     40  C   UNL A   1      41.900 -16.496 -32.773  0.00  0.00    -0.017 A 
ATOM     41  C   UNL A   1      43.247 -16.848 -32.749  0.00  0.00    +0.043 A 
ATOM     42 CL   UNL A   1      44.453 -15.620 -32.712  0.00  0.00    -0.083 Cl
ATOM     43  C   UNL A   1      43.624 -18.183 -32.756  0.00  0.00    -0.043 A 
ATOM     44  C   UNL A   1      42.636 -19.164 -32.784  0.00  0.00    -0.049 A 
ATOM     45  C   UNL A   1      41.262 -18.822 -32.801  0.00  0.00    +0.022 A 
ATOM     46  C   UNL A   1      37.245 -17.403 -32.919  0.00  0.00    -0.010 C 
ATOM     47  C   UNL A   1      36.169 -18.398 -32.503  0.00  0.00    -0.047 C 
ATOM     48  C   UNL A   1      36.370 -19.709 -33.247  0.00  0.00    -0.049 C 
ATOM     49  C   UNL A   1      37.720 -20.328 -32.886  0.00  0.00    -0.024 C 
ENDBRANCH  33  35
ENDBRANCH  32  33
ENDBRANCH  31  32
ENDBRANCH  30  31
ENDBRANCH  29  30
ENDBRANCH  28  29
ENDBRANCH  27  28
ENDBRANCH   3  27
TORSDOF 14
ENDMDL
MODEL 4
REMARK VINA RESULT:    -7.160      2.869      8.375
REMARK INTER + INTRA:         -17.206
REMARK INTER:                 -12.699
REMARK INTRA:                  -4.507
REMARK UNBOUND:                -4.186
REMARK  Name = cpd13.pdb
REMARK  16 active torsions:
REMARK  status: ('A' for Active; 'I' for Inactive)
REMARK    1  A    between atoms: C_1  and  C_2
REMARK    2  A    between atoms: C_6  and  N_7
REMARK    3  A    between atoms: N_7  and  C_8
REMARK    4  A    between atoms: C_13  and  C_14
REMARK    5  A    between atoms: N_16  and  C_17
REMARK    6  A    between atoms: C_17  and  C_18
REMARK    7  A    between atoms: C_18  and  C_19
REMARK    8  A    between atoms: N_21  and  C_22
REMARK    9  A    between atoms: C_22  and  C_23
REMARK   10  A    between atoms: C_23  and  C_24
REMARK   11  A    between atoms: C_24  and  C_25
REMARK   12  A    between atoms: C_25  and  C_26
REMARK   13  A    between atoms: C_26  and  C_27
REMARK   14  A    between atoms: C_27  and  N_28
REMARK   15  A    between atoms: N_28  and  C_29
REMARK   16  A    between atoms: C_44  and  C_45
REMARK                            x       y       z     vdW  Elec       q    Type
REMARK                         _______ _______ _______ _____ _____    ______ ____
ROOT
ATOM      1  C   UNL A   1      39.761 -17.835 -32.885  0.00  0.00    +0.215 C 
ATOM      2  O   UNL A   1      39.467 -18.346 -31.809  0.00  0.00    -0.276 OA
ATOM      3  N   UNL A   1      41.014 -17.913 -33.453  0.00  0.00    -0.315 N 
ATOM      4  H   UNL A   1      41.176 -17.452 -34.308  0.00  0.00    +0.000 HD
ENDROOT
BRANCH   1   5
ATOM      5  C   UNL A   1      38.765 -17.032 -33.690  0.00  0.00    +0.039 C 
BRANCH   5   6
ATOM      6  C   UNL A   1      37.346 -17.533 -33.469  0.00  0.00    +0.020 C 
BRANCH   6   9
ATOM      7  C   UNL A   1      37.050 -18.986 -35.523  0.00  0.00    +0.246 C 
ATOM      8  O   UNL A   1      36.804 -18.950 -36.727  0.00  0.00    -0.270 OA
ATOM      9  N   UNL A   1      36.699 -17.933 -34.712  0.00  0.00    -0.311 N 
ATOM     10  H   UNL A   1      35.929 -17.392 -35.002  0.00  0.00    +0.000 HD
BRANCH   7  16
ATOM     11  C   UNL A   1      38.711 -20.855 -35.708  0.00  0.00    +0.044 A 
ATOM     12  C   UNL A   1      39.388 -21.916 -35.083  0.00  0.00    -0.040 A 
ATOM     13  C   UNL A   1      39.033 -22.352 -33.803  0.00  0.00    -0.060 A 
ATOM     14  C   UNL A   1      38.007 -21.719 -33.107  0.00  0.00    -0.061 A 
ATOM     15  C   UNL A   1      37.359 -20.626 -33.679  0.00  0.00    -0.048 A 
ATOM     16  C   UNL A   1      37.738 -20.169 -34.952  0.00  0.00    +0.058 A 
BRANCH  11  17
ATOM     17  N   UNL A   1      39.111 -20.390 -36.992  0.00  0.00    -0.314 N 
ATOM     18  H   UNL A   1      38.405 -20.010 -37.563  0.00  0.00    +0.000 HD
BRANCH  17  24
ATOM     19  C   UNL A   1      43.286 -18.005 -38.391  0.00  0.00    -0.039 C 
ATOM     20  C   UNL A   1      42.442 -19.246 -38.263  0.00  0.00    -0.046 A 
ATOM     21  C   UNL A   1      42.948 -20.455 -38.762  0.00  0.00    -0.058 A 
ATOM     22  C   UNL A   1      42.201 -21.626 -38.678  0.00  0.00    -0.060 A 
ATOM     23  C   UNL A   1      40.945 -21.604 -38.078  0.00  0.00    -0.040 A 
ATOM     24  C   UNL A   1      40.426 -20.419 -37.536  0.00  0.00    +0.035 A 
ATOM     25  C   UNL A   1      41.151 -19.213 -37.685  0.00  0.00    -0.026 A 
ATOM     26  C   UNL A   1      40.586 -17.923 -37.143  0.00  0.00    -0.038 C 
ENDBRANCH  17  24
ENDBRANCH  11  17
ENDBRANCH   7  16
ENDBRANCH   6   9
ENDBRANCH   5   6
ENDBRANCH   1   5
BRANCH   3  27
ATOM     27  C   UNL A   1      42.101 -18.647 -32.839  0.00  0.00    +0.012 C 
BRANCH  27  28
ATOM     28  C   UNL A   1      42.093 -20.127 -33.224  0.00  0.00    -0.037 C 
BRANCH  28  29
ATOM     29  C   UNL A   1      42.729 -20.467 -34.579  0.00  0.00    -0.052 C 
BRANCH  29  30
ATOM     30  C   UNL A   1      43.897 -19.587 -35.036  0.00  0.00    -0.052 C 
BRANCH  30  31
ATOM     31  C   UNL A   1      45.155 -20.330 -35.499  0.00  0.00    -0.037 C 
BRANCH  31  32
ATOM     32  C   UNL A   1      46.429 -19.490 -35.467  0.00  0.00    +0.009 C 
BRANCH  32  33
ATOM     33  N   UNL A   1      47.312 -19.904 -36.568  0.00  0.00    -0.343 N 
ATOM     34  H   UNL A   1      48.042 -20.558 -36.476  0.00  0.00    +0.000 HD
BRANCH  33  35
ATOM     35  C   UNL A   1      46.979 -19.239 -37.787  0.00  0.00    +0.041 A 
ATOM     36  C   UNL A   1      47.094 -17.838 -37.905  0.00  0.00    -0.005 A 
ATOM     37  C   UNL A   1      46.890 -17.280 -39.171  0.00  0.00    +0.047 A 
ATOM     38  N   UNL A   1      46.563 -18.011 -40.263  0.00  0.00    -0.251 NA
ATOM     39  C   UNL A   1      46.435 -19.338 -40.146  0.00  0.00    +0.074 A 
ATOM     40  C   UNL A   1      46.093 -20.064 -41.277  0.00  0.00    -0.017 A 
ATOM     41  C   UNL A   1      45.941 -21.448 -41.230  0.00  0.00    +0.043 A 
ATOM     42 CL   UNL A   1      45.517 -22.313 -42.656  0.00  0.00    -0.083 Cl
ATOM     43  C   UNL A   1      46.126 -22.134 -40.038  0.00  0.00    -0.043 A 
ATOM     44  C   UNL A   1      46.471 -21.420 -38.894  0.00  0.00    -0.049 A 
ATOM     45  C   UNL A   1      46.637 -20.014 -38.928  0.00  0.00    +0.022 A 
ATOM     46  C   UNL A   1      46.976 -15.793 -39.409  0.00  0.00    -0.010 C 
ATOM     47  C   UNL A   1      47.767 -15.057 -38.336  0.00  0.00    -0.047 C 
ATOM     48  C   UNL A   1      47.270 -15.471 -36.960  0.00  0.00    -0.049 C 
ATOM     49  C   UNL A   1      47.493 -16.966 -36.737  0.00  0.00    -0.024 C 
ENDBRANCH  33  35
ENDBRANCH  32  33
ENDBRANCH  31  32
ENDBRANCH  30  31
ENDBRANCH  29  30
ENDBRANCH  28  29
ENDBRANCH  27  28
ENDBRANCH   3  27
TORSDOF 14
ENDMDL
MODEL 5
REMARK VINA RESULT:    -7.155      2.362      7.197
REMARK INTER + INTRA:         -17.198
REMARK INTER:                 -11.551
REMARK INTRA:                  -5.646
REMARK UNBOUND:                -4.186
REMARK  Name = cpd13.pdb
REMARK  16 active torsions:
REMARK  status: ('A' for Active; 'I' for Inactive)
REMARK    1  A    between atoms: C_1  and  C_2
REMARK    2  A    between atoms: C_6  and  N_7
REMARK    3  A    between atoms: N_7  and  C_8
REMARK    4  A    between atoms: C_13  and  C_14
REMARK    5  A    between atoms: N_16  and  C_17
REMARK    6  A    between atoms: C_17  and  C_18
REMARK    7  A    between atoms: C_18  and  C_19
REMARK    8  A    between atoms: N_21  and  C_22
REMARK    9  A    between atoms: C_22  and  C_23
REMARK   10  A    between atoms: C_23  and  C_24
REMARK   11  A    between atoms: C_24  and  C_25
REMARK   12  A    between atoms: C_25  and  C_26
REMARK   13  A    between atoms: C_26  and  C_27
REMARK   14  A    between atoms: C_27  and  N_28
REMARK   15  A    between atoms: N_28  and  C_29
REMARK   16  A    between atoms: C_44  and  C_45
REMARK                            x       y       z     vdW  Elec       q    Type
REMARK                         _______ _______ _______ _____ _____    ______ ____
ROOT
ATOM      1  C   UNL A   1      45.156 -19.613 -34.767  0.00  0.00    +0.215 C 
ATOM      2  O   UNL A   1      45.914 -19.056 -33.981  0.00  0.00    -0.276 OA
ATOM      3  N   UNL A   1      45.469 -19.863 -36.086  0.00  0.00    -0.315 N 
ATOM      4  H   UNL A   1      44.794 -20.292 -36.660  0.00  0.00    +0.000 HD
ENDROOT
BRANCH   1   5
ATOM      5  C   UNL A   1      43.769 -20.060 -34.365  0.00  0.00    +0.039 C 
BRANCH   5   6
ATOM      6  C   UNL A   1      42.790 -18.896 -34.380  0.00  0.00    +0.020 C 
BRANCH   6   9
ATOM      7  C   UNL A   1      40.928 -19.113 -32.676  0.00  0.00    +0.246 C 
ATOM      8  O   UNL A   1      40.304 -18.495 -31.817  0.00  0.00    -0.270 OA
ATOM      9  N   UNL A   1      42.168 -18.677 -33.081  0.00  0.00    -0.311 N 
ATOM     10  H   UNL A   1      42.689 -18.162 -32.424  0.00  0.00    +0.000 HD
BRANCH   7  16
ATOM     11  C   UNL A   1      39.367 -20.206 -34.304  0.00  0.00    +0.044 A 
ATOM     12  C   UNL A   1      38.899 -21.391 -34.898  0.00  0.00    -0.040 A 
ATOM     13  C   UNL A   1      39.286 -22.646 -34.420  0.00  0.00    -0.060 A 
ATOM     14  C   UNL A   1      40.172 -22.745 -33.350  0.00  0.00    -0.061 A 
ATOM     15  C   UNL A   1      40.697 -21.586 -32.781  0.00  0.00    -0.048 A 
ATOM     16  C   UNL A   1      40.332 -20.327 -33.283  0.00  0.00    +0.058 A 
BRANCH  11  17
ATOM     17  N   UNL A   1      39.001 -18.934 -34.828  0.00  0.00    -0.314 N 
ATOM     18  H   UNL A   1      38.537 -18.321 -34.214  0.00  0.00    +0.000 HD
BRANCH  17  24
ATOM     19  C   UNL A   1      40.728 -15.398 -37.925  0.00  0.00    -0.039 C 
ATOM     20  C   UNL A   1      40.036 -16.709 -37.656  0.00  0.00    -0.046 A 
ATOM     21  C   UNL A   1      39.550 -17.447 -38.745  0.00  0.00    -0.058 A 
ATOM     22  C   UNL A   1      38.893 -18.658 -38.546  0.00  0.00    -0.060 A 
ATOM     23  C   UNL A   1      38.730 -19.153 -37.256  0.00  0.00    -0.040 A 
ATOM     24  C   UNL A   1      39.238 -18.458 -36.148  0.00  0.00    +0.035 A 
ATOM     25  C   UNL A   1      39.841 -17.193 -36.341  0.00  0.00    -0.026 A 
ATOM     26  C   UNL A   1      40.354 -16.415 -35.154  0.00  0.00    -0.038 C 
ENDBRANCH  17  24
ENDBRANCH  11  17
ENDBRANCH   7  16
ENDBRANCH   6   9
ENDBRANCH   5   6
ENDBRANCH   1   5
BRANCH   3  27
ATOM     27  C   UNL A   1      46.755 -19.520 -36.658  0.00  0.00    +0.012 C 
BRANCH  27  28
ATOM     28  C   UNL A   1      46.828 -19.833 -38.152  0.00  0.00    -0.037 C 
BRANCH  28  29
ATOM     29  C   UNL A   1      46.209 -21.170 -38.584  0.00  0.00    -0.052 C 
BRANCH  29  30
ATOM     30  C   UNL A   1      46.715 -21.775 -39.898  0.00  0.00    -0.052 C 
BRANCH  30  31
ATOM     31  C   UNL A   1      45.691 -21.864 -41.034  0.00  0.00    -0.037 C 
BRANCH  31  32
ATOM     32  C   UNL A   1      45.393 -20.533 -41.718  0.00  0.00    +0.009 C 
BRANCH  32  33
ATOM     33  N   UNL A   1      43.945 -20.282 -41.685  0.00  0.00    -0.343 N 
ATOM     34  H   UNL A   1      43.335 -20.458 -42.438  0.00  0.00    +0.000 HD
BRANCH  33  35
ATOM     35  C   UNL A   1      43.532 -19.752 -40.424  0.00  0.00    +0.041 A 
ATOM     36  C   UNL A   1      42.754 -20.519 -39.534  0.00  0.00    -0.005 A 
ATOM     37  C   UNL A   1      42.515 -19.985 -38.263  0.00  0.00    +0.047 A 
ATOM     38  N   UNL A   1      42.967 -18.770 -37.869  0.00  0.00    -0.251 NA
ATOM     39  C   UNL A   1      43.689 -18.034 -38.722  0.00  0.00    +0.074 A 
ATOM     40  C   UNL A   1      44.136 -16.792 -38.298  0.00  0.00    -0.017 A 
ATOM     41  C   UNL A   1      44.891 -15.971 -39.133  0.00  0.00    +0.043 A 
ATOM     42 CL   UNL A   1      45.426 -14.436 -38.568  0.00  0.00    -0.083 Cl
ATOM     43  C   UNL A   1      45.212 -16.382 -40.418  0.00  0.00    -0.043 A 
ATOM     44  C   UNL A   1      44.773 -17.628 -40.859  0.00  0.00    -0.049 A 
ATOM     45  C   UNL A   1      44.012 -18.477 -40.020  0.00  0.00    +0.022 A 
ATOM     46  C   UNL A   1      41.685 -20.713 -37.236  0.00  0.00    -0.010 C 
ATOM     47  C   UNL A   1      41.579 -22.210 -37.499  0.00  0.00    -0.047 C 
ATOM     48  C   UNL A   1      41.181 -22.446 -38.948  0.00  0.00    -0.049 C 
ATOM     49  C   UNL A   1      42.250 -21.898 -39.893  0.00  0.00    -0.024 C 
ENDBRANCH  33  35
ENDBRANCH  32  33
ENDBRANCH  31  32
ENDBRANCH  30  31
ENDBRANCH  29  30
ENDBRANCH  28  29
ENDBRANCH  27  28
ENDBRANCH   3  27
TORSDOF 14
ENDMDL
MODEL 6
REMARK VINA RESULT:    -7.054      2.770      8.426
REMARK INTER + INTRA:         -17.014
REMARK INTER:                 -12.632
REMARK INTRA:                  -4.382
REMARK UNBOUND:                -4.186
REMARK  Name = cpd13.pdb
REMARK  16 active torsions:
REMARK  status: ('A' for Active; 'I' for Inactive)
REMARK    1  A    between atoms: C_1  and  C_2
REMARK    2  A    between atoms: C_6  and  N_7
REMARK    3  A    between atoms: N_7  and  C_8
REMARK    4  A    between atoms: C_13  and  C_14
REMARK    5  A    between atoms: N_16  and  C_17
REMARK    6  A    between atoms: C_17  and  C_18
REMARK    7  A    between atoms: C_18  and  C_19
REMARK    8  A    between atoms: N_21  and  C_22
REMARK    9  A    between atoms: C_22  and  C_23
REMARK   10  A    between atoms: C_23  and  C_24
REMARK   11  A    between atoms: C_24  and  C_25
REMARK   12  A    between atoms: C_25  and  C_26
REMARK   13  A    between atoms: C_26  and  C_27
REMARK   14  A    between atoms: C_27  and  N_28
REMARK   15  A    between atoms: N_28  and  C_29
REMARK   16  A    between atoms: C_44  and  C_45
REMARK                            x       y       z     vdW  Elec       q    Type
REMARK                         _______ _______ _______ _____ _____    ______ ____
ROOT
ATOM      1  C   UNL A   1      43.062 -15.577 -37.679  0.00  0.00    +0.215 C 
ATOM      2  O   UNL A   1      43.070 -14.353 -37.602  0.00  0.00    -0.276 OA
ATOM      3  N   UNL A   1      43.933 -16.392 -36.989  0.00  0.00    -0.315 N 
ATOM      4  H   UNL A   1      43.880 -17.366 -37.126  0.00  0.00    +0.000 HD
ENDROOT
BRANCH   1   5
ATOM      5  C   UNL A   1      42.098 -16.320 -38.576  0.00  0.00    +0.039 C 
BRANCH   5   6
ATOM      6  C   UNL A   1      40.957 -16.926 -37.774  0.00  0.00    +0.020 C 
BRANCH   6   9
ATOM      7  C   UNL A   1      41.456 -18.959 -36.346  0.00  0.00    +0.246 C 
ATOM      8  O   UNL A   1      41.379 -19.401 -35.202  0.00  0.00    -0.270 OA
ATOM      9  N   UNL A   1      41.422 -17.602 -36.570  0.00  0.00    -0.311 N 
ATOM     10  H   UNL A   1      41.746 -17.028 -35.840  0.00  0.00    +0.000 HD
BRANCH   7  16
ATOM     11  C   UNL A   1      40.484 -20.715 -37.848  0.00  0.00    +0.044 A 
ATOM     12  C   UNL A   1      40.629 -21.525 -38.987  0.00  0.00    -0.040 A 
ATOM     13  C   UNL A   1      41.844 -21.606 -39.673  0.00  0.00    -0.060 A 
ATOM     14  C   UNL A   1      42.939 -20.858 -39.247  0.00  0.00    -0.061 A 
ATOM     15  C   UNL A   1      42.806 -20.003 -38.155  0.00  0.00    -0.048 A 
ATOM     16  C   UNL A   1      41.576 -19.898 -37.487  0.00  0.00    +0.058 A 
BRANCH  11  17
ATOM     17  N   UNL A   1      39.229 -20.606 -37.185  0.00  0.00    -0.314 N 
ATOM     18  H   UNL A   1      38.589 -19.959 -37.558  0.00  0.00    +0.000 HD
BRANCH  17  24
ATOM     19  C   UNL A   1      36.677 -20.842 -32.883  0.00  0.00    -0.039 C 
ATOM     20  C   UNL A   1      37.600 -21.432 -33.916  0.00  0.00    -0.046 A 
ATOM     21  C   UNL A   1      38.110 -22.721 -33.702  0.00  0.00    -0.058 A 
ATOM     22  C   UNL A   1      38.976 -23.304 -34.622  0.00  0.00    -0.060 A 
ATOM     23  C   UNL A   1      39.328 -22.611 -35.777  0.00  0.00    -0.040 A 
ATOM     24  C   UNL A   1      38.806 -21.336 -36.040  0.00  0.00    +0.035 A 
ATOM     25  C   UNL A   1      37.984 -20.712 -35.072  0.00  0.00    -0.026 A 
ATOM     26  C   UNL A   1      37.448 -19.323 -35.323  0.00  0.00    -0.038 C 
ENDBRANCH  17  24
ENDBRANCH  11  17
ENDBRANCH   7  16
ENDBRANCH   6   9
ENDBRANCH   5   6
ENDBRANCH   1   5
BRANCH   3  27
ATOM     27  C   UNL A   1      44.925 -15.870 -36.071  0.00  0.00    +0.012 C 
BRANCH  27  28
ATOM     28  C   UNL A   1      45.731 -16.979 -35.395  0.00  0.00    -0.037 C 
BRANCH  28  29
ATOM     29  C   UNL A   1      45.002 -18.317 -35.212  0.00  0.00    -0.052 C 
BRANCH  29  30
ATOM     30  C   UNL A   1      45.832 -19.591 -35.404  0.00  0.00    -0.052 C 
BRANCH  30  31
ATOM     31  C   UNL A   1      46.945 -19.513 -36.453  0.00  0.00    -0.037 C 
BRANCH  31  32
ATOM     32  C   UNL A   1      46.624 -20.223 -37.766  0.00  0.00    +0.009 C 
BRANCH  32  33
ATOM     33  N   UNL A   1      47.451 -19.656 -38.841  0.00  0.00    -0.343 N 
ATOM     34  H   UNL A   1      48.434 -19.624 -38.825  0.00  0.00    +0.000 HD
BRANCH  33  35
ATOM     35  C   UNL A   1      46.648 -19.156 -39.912  0.00  0.00    +0.041 A 
ATOM     36  C   UNL A   1      46.065 -20.029 -40.852  0.00  0.00    -0.005 A 
ATOM     37  C   UNL A   1      45.178 -19.476 -41.781  0.00  0.00    +0.047 A 
ATOM     38  N   UNL A   1      44.882 -18.156 -41.834  0.00  0.00    -0.251 NA
ATOM     39  C   UNL A   1      45.451 -17.324 -40.953  0.00  0.00    +0.074 A 
ATOM     40  C   UNL A   1      45.137 -15.975 -41.030  0.00  0.00    -0.017 A 
ATOM     41  C   UNL A   1      45.693 -15.051 -40.148  0.00  0.00    +0.043 A 
ATOM     42 CL   UNL A   1      45.277 -13.386 -40.277  0.00  0.00    -0.083 Cl
ATOM     43  C   UNL A   1      46.582 -15.465 -39.166  0.00  0.00    -0.043 A 
ATOM     44  C   UNL A   1      46.906 -16.816 -39.074  0.00  0.00    -0.049 A 
ATOM     45  C   UNL A   1      46.344 -17.768 -39.959  0.00  0.00    +0.022 A 
ATOM     46  C   UNL A   1      44.507 -20.316 -42.839  0.00  0.00    -0.010 C 
ATOM     47  C   UNL A   1      44.476 -21.800 -42.499  0.00  0.00    -0.047 C 
ATOM     48  C   UNL A   1      45.865 -22.259 -42.086  0.00  0.00    -0.049 C 
ATOM     49  C   UNL A   1      46.320 -21.518 -40.828  0.00  0.00    -0.024 C 
ENDBRANCH  33  35
ENDBRANCH  32  33
ENDBRANCH  31  32
ENDBRANCH  30  31
ENDBRANCH  29  30
ENDBRANCH  28  29
ENDBRANCH  27  28
ENDBRANCH   3  27
TORSDOF 14
ENDMDL
MODEL 7
REMARK VINA RESULT:    -7.012      2.957      5.164
REMARK INTER + INTRA:         -16.937
REMARK INTER:                 -11.721
REMARK INTRA:                  -5.216
REMARK UNBOUND:                -4.186
REMARK  Name = cpd13.pdb
REMARK  16 active torsions:
REMARK  status: ('A' for Active; 'I' for Inactive)
REMARK    1  A    between atoms: C_1  and  C_2
REMARK    2  A    between atoms: C_6  and  N_7
REMARK    3  A    between atoms: N_7  and  C_8
REMARK    4  A    between atoms: C_13  and  C_14
REMARK    5  A    between atoms: N_16  and  C_17
REMARK    6  A    between atoms: C_17  and  C_18
REMARK    7  A    between atoms: C_18  and  C_19
REMARK    8  A    between atoms: N_21  and  C_22
REMARK    9  A    between atoms: C_22  and  C_23
REMARK   10  A    between atoms: C_23  and  C_24
REMARK   11  A    between atoms: C_24  and  C_25
REMARK   12  A    between atoms: C_25  and  C_26
REMARK   13  A    between atoms: C_26  and  C_27
REMARK   14  A    between atoms: C_27  and  N_28
REMARK   15  A    between atoms: N_28  and  C_29
REMARK   16  A    between atoms: C_44  and  C_45
REMARK                            x       y       z     vdW  Elec       q    Type
REMARK                         _______ _______ _______ _____ _____    ______ ____
ROOT
ATOM      1  C   UNL A   1      41.949 -16.304 -38.837  0.00  0.00    +0.215 C 
ATOM      2  O   UNL A   1      42.276 -17.399 -39.281  0.00  0.00    -0.276 OA
ATOM      3  N   UNL A   1      41.309 -16.127 -37.629  0.00  0.00    -0.315 N 
ATOM      4  H   UNL A   1      41.056 -15.216 -37.356  0.00  0.00    +0.000 HD
ENDROOT
BRANCH   1   5
ATOM      5  C   UNL A   1      42.194 -15.022 -39.600  0.00  0.00    +0.039 C 
BRANCH   5   6
ATOM      6  C   UNL A   1      43.683 -14.741 -39.739  0.00  0.00    +0.020 C 
BRANCH   6   9
ATOM      7  C   UNL A   1      45.585 -16.246 -40.469  0.00  0.00    +0.246 C 
ATOM      8  O   UNL A   1      46.244 -16.596 -41.446  0.00  0.00    -0.270 OA
ATOM      9  N   UNL A   1      44.344 -15.679 -40.636  0.00  0.00    -0.311 N 
ATOM     10  H   UNL A   1      43.849 -15.934 -41.448  0.00  0.00    +0.000 HD
BRANCH   7  16
ATOM     11  C   UNL A   1      45.863 -17.605 -38.381  0.00  0.00    +0.044 A 
ATOM     12  C   UNL A   1      46.485 -17.758 -37.130  0.00  0.00    -0.040 A 
ATOM     13  C   UNL A   1      47.260 -16.737 -36.573  0.00  0.00    -0.060 A 
ATOM     14  C   UNL A   1      47.451 -15.545 -37.268  0.00  0.00    -0.061 A 
ATOM     15  C   UNL A   1      46.893 -15.390 -38.536  0.00  0.00    -0.048 A 
ATOM     16  C   UNL A   1      46.142 -16.429 -39.107  0.00  0.00    +0.058 A 
BRANCH  11  17
ATOM     17  N   UNL A   1      45.113 -18.669 -38.957  0.00  0.00    -0.314 N 
ATOM     18  H   UNL A   1      44.134 -18.573 -38.949  0.00  0.00    +0.000 HD
BRANCH  17  24
ATOM     19  C   UNL A   1      45.158 -22.014 -42.684  0.00  0.00    -0.039 C 
ATOM     20  C   UNL A   1      45.618 -21.513 -41.340  0.00  0.00    -0.046 A 
ATOM     21  C   UNL A   1      46.542 -22.283 -40.618  0.00  0.00    -0.058 A 
ATOM     22  C   UNL A   1      46.988 -21.868 -39.367  0.00  0.00    -0.060 A 
ATOM     23  C   UNL A   1      46.529 -20.668 -38.831  0.00  0.00    -0.040 A 
ATOM     24  C   UNL A   1      45.634 -19.856 -39.544  0.00  0.00    +0.035 A 
ATOM     25  C   UNL A   1      45.123 -20.310 -40.783  0.00  0.00    -0.026 A 
ATOM     26  C   UNL A   1      44.128 -19.466 -41.542  0.00  0.00    -0.038 C 
ENDBRANCH  17  24
ENDBRANCH  11  17
ENDBRANCH   7  16
ENDBRANCH   6   9
ENDBRANCH   5   6
ENDBRANCH   1   5
BRANCH   3  27
ATOM     27  C   UNL A   1      40.995 -17.232 -36.747  0.00  0.00    +0.012 C 
BRANCH  27  28
ATOM     28  C   UNL A   1      39.576 -17.760 -36.958  0.00  0.00    -0.037 C 
BRANCH  28  29
ATOM     29  C   UNL A   1      38.930 -18.440 -35.743  0.00  0.00    -0.052 C 
BRANCH  29  30
ATOM     30  C   UNL A   1      37.895 -19.533 -36.029  0.00  0.00    -0.052 C 
BRANCH  30  31
ATOM     31  C   UNL A   1      37.864 -20.703 -35.041  0.00  0.00    -0.037 C 
BRANCH  31  32
ATOM     32  C   UNL A   1      39.060 -20.759 -34.094  0.00  0.00    +0.009 C 
BRANCH  32  33
ATOM     33  N   UNL A   1      40.023 -21.757 -34.584  0.00  0.00    -0.343 N 
ATOM     34  H   UNL A   1      39.964 -22.721 -34.398  0.00  0.00    +0.000 HD
BRANCH  33  35
ATOM     35  C   UNL A   1      41.055 -21.151 -35.364  0.00  0.00    +0.041 A 
ATOM     36  C   UNL A   1      42.059 -20.367 -34.758  0.00  0.00    -0.005 A 
ATOM     37  C   UNL A   1      43.112 -19.931 -35.568  0.00  0.00    +0.047 A 
ATOM     38  N   UNL A   1      43.193 -20.200 -36.893  0.00  0.00    -0.251 NA
ATOM     39  C   UNL A   1      42.230 -20.928 -37.472  0.00  0.00    +0.074 A 
ATOM     40  C   UNL A   1      42.332 -21.185 -38.831  0.00  0.00    -0.017 A 
ATOM     41  C   UNL A   1      41.366 -21.933 -39.500  0.00  0.00    +0.043 A 
ATOM     42 CL   UNL A   1      41.530 -22.230 -41.187  0.00  0.00    -0.083 Cl
ATOM     43  C   UNL A   1      40.271 -22.439 -38.814  0.00  0.00    -0.043 A 
ATOM     44  C   UNL A   1      40.154 -22.191 -37.449  0.00  0.00    -0.049 A 
ATOM     45  C   UNL A   1      41.132 -21.439 -36.754  0.00  0.00    +0.022 A 
ATOM     46  C   UNL A   1      44.232 -19.078 -35.028  0.00  0.00    -0.010 C 
ATOM     47  C   UNL A   1      44.380 -19.167 -33.514  0.00  0.00    -0.047 C 
ATOM     48  C   UNL A   1      43.025 -18.961 -32.856  0.00  0.00    -0.049 C 
ATOM     49  C   UNL A   1      42.052 -20.061 -33.278  0.00  0.00    -0.024 C 
ENDBRANCH  33  35
ENDBRANCH  32  33
ENDBRANCH  31  32
ENDBRANCH  30  31
ENDBRANCH  29  30
ENDBRANCH  28  29
ENDBRANCH  27  28
ENDBRANCH   3  27
TORSDOF 14
ENDMDL
MODEL 8
REMARK VINA RESULT:    -7.003      2.834      8.154
REMARK INTER + INTRA:         -16.921
REMARK INTER:                 -12.730
REMARK INTRA:                  -4.191
REMARK UNBOUND:                -4.186
REMARK  Name = cpd13.pdb
REMARK  16 active torsions:
REMARK  status: ('A' for Active; 'I' for Inactive)
REMARK    1  A    between atoms: C_1  and  C_2
REMARK    2  A    between atoms: C_6  and  N_7
REMARK    3  A    between atoms: N_7  and  C_8
REMARK    4  A    between atoms: C_13  and  C_14
REMARK    5  A    between atoms: N_16  and  C_17
REMARK    6  A    between atoms: C_17  and  C_18
REMARK    7  A    between atoms: C_18  and  C_19
REMARK    8  A    between atoms: N_21  and  C_22
REMARK    9  A    between atoms: C_22  and  C_23
REMARK   10  A    between atoms: C_23  and  C_24
REMARK   11  A    between atoms: C_24  and  C_25
REMARK   12  A    between atoms: C_25  and  C_26
REMARK   13  A    between atoms: C_26  and  C_27
REMARK   14  A    between atoms: C_27  and  N_28
REMARK   15  A    between atoms: N_28  and  C_29
REMARK   16  A    between atoms: C_44  and  C_45
REMARK                            x       y       z     vdW  Elec       q    Type
REMARK                         _______ _______ _______ _____ _____    ______ ____
ROOT
ATOM      1  C   UNL A   1      42.905 -15.522 -39.363  0.00  0.00    +0.215 C 
ATOM      2  O   UNL A   1      43.548 -15.222 -38.363  0.00  0.00    -0.276 OA
ATOM      3  N   UNL A   1      42.925 -14.795 -40.533  0.00  0.00    -0.315 N 
ATOM      4  H   UNL A   1      42.358 -15.088 -41.283  0.00  0.00    +0.000 HD
ENDROOT
BRANCH   1   5
ATOM      5  C   UNL A   1      41.989 -16.725 -39.397  0.00  0.00    +0.039 C 
BRANCH   5   6
ATOM      6  C   UNL A   1      41.407 -17.013 -38.022  0.00  0.00    +0.020 C 
BRANCH   6   9
ATOM      7  C   UNL A   1      42.498 -18.969 -36.839  0.00  0.00    +0.246 C 
ATOM      8  O   UNL A   1      42.965 -19.331 -35.761  0.00  0.00    -0.270 OA
ATOM      9  N   UNL A   1      42.377 -17.630 -37.127  0.00  0.00    -0.311 N 
ATOM     10  H   UNL A   1      43.012 -17.025 -36.682  0.00  0.00    +0.000 HD
BRANCH   7  16
ATOM     11  C   UNL A   1      40.831 -20.659 -37.643  0.00  0.00    +0.044 A 
ATOM     12  C   UNL A   1      40.427 -21.550 -38.652  0.00  0.00    -0.040 A 
ATOM     13  C   UNL A   1      41.257 -21.847 -39.736  0.00  0.00    -0.060 A 
ATOM     14  C   UNL A   1      42.504 -21.238 -39.850  0.00  0.00    -0.061 A 
ATOM     15  C   UNL A   1      42.905 -20.306 -38.896  0.00  0.00    -0.048 A 
ATOM     16  C   UNL A   1      42.057 -19.985 -37.824  0.00  0.00    +0.058 A 
BRANCH  11  17
ATOM     17  N   UNL A   1      39.959 -20.331 -36.568  0.00  0.00    -0.314 N 
ATOM     18  H   UNL A   1      39.533 -19.444 -36.600  0.00  0.00    +0.000 HD
BRANCH  17  24
ATOM     19  C   UNL A   1      36.976 -21.434 -32.699  0.00  0.00    -0.039 C 
ATOM     20  C   UNL A   1      38.209 -21.658 -33.535  0.00  0.00    -0.046 A 
ATOM     21  C   UNL A   1      39.103 -22.670 -33.154  0.00  0.00    -0.058 A 
ATOM     22  C   UNL A   1      40.261 -22.907 -33.887  0.00  0.00    -0.060 A 
ATOM     23  C   UNL A   1      40.531 -22.146 -35.021  0.00  0.00    -0.040 A 
ATOM     24  C   UNL A   1      39.639 -21.152 -35.451  0.00  0.00    +0.035 A 
ATOM     25  C   UNL A   1      38.498 -20.860 -34.667  0.00  0.00    -0.026 A 
ATOM     26  C   UNL A   1      37.551 -19.765 -35.095  0.00  0.00    -0.038 C 
ENDBRANCH  17  24
ENDBRANCH  11  17
ENDBRANCH   7  16
ENDBRANCH   6   9
ENDBRANCH   5   6
ENDBRANCH   1   5
BRANCH   3  27
ATOM     27  C   UNL A   1      43.749 -13.615 -40.700  0.00  0.00    +0.012 C 
BRANCH  27  28
ATOM     28  C   UNL A   1      44.597 -13.674 -41.971  0.00  0.00    -0.037 C 
BRANCH  28  29
ATOM     29  C   UNL A   1      46.113 -13.782 -41.755  0.00  0.00    -0.052 C 
BRANCH  29  30
ATOM     30  C   UNL A   1      46.584 -14.490 -40.481  0.00  0.00    -0.052 C 
BRANCH  30  31
ATOM     31  C   UNL A   1      47.725 -15.497 -40.655  0.00  0.00    -0.037 C 
BRANCH  31  32
ATOM     32  C   UNL A   1      47.296 -16.837 -41.246  0.00  0.00    +0.009 C 
BRANCH  32  33
ATOM     33  N   UNL A   1      46.035 -17.264 -40.620  0.00  0.00    -0.343 N 
ATOM     34  H   UNL A   1      45.183 -16.779 -40.707  0.00  0.00    +0.000 HD
BRANCH  33  35
ATOM     35  C   UNL A   1      46.201 -18.469 -39.872  0.00  0.00    +0.041 A 
ATOM     36  C   UNL A   1      46.076 -19.730 -40.489  0.00  0.00    -0.005 A 
ATOM     37  C   UNL A   1      46.396 -20.856 -39.723  0.00  0.00    +0.047 A 
ATOM     38  N   UNL A   1      46.785 -20.790 -38.428  0.00  0.00    -0.251 NA
ATOM     39  C   UNL A   1      46.885 -19.593 -37.837  0.00  0.00    +0.074 A 
ATOM     40  C   UNL A   1      47.280 -19.550 -36.508  0.00  0.00    -0.017 A 
ATOM     41  C   UNL A   1      47.403 -18.341 -35.828  0.00  0.00    +0.043 A 
ATOM     42 CL   UNL A   1      47.897 -18.331 -34.180  0.00  0.00    -0.083 Cl
ATOM     43  C   UNL A   1      47.128 -17.142 -36.472  0.00  0.00    -0.043 A 
ATOM     44  C   UNL A   1      46.732 -17.168 -37.806  0.00  0.00    -0.049 A 
ATOM     45  C   UNL A   1      46.610 -18.388 -38.513  0.00  0.00    +0.022 A 
ATOM     46  C   UNL A   1      46.286 -22.254 -40.278  0.00  0.00    -0.010 C 
ATOM     47  C   UNL A   1      46.302 -22.300 -41.801  0.00  0.00    -0.047 C 
ATOM     48  C   UNL A   1      45.300 -21.298 -42.352  0.00  0.00    -0.049 C 
ATOM     49  C   UNL A   1      45.684 -19.876 -41.941  0.00  0.00    -0.024 C 
ENDBRANCH  33  35
ENDBRANCH  32  33
ENDBRANCH  31  32
ENDBRANCH  30  31
ENDBRANCH  29  30
ENDBRANCH  28  29
ENDBRANCH  27  28
ENDBRANCH   3  27
TORSDOF 14
ENDMDL
MODEL 9
REMARK VINA RESULT:    -6.974      2.959      7.900
REMARK INTER + INTRA:         -16.869
REMARK INTER:                 -11.065
REMARK INTRA:                  -5.804
REMARK UNBOUND:                -4.186
REMARK  Name = cpd13.pdb
REMARK  16 active torsions:
REMARK  status: ('A' for Active; 'I' for Inactive)
REMARK    1  A    between atoms: C_1  and  C_2
REMARK    2  A    between atoms: C_6  and  N_7
REMARK    3  A    between atoms: N_7  and  C_8
REMARK    4  A    between atoms: C_13  and  C_14
REMARK    5  A    between atoms: N_16  and  C_17
REMARK    6  A    between atoms: C_17  and  C_18
REMARK    7  A    between atoms: C_18  and  C_19
REMARK    8  A    between atoms: N_21  and  C_22
REMARK    9  A    between atoms: C_22  and  C_23
REMARK   10  A    between atoms: C_23  and  C_24
REMARK   11  A    between atoms: C_24  and  C_25
REMARK   12  A    between atoms: C_25  and  C_26
REMARK   13  A    between atoms: C_26  and  C_27
REMARK   14  A    between atoms: C_27  and  N_28
REMARK   15  A    between atoms: N_28  and  C_29
REMARK   16  A    between atoms: C_44  and  C_45
REMARK                            x       y       z     vdW  Elec       q    Type
REMARK                         _______ _______ _______ _____ _____    ______ ____
ROOT
ATOM      1  C   UNL A   1      40.307 -21.398 -35.349  0.00  0.00    +0.215 C 
ATOM      2  O   UNL A   1      40.722 -22.544 -35.485  0.00  0.00    -0.276 OA
ATOM      3  N   UNL A   1      41.045 -20.379 -34.788  0.00  0.00    -0.315 N 
ATOM      4  H   UNL A   1      40.630 -19.491 -34.691  0.00  0.00    +0.000 HD
ENDROOT
BRANCH   1   5
ATOM      5  C   UNL A   1      38.911 -20.995 -35.765  0.00  0.00    +0.039 C 
BRANCH   5   6
ATOM      6  C   UNL A   1      38.924 -19.686 -36.539  0.00  0.00    +0.020 C 
BRANCH   6   9
ATOM      7  C   UNL A   1      39.187 -19.832 -39.054  0.00  0.00    +0.246 C 
ATOM      8  O   UNL A   1      38.686 -19.475 -40.118  0.00  0.00    -0.270 OA
ATOM      9  N   UNL A   1      38.436 -19.841 -37.902  0.00  0.00    -0.311 N 
ATOM     10  H   UNL A   1      37.466 -19.967 -38.011  0.00  0.00    +0.000 HD
BRANCH   7  16
ATOM     11  C   UNL A   1      41.630 -19.271 -39.119  0.00  0.00    +0.044 A 
ATOM     12  C   UNL A   1      42.959 -19.709 -38.994  0.00  0.00    -0.040 A 
ATOM     13  C   UNL A   1      43.270 -21.068 -38.886  0.00  0.00    -0.060 A 
ATOM     14  C   UNL A   1      42.253 -22.019 -38.877  0.00  0.00    -0.061 A 
ATOM     15  C   UNL A   1      40.924 -21.608 -38.941  0.00  0.00    -0.048 A 
ATOM     16  C   UNL A   1      40.611 -20.241 -39.016  0.00  0.00    +0.058 A 
BRANCH  11  17
ATOM     17  N   UNL A   1      41.323 -17.882 -39.182  0.00  0.00    -0.314 N 
ATOM     18  H   UNL A   1      40.658 -17.608 -39.853  0.00  0.00    +0.000 HD
BRANCH  17  24
ATOM     19  C   UNL A   1      41.779 -13.027 -38.043  0.00  0.00    -0.039 C 
ATOM     20  C   UNL A   1      42.136 -14.478 -37.852  0.00  0.00    -0.046 A 
ATOM     21  C   UNL A   1      43.101 -14.810 -36.890  0.00  0.00    -0.058 A 
ATOM     22  C   UNL A   1      43.474 -16.135 -36.685  0.00  0.00    -0.060 A 
ATOM     23  C   UNL A   1      42.873 -17.145 -37.430  0.00  0.00    -0.040 A 
ATOM     24  C   UNL A   1      41.877 -16.851 -38.374  0.00  0.00    +0.035 A 
ATOM     25  C   UNL A   1      41.549 -15.500 -38.635  0.00  0.00    -0.026 A 
ATOM     26  C   UNL A   1      40.510 -15.166 -39.677  0.00  0.00    -0.038 C 
ENDBRANCH  17  24
ENDBRANCH  11  17
ENDBRANCH   7  16
ENDBRANCH   6   9
ENDBRANCH   5   6
ENDBRANCH   1   5
BRANCH   3  27
ATOM     27  C   UNL A   1      42.409 -20.564 -34.337  0.00  0.00    +0.012 C 
BRANCH  27  28
ATOM     28  C   UNL A   1      43.408 -19.746 -35.156  0.00  0.00    -0.037 C 
BRANCH  28  29
ATOM     29  C   UNL A   1      44.874 -20.193 -35.058  0.00  0.00    -0.052 C 
BRANCH  29  30
ATOM     30  C   UNL A   1      45.620 -20.413 -36.378  0.00  0.00    -0.052 C 
BRANCH  30  31
ATOM     31  C   UNL A   1      46.866 -19.549 -36.596  0.00  0.00    -0.037 C 
BRANCH  31  32
ATOM     32  C   UNL A   1      46.636 -18.323 -37.475  0.00  0.00    +0.009 C 
BRANCH  32  33
ATOM     33  N   UNL A   1      47.376 -18.482 -38.736  0.00  0.00    -0.343 N 
ATOM     34  H   UNL A   1      48.352 -18.592 -38.794  0.00  0.00    +0.000 HD
BRANCH  33  35
ATOM     35  C   UNL A   1      46.502 -18.457 -39.865  0.00  0.00    +0.041 A 
ATOM     36  C   UNL A   1      46.256 -19.622 -40.620  0.00  0.00    -0.005 A 
ATOM     37  C   UNL A   1      45.278 -19.549 -41.618  0.00  0.00    +0.047 A 
ATOM     38  N   UNL A   1      44.590 -18.418 -41.903  0.00  0.00    -0.251 NA
ATOM     39  C   UNL A   1      44.837 -17.307 -41.199  0.00  0.00    +0.074 A 
ATOM     40  C   UNL A   1      44.123 -16.161 -41.514  0.00  0.00    -0.017 A 
ATOM     41  C   UNL A   1      44.330 -14.968 -40.825  0.00  0.00    +0.043 A 
ATOM     42 CL   UNL A   1      43.423 -13.567 -41.246  0.00  0.00    -0.083 Cl
ATOM     43  C   UNL A   1      45.263 -14.901 -39.801  0.00  0.00    -0.043 A 
ATOM     44  C   UNL A   1      45.987 -16.044 -39.471  0.00  0.00    -0.049 A 
ATOM     45  C   UNL A   1      45.783 -17.266 -40.157  0.00  0.00    +0.022 A 
ATOM     46  C   UNL A   1      44.944 -20.730 -42.493  0.00  0.00    -0.010 C 
ATOM     47  C   UNL A   1      45.362 -22.065 -41.888  0.00  0.00    -0.047 C 
ATOM     48  C   UNL A   1      46.807 -21.984 -41.424  0.00  0.00    -0.049 C 
ATOM     49  C   UNL A   1      46.960 -20.927 -40.330  0.00  0.00    -0.024 C 
ENDBRANCH  33  35
ENDBRANCH  32  33
ENDBRANCH  31  32
ENDBRANCH  30  31
ENDBRANCH  29  30
ENDBRANCH  28  29
ENDBRANCH  27  28
ENDBRANCH   3  27
TORSDOF 14
ENDMDL
MODEL 10
REMARK VINA RESULT:    -6.968      2.168      3.674
REMARK INTER + INTRA:         -16.857
REMARK INTER:                 -11.707
REMARK INTRA:                  -5.150
REMARK UNBOUND:                -4.186
REMARK  Name = cpd13.pdb
REMARK  16 active torsions:
REMARK  status: ('A' for Active; 'I' for Inactive)
REMARK    1  A    between atoms: C_1  and  C_2
REMARK    2  A    between atoms: C_6  and  N_7
REMARK    3  A    between atoms: N_7  and  C_8
REMARK    4  A    between atoms: C_13  and  C_14
REMARK    5  A    between atoms: N_16  and  C_17
REMARK    6  A    between atoms: C_17  and  C_18
REMARK    7  A    between atoms: C_18  and  C_19
REMARK    8  A    between atoms: N_21  and  C_22
REMARK    9  A    between atoms: C_22  and  C_23
REMARK   10  A    between atoms: C_23  and  C_24
REMARK   11  A    between atoms: C_24  and  C_25
REMARK   12  A    between atoms: C_25  and  C_26
REMARK   13  A    between atoms: C_26  and  C_27
REMARK   14  A    between atoms: C_27  and  N_28
REMARK   15  A    between atoms: N_28  and  C_29
REMARK   16  A    between atoms: C_44  and  C_45
REMARK                            x       y       z     vdW  Elec       q    Type
REMARK                         _______ _______ _______ _____ _____    ______ ____
ROOT
ATOM      1  C   UNL A   1      42.494 -17.847 -34.185  0.00  0.00    +0.215 C 
ATOM      2  O   UNL A   1      43.190 -16.860 -33.977  0.00  0.00    -0.276 OA
ATOM      3  N   UNL A   1      41.355 -17.831 -34.962  0.00  0.00    -0.315 N 
ATOM      4  H   UNL A   1      40.836 -18.662 -35.058  0.00  0.00    +0.000 HD
ENDROOT
BRANCH   1   5
ATOM      5  C   UNL A   1      42.807 -19.194 -33.574  0.00  0.00    +0.039 C 
BRANCH   5   6
ATOM      6  C   UNL A   1      43.358 -20.156 -34.615  0.00  0.00    +0.020 C 
BRANCH   6   9
ATOM      7  C   UNL A   1      45.761 -19.907 -35.379  0.00  0.00    +0.246 C 
ATOM      8  O   UNL A   1      46.832 -20.503 -35.468  0.00  0.00    -0.270 OA
ATOM      9  N   UNL A   1      44.799 -20.337 -34.496  0.00  0.00    -0.311 N 
ATOM     10  H   UNL A   1      45.118 -20.817 -33.698  0.00  0.00    +0.000 HD
BRANCH   7  16
ATOM     11  C   UNL A   1      45.045 -18.900 -37.561  0.00  0.00    +0.044 A 
ATOM     12  C   UNL A   1      44.743 -17.744 -38.300  0.00  0.00    -0.040 A 
ATOM     13  C   UNL A   1      44.997 -16.468 -37.790  0.00  0.00    -0.060 A 
ATOM     14  C   UNL A   1      45.538 -16.318 -36.515  0.00  0.00    -0.061 A 
ATOM     15  C   UNL A   1      45.792 -17.446 -35.738  0.00  0.00    -0.048 A 
ATOM     16  C   UNL A   1      45.506 -18.726 -36.240  0.00  0.00    +0.058 A 
BRANCH  11  17
ATOM     17  N   UNL A   1      44.740 -20.193 -38.073  0.00  0.00    -0.314 N 
ATOM     18  H   UNL A   1      43.996 -20.673 -37.643  0.00  0.00    +0.000 HD
BRANCH  17  24
ATOM     19  C   UNL A   1      44.730 -21.955 -42.761  0.00  0.00    -0.039 C 
ATOM     20  C   UNL A   1      45.373 -21.764 -41.412  0.00  0.00    -0.046 A 
ATOM     21  C   UNL A   1      46.638 -22.328 -41.187  0.00  0.00    -0.058 A 
ATOM     22  C   UNL A   1      47.268 -22.190 -39.954  0.00  0.00    -0.060 A 
ATOM     23  C   UNL A   1      46.647 -21.471 -38.936  0.00  0.00    -0.040 A 
ATOM     24  C   UNL A   1      45.399 -20.862 -39.141  0.00  0.00    +0.035 A 
ATOM     25  C   UNL A   1      44.725 -21.062 -40.369  0.00  0.00    -0.026 A 
ATOM     26  C   UNL A   1      43.363 -20.449 -40.588  0.00  0.00    -0.038 C 
ENDBRANCH  17  24
ENDBRANCH  11  17
ENDBRANCH   7  16
ENDBRANCH   6   9
ENDBRANCH   5   6
ENDBRANCH   1   5
BRANCH   3  27
ATOM     27  C   UNL A   1      40.895 -16.637 -35.642  0.00  0.00    +0.012 C 
BRANCH  27  28
ATOM     28  C   UNL A   1      41.282 -16.625 -37.121  0.00  0.00    -0.037 C 
BRANCH  28  29
ATOM     29  C   UNL A   1      41.231 -17.984 -37.834  0.00  0.00    -0.052 C 
BRANCH  29  30
ATOM     30  C   UNL A   1      40.242 -18.120 -38.996  0.00  0.00    -0.052 C 
BRANCH  30  31
ATOM     31  C   UNL A   1      39.679 -19.524 -39.237  0.00  0.00    -0.037 C 
BRANCH  31  32
ATOM     32  C   UNL A   1      39.916 -20.503 -38.090  0.00  0.00    +0.009 C 
BRANCH  32  33
ATOM     33  N   UNL A   1      38.652 -20.726 -37.372  0.00  0.00    -0.343 N 
ATOM     34  H   UNL A   1      37.882 -21.211 -37.746  0.00  0.00    +0.000 HD
BRANCH  33  35
ATOM     35  C   UNL A   1      38.682 -20.152 -36.065  0.00  0.00    +0.041 A 
ATOM     36  C   UNL A   1      38.030 -18.931 -35.793  0.00  0.00    -0.005 A 
ATOM     37  C   UNL A   1      37.983 -18.510 -34.460  0.00  0.00    +0.047 A 
ATOM     38  N   UNL A   1      38.551 -19.198 -33.441  0.00  0.00    -0.251 NA
ATOM     39  C   UNL A   1      39.186 -20.347 -33.703  0.00  0.00    +0.074 A 
ATOM     40  C   UNL A   1      39.765 -21.030 -32.644  0.00  0.00    -0.017 A 
ATOM     41  C   UNL A   1      40.444 -22.230 -32.842  0.00  0.00    +0.043 A 
ATOM     42 CL   UNL A   1      41.148 -23.047 -31.501  0.00  0.00    -0.083 Cl
ATOM     43  C   UNL A   1      40.557 -22.771 -34.115  0.00  0.00    -0.043 A 
ATOM     44  C   UNL A   1      39.980 -22.098 -35.189  0.00  0.00    -0.049 A 
ATOM     45  C   UNL A   1      39.281 -20.881 -35.002  0.00  0.00    +0.022 A 
ATOM     46  C   UNL A   1      37.323 -17.215 -34.057  0.00  0.00    -0.010 C 
ATOM     47  C   UNL A   1      36.324 -16.703 -35.087  0.00  0.00    -0.047 C 
ATOM     48  C   UNL A   1      36.964 -16.709 -36.466  0.00  0.00    -0.049 C 
ATOM     49  C   UNL A   1      37.342 -18.132 -36.875  0.00  0.00    -0.024 C 
ENDBRANCH  33  35
ENDBRANCH  32  33
ENDBRANCH  31  32
ENDBRANCH  30  31
ENDBRANCH  29  30
ENDBRANCH  28  29
ENDBRANCH  27  28
ENDBRANCH   3  27
TORSDOF 14
ENDMDL
MODEL 11
REMARK VINA RESULT:    -6.957     17.468     20.379
REMARK INTER + INTRA:         -16.837
REMARK INTER:                 -12.383
REMARK INTRA:                  -4.453
REMARK UNBOUND:                -4.186
REMARK  Name = cpd13.pdb
REMARK  16 active torsions:
REMARK  status: ('A' for Active; 'I' for Inactive)
REMARK    1  A    between atoms: C_1  and  C_2
REMARK    2  A    between atoms: C_6  and  N_7
REMARK    3  A    between atoms: N_7  and  C_8
REMARK    4  A    between atoms: C_13  and  C_14
REMARK    5  A    between atoms: N_16  and  C_17
REMARK    6  A    between atoms: C_17  and  C_18
REMARK    7  A    between atoms: C_18  and  C_19
REMARK    8  A    between atoms: N_21  and  C_22
REMARK    9  A    between atoms: C_22  and  C_23
REMARK   10  A    between atoms: C_23  and  C_24
REMARK   11  A    between atoms: C_24  and  C_25
REMARK   12  A    between atoms: C_25  and  C_26
REMARK   13  A    between atoms: C_26  and  C_27
REMARK   14  A    between atoms: C_27  and  N_28
REMARK   15  A    between atoms: N_28  and  C_29
REMARK   16  A    between atoms: C_44  and  C_45
REMARK                            x       y       z     vdW  Elec       q    Type
REMARK                         _______ _______ _______ _____ _____    ______ ____
ROOT
ATOM      1  C   UNL A   1      31.536 -38.345 -32.502  0.00  0.00    +0.215 C 
ATOM      2  O   UNL A   1      30.315 -38.367 -32.614  0.00  0.00    -0.276 OA
ATOM      3  N   UNL A   1      32.328 -37.311 -32.951  0.00  0.00    -0.315 N 
ATOM      4  H   UNL A   1      33.304 -37.382 -32.847  0.00  0.00    +0.000 HD
ENDROOT
BRANCH   1   5
ATOM      5  C   UNL A   1      32.305 -39.485 -31.874  0.00  0.00    +0.039 C 
BRANCH   5   6
ATOM      6  C   UNL A   1      33.724 -39.064 -31.522  0.00  0.00    +0.020 C 
BRANCH   6   9
ATOM      7  C   UNL A   1      35.290 -40.101 -29.822  0.00  0.00    +0.246 C 
ATOM      8  O   UNL A   1      36.250 -40.860 -29.703  0.00  0.00    -0.270 OA
ATOM      9  N   UNL A   1      34.500 -40.155 -30.946  0.00  0.00    -0.311 N 
ATOM     10  H   UNL A   1      34.453 -41.021 -31.410  0.00  0.00    +0.000 HD
BRANCH   7  16
ATOM     11  C   UNL A   1      35.651 -37.871 -28.736  0.00  0.00    +0.044 A 
ATOM     12  C   UNL A   1      35.271 -36.950 -27.745  0.00  0.00    -0.040 A 
ATOM     13  C   UNL A   1      34.360 -37.296 -26.742  0.00  0.00    -0.060 A 
ATOM     14  C   UNL A   1      33.790 -38.566 -26.722  0.00  0.00    -0.061 A 
ATOM     15  C   UNL A   1      34.105 -39.479 -27.726  0.00  0.00    -0.048 A 
ATOM     16  C   UNL A   1      34.995 -39.119 -28.751  0.00  0.00    +0.058 A 
BRANCH  11  17
ATOM     17  N   UNL A   1      36.544 -37.493 -29.778  0.00  0.00    -0.314 N 
ATOM     18  H   UNL A   1      36.136 -37.210 -30.628  0.00  0.00    +0.000 HD
BRANCH  17  24
ATOM     19  C   UNL A   1      40.962 -36.085 -31.671  0.00  0.00    -0.039 C 
ATOM     20  C   UNL A   1      40.121 -36.836 -30.672  0.00  0.00    -0.046 A 
ATOM     21  C   UNL A   1      40.768 -37.604 -29.693  0.00  0.00    -0.058 A 
ATOM     22  C   UNL A   1      40.034 -38.324 -28.756  0.00  0.00    -0.060 A 
ATOM     23  C   UNL A   1      38.643 -38.271 -28.776  0.00  0.00    -0.040 A 
ATOM     24  C   UNL A   1      37.966 -37.482 -29.718  0.00  0.00    +0.035 A 
ATOM     25  C   UNL A   1      38.707 -36.807 -30.717  0.00  0.00    -0.026 A 
ATOM     26  C   UNL A   1      37.989 -35.989 -31.762  0.00  0.00    -0.038 C 
ENDBRANCH  17  24
ENDBRANCH  11  17
ENDBRANCH   7  16
ENDBRANCH   6   9
ENDBRANCH   5   6
ENDBRANCH   1   5
BRANCH   3  27
ATOM     27  C   UNL A   1      31.777 -36.123 -33.572  0.00  0.00    +0.012 C 
BRANCH  27  28
ATOM     28  C   UNL A   1      32.122 -34.850 -32.798  0.00  0.00    -0.037 C 
BRANCH  28  29
ATOM     29  C   UNL A   1      33.458 -34.871 -32.042  0.00  0.00    -0.052 C 
BRANCH  29  30
ATOM     30  C   UNL A   1      34.112 -33.516 -31.753  0.00  0.00    -0.052 C 
BRANCH  30  31
ATOM     31  C   UNL A   1      34.336 -33.181 -30.276  0.00  0.00    -0.037 C 
BRANCH  31  32
ATOM     32  C   UNL A   1      33.469 -32.040 -29.750  0.00  0.00    +0.009 C 
BRANCH  32  33
ATOM     33  N   UNL A   1      32.488 -32.575 -28.793  0.00  0.00    -0.343 N 
ATOM     34  H   UNL A   1      32.616 -32.586 -27.817  0.00  0.00    +0.000 HD
BRANCH  33  35
ATOM     35  C   UNL A   1      31.328 -33.078 -29.457  0.00  0.00    +0.041 A 
ATOM     36  C   UNL A   1      31.016 -34.453 -29.433  0.00  0.00    -0.005 A 
ATOM     37  C   UNL A   1      29.789 -34.844 -29.981  0.00  0.00    +0.047 A 
ATOM     38  N   UNL A   1      28.917 -33.978 -30.549  0.00  0.00    -0.251 NA
ATOM     39  C   UNL A   1      29.223 -32.675 -30.589  0.00  0.00    +0.074 A 
ATOM     40  C   UNL A   1      28.317 -31.808 -31.182  0.00  0.00    -0.017 A 
ATOM     41  C   UNL A   1      28.570 -30.441 -31.261  0.00  0.00    +0.043 A 
ATOM     42 CL   UNL A   1      27.420 -29.399 -32.004  0.00  0.00    -0.083 Cl
ATOM     43  C   UNL A   1      29.746 -29.913 -30.745  0.00  0.00    -0.043 A 
ATOM     44  C   UNL A   1      30.665 -30.770 -30.146  0.00  0.00    -0.049 A 
ATOM     45  C   UNL A   1      30.419 -32.161 -30.051  0.00  0.00    +0.022 A 
ATOM     46  C   UNL A   1      29.359 -36.289 -30.019  0.00  0.00    -0.010 C 
ATOM     47  C   UNL A   1      30.091 -37.162 -29.008  0.00  0.00    -0.047 C 
ATOM     48  C   UNL A   1      31.588 -36.923 -29.115  0.00  0.00    -0.049 C 
ATOM     49  C   UNL A   1      31.923 -35.469 -28.781  0.00  0.00    -0.024 C 
ENDBRANCH  33  35
ENDBRANCH  32  33
ENDBRANCH  31  32
ENDBRANCH  30  31
ENDBRANCH  29  30
ENDBRANCH  28  29
ENDBRANCH  27  28
ENDBRANCH   3  27
TORSDOF 14
ENDMDL
MODEL 12
REMARK VINA RESULT:    -6.956      2.577      5.018
REMARK INTER + INTRA:         -16.835
REMARK INTER:                 -10.393
REMARK INTRA:                  -6.442
REMARK UNBOUND:                -4.186
REMARK  Name = cpd13.pdb
REMARK  16 active torsions:
REMARK  status: ('A' for Active; 'I' for Inactive)
REMARK    1  A    between atoms: C_1  and  C_2
REMARK    2  A    between atoms: C_6  and  N_7
REMARK    3  A    between atoms: N_7  and  C_8
REMARK    4  A    between atoms: C_13  and  C_14
REMARK    5  A    between atoms: N_16  and  C_17
REMARK    6  A    between atoms: C_17  and  C_18
REMARK    7  A    between atoms: C_18  and  C_19
REMARK    8  A    between atoms: N_21  and  C_22
REMARK    9  A    between atoms: C_22  and  C_23
REMARK   10  A    between atoms: C_23  and  C_24
REMARK   11  A    between atoms: C_24  and  C_25
REMARK   12  A    between atoms: C_25  and  C_26
REMARK   13  A    between atoms: C_26  and  C_27
REMARK   14  A    between atoms: C_27  and  N_28
REMARK   15  A    between atoms: N_28  and  C_29
REMARK   16  A    between atoms: C_44  and  C_45
REMARK                            x       y       z     vdW  Elec       q    Type
REMARK                         _______ _______ _______ _____ _____    ______ ____
ROOT
ATOM      1  C   UNL A   1      44.330 -15.802 -40.488  0.00  0.00    +0.215 C 
ATOM      2  O   UNL A   1      43.894 -16.642 -41.268  0.00  0.00    -0.276 OA
ATOM      3  N   UNL A   1      43.551 -14.833 -39.893  0.00  0.00    -0.315 N 
ATOM      4  H   UNL A   1      43.983 -14.178 -39.298  0.00  0.00    +0.000 HD
ENDROOT
BRANCH   1   5
ATOM      5  C   UNL A   1      45.795 -15.730 -40.121  0.00  0.00    +0.039 C 
BRANCH   5   6
ATOM      6  C   UNL A   1      46.599 -16.792 -40.856  0.00  0.00    +0.020 C 
BRANCH   6   9
ATOM      7  C   UNL A   1      46.775 -18.733 -39.238  0.00  0.00    +0.246 C 
ATOM      8  O   UNL A   1      47.282 -19.085 -38.175  0.00  0.00    -0.270 OA
ATOM      9  N   UNL A   1      47.308 -17.681 -39.945  0.00  0.00    -0.311 N 
ATOM     10  H   UNL A   1      48.270 -17.512 -39.824  0.00  0.00    +0.000 HD
BRANCH   7  16
ATOM     11  C   UNL A   1      44.335 -19.293 -39.095  0.00  0.00    +0.044 A 
ATOM     12  C   UNL A   1      43.219 -19.922 -39.672  0.00  0.00    -0.040 A 
ATOM     13  C   UNL A   1      43.350 -20.758 -40.785  0.00  0.00    -0.060 A 
ATOM     14  C   UNL A   1      44.601 -20.965 -41.361  0.00  0.00    -0.061 A 
ATOM     15  C   UNL A   1      45.715 -20.306 -40.845  0.00  0.00    -0.048 A 
ATOM     16  C   UNL A   1      45.577 -19.442 -39.748  0.00  0.00    +0.058 A 
BRANCH  11  17
ATOM     17  N   UNL A   1      44.183 -18.408 -37.991  0.00  0.00    -0.314 N 
ATOM     18  H   UNL A   1      43.982 -17.468 -38.203  0.00  0.00    +0.000 HD
BRANCH  17  24
ATOM     19  C   UNL A   1      45.386 -17.146 -33.296  0.00  0.00    -0.039 C 
ATOM     20  C   UNL A   1      44.926 -18.140 -34.330  0.00  0.00    -0.046 A 
ATOM     21  C   UNL A   1      44.662 -19.456 -33.925  0.00  0.00    -0.058 A 
ATOM     22  C   UNL A   1      44.245 -20.413 -34.846  0.00  0.00    -0.060 A 
ATOM     23  C   UNL A   1      44.072 -20.059 -36.181  0.00  0.00    -0.040 A 
ATOM     24  C   UNL A   1      44.291 -18.742 -36.612  0.00  0.00    +0.035 A 
ATOM     25  C   UNL A   1      44.784 -17.786 -35.693  0.00  0.00    -0.026 A 
ATOM     26  C   UNL A   1      45.064 -16.376 -36.152  0.00  0.00    -0.038 C 
ENDBRANCH  17  24
ENDBRANCH  11  17
ENDBRANCH   7  16
ENDBRANCH   6   9
ENDBRANCH   5   6
ENDBRANCH   1   5
BRANCH   3  27
ATOM     27  C   UNL A   1      42.122 -14.743 -40.110  0.00  0.00    +0.012 C 
BRANCH  27  28
ATOM     28  C   UNL A   1      41.324 -15.510 -39.056  0.00  0.00    -0.037 C 
BRANCH  28  29
ATOM     29  C   UNL A   1      40.971 -16.961 -39.412  0.00  0.00    -0.052 C 
BRANCH  29  30
ATOM     30  C   UNL A   1      39.497 -17.363 -39.297  0.00  0.00    -0.052 C 
BRANCH  30  31
ATOM     31  C   UNL A   1      39.227 -18.828 -38.938  0.00  0.00    -0.037 C 
BRANCH  31  32
ATOM     32  C   UNL A   1      39.191 -19.112 -37.439  0.00  0.00    +0.009 C 
BRANCH  32  33
ATOM     33  N   UNL A   1      40.541 -19.474 -36.980  0.00  0.00    -0.343 N 
ATOM     34  H   UNL A   1      41.283 -19.716 -37.579  0.00  0.00    +0.000 HD
BRANCH  33  35
ATOM     35  C   UNL A   1      40.640 -19.432 -35.555  0.00  0.00    +0.041 A 
ATOM     36  C   UNL A   1      40.462 -20.597 -34.780  0.00  0.00    -0.005 A 
ATOM     37  C   UNL A   1      40.718 -20.502 -33.408  0.00  0.00    +0.047 A 
ATOM     38  N   UNL A   1      41.094 -19.353 -32.799  0.00  0.00    -0.251 NA
ATOM     39  C   UNL A   1      41.244 -18.243 -33.532  0.00  0.00    +0.074 A 
ATOM     40  C   UNL A   1      41.624 -17.077 -32.885  0.00  0.00    -0.017 A 
ATOM     41  C   UNL A   1      41.796 -15.885 -33.583  0.00  0.00    +0.043 A 
ATOM     42 CL   UNL A   1      42.270 -14.460 -32.742  0.00  0.00    -0.083 Cl
ATOM     43  C   UNL A   1      41.587 -15.838 -34.954  0.00  0.00    -0.043 A 
ATOM     44  C   UNL A   1      41.207 -17.000 -35.620  0.00  0.00    -0.049 A 
ATOM     45  C   UNL A   1      41.035 -18.222 -34.925  0.00  0.00    +0.022 A 
ATOM     46  C   UNL A   1      40.548 -21.681 -32.483  0.00  0.00    -0.010 C 
ATOM     47  C   UNL A   1      40.580 -23.022 -33.206  0.00  0.00    -0.047 C 
ATOM     48  C   UNL A   1      39.635 -22.984 -34.396  0.00  0.00    -0.049 C 
ATOM     49  C   UNL A   1      40.081 -21.921 -35.400  0.00  0.00    -0.024 C 
ENDBRANCH  33  35
ENDBRANCH  32  33
ENDBRANCH  31  32
ENDBRANCH  30  31
ENDBRANCH  29  30
ENDBRANCH  28  29
ENDBRANCH  27  28
ENDBRANCH   3  27
TORSDOF 14
ENDMDL
MODEL 13
REMARK VINA RESULT:    -6.837      2.225      3.888
REMARK INTER + INTRA:         -16.618
REMARK INTER:                 -11.623
REMARK INTRA:                  -4.996
REMARK UNBOUND:                -4.186
REMARK  Name = cpd13.pdb
REMARK  16 active torsions:
REMARK  status: ('A' for Active; 'I' for Inactive)
REMARK    1  A    between atoms: C_1  and  C_2
REMARK    2  A    between atoms: C_6  and  N_7
REMARK    3  A    between atoms: N_7  and  C_8
REMARK    4  A    between atoms: C_13  and  C_14
REMARK    5  A    between atoms: N_16  and  C_17
REMARK    6  A    between atoms: C_17  and  C_18
REMARK    7  A    between atoms: C_18  and  C_19
REMARK    8  A    between atoms: N_21  and  C_22
REMARK    9  A    between atoms: C_22  and  C_23
REMARK   10  A    between atoms: C_23  and  C_24
REMARK   11  A    between atoms: C_24  and  C_25
REMARK   12  A    between atoms: C_25  and  C_26
REMARK   13  A    between atoms: C_26  and  C_27
REMARK   14  A    between atoms: C_27  and  N_28
REMARK   15  A    between atoms: N_28  and  C_29
REMARK   16  A    between atoms: C_44  and  C_45
REMARK                            x       y       z     vdW  Elec       q    Type
REMARK                         _______ _______ _______ _____ _____    ______ ____
ROOT
ATOM      1  C   UNL A   1      43.575 -18.213 -33.346  0.00  0.00    +0.215 C 
ATOM      2  O   UNL A   1      44.404 -18.867 -32.722  0.00  0.00    -0.276 OA
ATOM      3  N   UNL A   1      42.259 -18.592 -33.499  0.00  0.00    -0.315 N 
ATOM      4  H   UNL A   1      41.662 -18.024 -34.038  0.00  0.00    +0.000 HD
ENDROOT
BRANCH   1   5
ATOM      5  C   UNL A   1      43.933 -16.921 -34.044  0.00  0.00    +0.039 C 
BRANCH   5   6
ATOM      6  C   UNL A   1      44.711 -17.184 -35.324  0.00  0.00    +0.020 C 
BRANCH   6   9
ATOM      7  C   UNL A   1      47.023 -17.979 -35.987  0.00  0.00    +0.246 C 
ATOM      8  O   UNL A   1      47.847 -18.871 -35.802  0.00  0.00    -0.270 OA
ATOM      9  N   UNL A   1      46.027 -17.752 -35.066  0.00  0.00    -0.311 N 
ATOM     10  H   UNL A   1      46.225 -18.000 -34.135  0.00  0.00    +0.000 HD
BRANCH   7  16
ATOM     11  C   UNL A   1      47.136 -17.773 -38.483  0.00  0.00    +0.044 A 
ATOM     12  C   UNL A   1      47.126 -16.939 -39.614  0.00  0.00    -0.040 A 
ATOM     13  C   UNL A   1      47.194 -15.548 -39.493  0.00  0.00    -0.060 A 
ATOM     14  C   UNL A   1      47.250 -14.958 -38.233  0.00  0.00    -0.061 A 
ATOM     15  C   UNL A   1      47.202 -15.759 -37.094  0.00  0.00    -0.048 A 
ATOM     16  C   UNL A   1      47.101 -17.154 -37.217  0.00  0.00    +0.058 A 
BRANCH  11  17
ATOM     17  N   UNL A   1      47.020 -19.186 -38.618  0.00  0.00    -0.314 N 
ATOM     18  H   UNL A   1      47.585 -19.733 -38.027  0.00  0.00    +0.000 HD
BRANCH  17  24
ATOM     19  C   UNL A   1      42.743 -21.617 -39.556  0.00  0.00    -0.039 C 
ATOM     20  C   UNL A   1      44.105 -21.117 -39.960  0.00  0.00    -0.046 A 
ATOM     21  C   UNL A   1      44.575 -21.415 -41.247  0.00  0.00    -0.058 A 
ATOM     22  C   UNL A   1      45.831 -20.984 -41.662  0.00  0.00    -0.060 A 
ATOM     23  C   UNL A   1      46.626 -20.235 -40.799  0.00  0.00    -0.040 A 
ATOM     24  C   UNL A   1      46.171 -19.887 -39.519  0.00  0.00    +0.035 A 
ATOM     25  C   UNL A   1      44.925 -20.385 -39.068  0.00  0.00    -0.026 A 
ATOM     26  C   UNL A   1      44.441 -20.053 -37.678  0.00  0.00    -0.038 C 
ENDBRANCH  17  24
ENDBRANCH  11  17
ENDBRANCH   7  16
ENDBRANCH   6   9
ENDBRANCH   5   6
ENDBRANCH   1   5
BRANCH   3  27
ATOM     27  C   UNL A   1      41.721 -19.794 -32.896  0.00  0.00    +0.012 C 
BRANCH  27  28
ATOM     28  C   UNL A   1      42.091 -21.053 -33.680  0.00  0.00    -0.037 C 
BRANCH  28  29
ATOM     29  C   UNL A   1      41.282 -21.302 -34.961  0.00  0.00    -0.052 C 
BRANCH  29  30
ATOM     30  C   UNL A   1      40.384 -22.543 -34.982  0.00  0.00    -0.052 C 
BRANCH  30  31
ATOM     31  C   UNL A   1      39.404 -22.642 -36.156  0.00  0.00    -0.037 C 
BRANCH  31  32
ATOM     32  C   UNL A   1      39.711 -21.694 -37.313  0.00  0.00    +0.009 C 
BRANCH  32  33
ATOM     33  N   UNL A   1      38.654 -20.675 -37.401  0.00  0.00    -0.343 N 
ATOM     34  H   UNL A   1      37.804 -20.800 -37.880  0.00  0.00    +0.000 HD
BRANCH  33  35
ATOM     35  C   UNL A   1      39.016 -19.482 -36.704  0.00  0.00    +0.041 A 
ATOM     36  C   UNL A   1      38.447 -19.171 -35.452  0.00  0.00    -0.005 A 
ATOM     37  C   UNL A   1      38.960 -18.063 -34.769  0.00  0.00    +0.047 A 
ATOM     38  N   UNL A   1      39.942 -17.273 -35.264  0.00  0.00    -0.251 NA
ATOM     39  C   UNL A   1      40.468 -17.557 -36.461  0.00  0.00    +0.074 A 
ATOM     40  C   UNL A   1      41.469 -16.730 -36.950  0.00  0.00    -0.017 A 
ATOM     41  C   UNL A   1      42.060 -16.964 -38.189  0.00  0.00    +0.043 A 
ATOM     42 CL   UNL A   1      43.299 -15.914 -38.758  0.00  0.00    -0.083 Cl
ATOM     43  C   UNL A   1      41.655 -18.038 -38.969  0.00  0.00    -0.043 A 
ATOM     44  C   UNL A   1      40.653 -18.879 -38.492  0.00  0.00    -0.049 A 
ATOM     45  C   UNL A   1      40.048 -18.659 -37.231  0.00  0.00    +0.022 A 
ATOM     46  C   UNL A   1      38.418 -17.633 -33.429  0.00  0.00    -0.010 C 
ATOM     47  C   UNL A   1      37.676 -18.742 -32.696  0.00  0.00    -0.047 C 
ATOM     48  C   UNL A   1      36.666 -19.387 -33.632  0.00  0.00    -0.049 C 
ATOM     49  C   UNL A   1      37.376 -20.031 -34.823  0.00  0.00    -0.024 C 
ENDBRANCH  33  35
ENDBRANCH  32  33
ENDBRANCH  31  32
ENDBRANCH  30  31
ENDBRANCH  29  30
ENDBRANCH  28  29
ENDBRANCH  27  28
ENDBRANCH   3  27
TORSDOF 14
ENDMDL
MODEL 14
REMARK VINA RESULT:    -6.822      1.546      2.009
REMARK INTER + INTRA:         -16.591
REMARK INTER:                 -13.145
REMARK INTRA:                  -3.446
REMARK UNBOUND:                -4.186
REMARK  Name = cpd13.pdb
REMARK  16 active torsions:
REMARK  status: ('A' for Active; 'I' for Inactive)
REMARK    1  A    between atoms: C_1  and  C_2
REMARK    2  A    between atoms: C_6  and  N_7
REMARK    3  A    between atoms: N_7  and  C_8
REMARK    4  A    between atoms: C_13  and  C_14
REMARK    5  A    between atoms: N_16  and  C_17
REMARK    6  A    between atoms: C_17  and  C_18
REMARK    7  A    between atoms: C_18  and  C_19
REMARK    8  A    between atoms: N_21  and  C_22
REMARK    9  A    between atoms: C_22  and  C_23
REMARK   10  A    between atoms: C_23  and  C_24
REMARK   11  A    between atoms: C_24  and  C_25
REMARK   12  A    between atoms: C_25  and  C_26
REMARK   13  A    between atoms: C_26  and  C_27
REMARK   14  A    between atoms: C_27  and  N_28
REMARK   15  A    between atoms: N_28  and  C_29
REMARK   16  A    between atoms: C_44  and  C_45
REMARK                            x       y       z     vdW  Elec       q    Type
REMARK                         _______ _______ _______ _____ _____    ______ ____
ROOT
ATOM      1  C   UNL A   1      41.969 -20.706 -38.673  0.00  0.00    +0.215 C 
ATOM      2  O   UNL A   1      41.868 -20.619 -39.892  0.00  0.00    -0.276 OA
ATOM      3  N   UNL A   1      40.906 -20.575 -37.806  0.00  0.00    -0.315 N 
ATOM      4  H   UNL A   1      41.076 -20.632 -36.838  0.00  0.00    +0.000 HD
ENDROOT
BRANCH   1   5
ATOM      5  C   UNL A   1      43.299 -20.940 -37.993  0.00  0.00    +0.039 C 
BRANCH   5   6
ATOM      6  C   UNL A   1      43.739 -19.714 -37.209  0.00  0.00    +0.020 C 
BRANCH   6   9
ATOM      7  C   UNL A   1      46.060 -19.586 -36.202  0.00  0.00    +0.246 C 
ATOM      8  O   UNL A   1      46.936 -20.256 -35.660  0.00  0.00    -0.270 OA
ATOM      9  N   UNL A   1      44.758 -20.026 -36.215  0.00  0.00    -0.311 N 
ATOM     10  H   UNL A   1      44.485 -20.614 -35.475  0.00  0.00    +0.000 HD
BRANCH   7  16
ATOM     11  C   UNL A   1      47.009 -18.300 -38.134  0.00  0.00    +0.044 A 
ATOM     12  C   UNL A   1      47.249 -17.052 -38.734  0.00  0.00    -0.040 A 
ATOM     13  C   UNL A   1      47.021 -15.857 -38.046  0.00  0.00    -0.060 A 
ATOM     14  C   UNL A   1      46.521 -15.883 -36.746  0.00  0.00    -0.061 A 
ATOM     15  C   UNL A   1      46.218 -17.104 -36.148  0.00  0.00    -0.048 A 
ATOM     16  C   UNL A   1      46.418 -18.303 -36.853  0.00  0.00    +0.058 A 
BRANCH  11  17
ATOM     17  N   UNL A   1      47.203 -19.508 -38.860  0.00  0.00    -0.314 N 
ATOM     18  H   UNL A   1      47.932 -20.094 -38.554  0.00  0.00    +0.000 HD
BRANCH  17  24
ATOM     19  C   UNL A   1      46.369 -22.888 -42.460  0.00  0.00    -0.039 C 
ATOM     20  C   UNL A   1      46.078 -21.582 -41.768  0.00  0.00    -0.046 A 
ATOM     21  C   UNL A   1      45.077 -20.752 -42.293  0.00  0.00    -0.058 A 
ATOM     22  C   UNL A   1      44.780 -19.531 -41.696  0.00  0.00    -0.060 A 
ATOM     23  C   UNL A   1      45.470 -19.133 -40.555  0.00  0.00    -0.040 A 
ATOM     24  C   UNL A   1      46.451 -19.956 -39.982  0.00  0.00    +0.035 A 
ATOM     25  C   UNL A   1      46.806 -21.164 -40.628  0.00  0.00    -0.026 A 
ATOM     26  C   UNL A   1      47.888 -22.040 -40.046  0.00  0.00    -0.038 C 
ENDBRANCH  17  24
ENDBRANCH  11  17
ENDBRANCH   7  16
ENDBRANCH   6   9
ENDBRANCH   5   6
ENDBRANCH   1   5
BRANCH   3  27
ATOM     27  C   UNL A   1      39.550 -20.357 -38.265  0.00  0.00    +0.012 C 
BRANCH  27  28
ATOM     28  C   UNL A   1      39.065 -18.934 -37.990  0.00  0.00    -0.037 C 
BRANCH  28  29
ATOM     29  C   UNL A   1      38.820 -18.587 -36.515  0.00  0.00    -0.052 C 
BRANCH  29  30
ATOM     30  C   UNL A   1      37.403 -18.148 -36.132  0.00  0.00    -0.052 C 
BRANCH  30  31
ATOM     31  C   UNL A   1      37.292 -17.225 -34.915  0.00  0.00    -0.037 C 
BRANCH  31  32
ATOM     32  C   UNL A   1      38.634 -16.809 -34.316  0.00  0.00    +0.009 C 
BRANCH  32  33
ATOM     33  N   UNL A   1      38.739 -17.334 -32.946  0.00  0.00    -0.343 N 
ATOM     34  H   UNL A   1      38.225 -16.988 -32.181  0.00  0.00    +0.000 HD
BRANCH  33  35
ATOM     35  C   UNL A   1      39.679 -18.406 -32.865  0.00  0.00    +0.041 A 
ATOM     36  C   UNL A   1      39.253 -19.749 -32.909  0.00  0.00    -0.005 A 
ATOM     37  C   UNL A   1      40.243 -20.736 -32.970  0.00  0.00    +0.047 A 
ATOM     38  N   UNL A   1      41.569 -20.462 -32.960  0.00  0.00    -0.251 NA
ATOM     39  C   UNL A   1      41.972 -19.187 -32.898  0.00  0.00    +0.074 A 
ATOM     40  C   UNL A   1      43.335 -18.932 -32.883  0.00  0.00    -0.017 A 
ATOM     41  C   UNL A   1      43.827 -17.630 -32.817  0.00  0.00    +0.043 A 
ATOM     42 CL   UNL A   1      45.526 -17.356 -32.801  0.00  0.00    -0.083 Cl
ATOM     43  C   UNL A   1      42.955 -16.552 -32.764  0.00  0.00    -0.043 A 
ATOM     44  C   UNL A   1      41.583 -16.791 -32.780  0.00  0.00    -0.049 A 
ATOM     45  C   UNL A   1      41.068 -18.108 -32.854  0.00  0.00    +0.022 A 
ATOM     46  C   UNL A   1      39.902 -22.205 -33.009  0.00  0.00    -0.010 C 
ATOM     47  C   UNL A   1      38.478 -22.480 -33.474  0.00  0.00    -0.047 C 
ATOM     48  C   UNL A   1      37.509 -21.604 -32.696  0.00  0.00    -0.049 C 
ATOM     49  C   UNL A   1      37.791 -20.126 -32.962  0.00  0.00    -0.024 C 
ENDBRANCH  33  35
ENDBRANCH  32  33
ENDBRANCH  31  32
ENDBRANCH  30  31
ENDBRANCH  29  30
ENDBRANCH  28  29
ENDBRANCH  27  28
ENDBRANCH   3  27
TORSDOF 14
ENDMDL
MODEL 15
REMARK VINA RESULT:    -6.722      2.923      5.008
REMARK INTER + INTRA:         -16.409
REMARK INTER:                 -11.357
REMARK INTRA:                  -5.053
REMARK UNBOUND:                -4.186
REMARK  Name = cpd13.pdb
REMARK  16 active torsions:
REMARK  status: ('A' for Active; 'I' for Inactive)
REMARK    1  A    between atoms: C_1  and  C_2
REMARK    2  A    between atoms: C_6  and  N_7
REMARK    3  A    between atoms: N_7  and  C_8
REMARK    4  A    between atoms: C_13  and  C_14
REMARK    5  A    between atoms: N_16  and  C_17
REMARK    6  A    between atoms: C_17  and  C_18
REMARK    7  A    between atoms: C_18  and  C_19
REMARK    8  A    between atoms: N_21  and  C_22
REMARK    9  A    between atoms: C_22  and  C_23
REMARK   10  A    between atoms: C_23  and  C_24
REMARK   11  A    between atoms: C_24  and  C_25
REMARK   12  A    between atoms: C_25  and  C_26
REMARK   13  A    between atoms: C_26  and  C_27
REMARK   14  A    between atoms: C_27  and  N_28
REMARK   15  A    between atoms: N_28  and  C_29
REMARK   16  A    between atoms: C_44  and  C_45
REMARK                            x       y       z     vdW  Elec       q    Type
REMARK                         _______ _______ _______ _____ _____    ______ ____
ROOT
ATOM      1  C   UNL A   1      45.987 -18.380 -35.536  0.00  0.00    +0.215 C 
ATOM      2  O   UNL A   1      46.681 -19.388 -35.458  0.00  0.00    -0.276 OA
ATOM      3  N   UNL A   1      44.640 -18.353 -35.245  0.00  0.00    -0.315 N 
ATOM      4  H   UNL A   1      44.148 -17.508 -35.358  0.00  0.00    +0.000 HD
ENDROOT
BRANCH   1   5
ATOM      5  C   UNL A   1      46.547 -17.053 -35.996  0.00  0.00    +0.039 C 
BRANCH   5   6
ATOM      6  C   UNL A   1      45.434 -16.081 -36.355  0.00  0.00    +0.020 C 
BRANCH   6   9
ATOM      7  C   UNL A   1      45.292 -15.325 -38.769  0.00  0.00    +0.246 C 
ATOM      8  O   UNL A   1      45.967 -14.937 -39.720  0.00  0.00    -0.270 OA
ATOM      9  N   UNL A   1      45.781 -15.232 -37.487  0.00  0.00    -0.311 N 
ATOM     10  H   UNL A   1      46.435 -14.517 -37.317  0.00  0.00    +0.000 HD
BRANCH   7  16
ATOM     11  C   UNL A   1      43.795 -16.973 -39.921  0.00  0.00    +0.044 A 
ATOM     12  C   UNL A   1      42.513 -17.535 -40.049  0.00  0.00    -0.040 A 
ATOM     13  C   UNL A   1      41.410 -16.987 -39.389  0.00  0.00    -0.060 A 
ATOM     14  C   UNL A   1      41.568 -15.876 -38.564  0.00  0.00    -0.061 A 
ATOM     15  C   UNL A   1      42.837 -15.334 -38.374  0.00  0.00    -0.048 A 
ATOM     16  C   UNL A   1      43.950 -15.905 -39.012  0.00  0.00    +0.058 A 
BRANCH  11  17
ATOM     17  N   UNL A   1      44.918 -17.566 -40.562  0.00  0.00    -0.314 N 
ATOM     18  H   UNL A   1      45.392 -17.012 -41.224  0.00  0.00    +0.000 HD
BRANCH  17  24
ATOM     19  C   UNL A   1      45.572 -22.285 -42.107  0.00  0.00    -0.039 C 
ATOM     20  C   UNL A   1      45.702 -21.191 -41.080  0.00  0.00    -0.046 A 
ATOM     21  C   UNL A   1      46.285 -21.499 -39.842  0.00  0.00    -0.058 A 
ATOM     22  C   UNL A   1      46.416 -20.526 -38.856  0.00  0.00    -0.060 A 
ATOM     23  C   UNL A   1      45.981 -19.227 -39.104  0.00  0.00    -0.040 A 
ATOM     24  C   UNL A   1      45.428 -18.876 -40.345  0.00  0.00    +0.035 A 
ATOM     25  C   UNL A   1      45.227 -19.880 -41.322  0.00  0.00    -0.026 A 
ATOM     26  C   UNL A   1      44.595 -19.526 -42.646  0.00  0.00    -0.038 C 
ENDBRANCH  17  24
ENDBRANCH  11  17
ENDBRANCH   7  16
ENDBRANCH   6   9
ENDBRANCH   5   6
ENDBRANCH   1   5
BRANCH   3  27
ATOM     27  C   UNL A   1      43.923 -19.522 -34.778  0.00  0.00    +0.012 C 
BRANCH  27  28
ATOM     28  C   UNL A   1      42.488 -19.570 -35.302  0.00  0.00    -0.037 C 
BRANCH  28  29
ATOM     29  C   UNL A   1      41.915 -18.237 -35.800  0.00  0.00    -0.052 C 
BRANCH  29  30
ATOM     30  C   UNL A   1      40.562 -17.805 -35.225  0.00  0.00    -0.052 C 
BRANCH  30  31
ATOM     31  C   UNL A   1      39.384 -17.808 -36.205  0.00  0.00    -0.037 C 
BRANCH  31  32
ATOM     32  C   UNL A   1      38.140 -18.528 -35.692  0.00  0.00    +0.009 C 
BRANCH  32  33
ATOM     33  N   UNL A   1      37.865 -19.694 -36.545  0.00  0.00    -0.343 N 
ATOM     34  H   UNL A   1      37.043 -19.811 -37.074  0.00  0.00    +0.000 HD
BRANCH  33  35
ATOM     35  C   UNL A   1      38.940 -20.634 -36.512  0.00  0.00    +0.041 A 
ATOM     36  C   UNL A   1      39.219 -21.376 -35.346  0.00  0.00    -0.005 A 
ATOM     37  C   UNL A   1      40.192 -22.378 -35.438  0.00  0.00    +0.047 A 
ATOM     38  N   UNL A   1      40.885 -22.641 -36.571  0.00  0.00    -0.251 NA
ATOM     39  C   UNL A   1      40.632 -21.923 -37.672  0.00  0.00    +0.074 A 
ATOM     40  C   UNL A   1      41.359 -22.206 -38.819  0.00  0.00    -0.017 A 
ATOM     41  C   UNL A   1      41.152 -21.498 -40.000  0.00  0.00    +0.043 A 
ATOM     42 CL   UNL A   1      42.074 -21.882 -41.402  0.00  0.00    -0.083 Cl
ATOM     43  C   UNL A   1      40.207 -20.484 -40.054  0.00  0.00    -0.043 A 
ATOM     44  C   UNL A   1      39.468 -20.187 -38.912  0.00  0.00    -0.049 A 
ATOM     45  C   UNL A   1      39.662 -20.903 -37.706  0.00  0.00    +0.022 A 
ATOM     46  C   UNL A   1      40.578 -23.223 -34.251  0.00  0.00    -0.010 C 
ATOM     47  C   UNL A   1      39.519 -23.244 -33.156  0.00  0.00    -0.047 C 
ATOM     48  C   UNL A   1      39.090 -21.822 -32.833  0.00  0.00    -0.049 C 
ATOM     49  C   UNL A   1      38.458 -21.162 -34.058  0.00  0.00    -0.024 C 
ENDBRANCH  33  35
ENDBRANCH  32  33
ENDBRANCH  31  32
ENDBRANCH  30  31
ENDBRANCH  29  30
ENDBRANCH  28  29
ENDBRANCH  27  28
ENDBRANCH   3  27
TORSDOF 14
ENDMDL
MODEL 16
REMARK VINA RESULT:    -6.693      2.649      6.970
REMARK INTER + INTRA:         -16.357
REMARK INTER:                  -9.810
REMARK INTRA:                  -6.546
REMARK UNBOUND:                -4.186
REMARK  Name = cpd13.pdb
REMARK  16 active torsions:
REMARK  status: ('A' for Active; 'I' for Inactive)
REMARK    1  A    between atoms: C_1  and  C_2
REMARK    2  A    between atoms: C_6  and  N_7
REMARK    3  A    between atoms: N_7  and  C_8
REMARK    4  A    between atoms: C_13  and  C_14
REMARK    5  A    between atoms: N_16  and  C_17
REMARK    6  A    between atoms: C_17  and  C_18
REMARK    7  A    between atoms: C_18  and  C_19
REMARK    8  A    between atoms: N_21  and  C_22
REMARK    9  A    between atoms: C_22  and  C_23
REMARK   10  A    between atoms: C_23  and  C_24
REMARK   11  A    between atoms: C_24  and  C_25
REMARK   12  A    between atoms: C_25  and  C_26
REMARK   13  A    between atoms: C_26  and  C_27
REMARK   14  A    between atoms: C_27  and  N_28
REMARK   15  A    between atoms: N_28  and  C_29
REMARK   16  A    between atoms: C_44  and  C_45
REMARK                            x       y       z     vdW  Elec       q    Type
REMARK                         _______ _______ _______ _____ _____    ______ ____
ROOT
ATOM      1  C   UNL A   1      38.159 -16.103 -36.119  0.00  0.00    +0.215 C 
ATOM      2  O   UNL A   1      37.062 -16.535 -35.783  0.00  0.00    -0.276 OA
ATOM      3  N   UNL A   1      38.750 -16.377 -37.333  0.00  0.00    -0.315 N 
ATOM      4  H   UNL A   1      39.647 -16.012 -37.516  0.00  0.00    +0.000 HD
ENDROOT
BRANCH   1   5
ATOM      5  C   UNL A   1      38.995 -15.236 -35.204  0.00  0.00    +0.039 C 
BRANCH   5   6
ATOM      6  C   UNL A   1      40.459 -15.646 -35.245  0.00  0.00    +0.020 C 
BRANCH   6   9
ATOM      7  C   UNL A   1      40.917 -17.208 -33.305  0.00  0.00    +0.246 C 
ATOM      8  O   UNL A   1      40.913 -17.281 -32.078  0.00  0.00    -0.270 OA
ATOM      9  N   UNL A   1      40.979 -15.984 -33.927  0.00  0.00    -0.311 N 
ATOM     10  H   UNL A   1      41.420 -15.259 -33.429  0.00  0.00    +0.000 HD
BRANCH   7  16
ATOM     11  C   UNL A   1      42.026 -19.108 -34.508  0.00  0.00    +0.044 A 
ATOM     12  C   UNL A   1      41.892 -20.324 -35.199  0.00  0.00    -0.040 A 
ATOM     13  C   UNL A   1      40.638 -20.808 -35.582  0.00  0.00    -0.060 A 
ATOM     14  C   UNL A   1      39.485 -20.097 -35.260  0.00  0.00    -0.061 A 
ATOM     15  C   UNL A   1      39.585 -18.919 -34.523  0.00  0.00    -0.048 A 
ATOM     16  C   UNL A   1      40.843 -18.450 -34.111  0.00  0.00    +0.058 A 
BRANCH  11  17
ATOM     17  N   UNL A   1      43.305 -18.647 -34.083  0.00  0.00    -0.314 N 
ATOM     18  H   UNL A   1      43.529 -18.783 -33.135  0.00  0.00    +0.000 HD
BRANCH  17  24
ATOM     19  C   UNL A   1      47.374 -18.918 -36.990  0.00  0.00    -0.039 C 
ATOM     20  C   UNL A   1      46.305 -18.142 -36.266  0.00  0.00    -0.046 A 
ATOM     21  C   UNL A   1      46.329 -16.741 -36.336  0.00  0.00    -0.058 A 
ATOM     22  C   UNL A   1      45.370 -15.980 -35.675  0.00  0.00    -0.060 A 
ATOM     23  C   UNL A   1      44.365 -16.612 -34.948  0.00  0.00    -0.040 A 
ATOM     24  C   UNL A   1      44.291 -18.012 -34.889  0.00  0.00    +0.035 A 
ATOM     25  C   UNL A   1      45.305 -18.786 -35.499  0.00  0.00    -0.026 A 
ATOM     26  C   UNL A   1      45.261 -20.292 -35.408  0.00  0.00    -0.038 C 
ENDBRANCH  17  24
ENDBRANCH  11  17
ENDBRANCH   7  16
ENDBRANCH   6   9
ENDBRANCH   5   6
ENDBRANCH   1   5
BRANCH   3  27
ATOM     27  C   UNL A   1      38.103 -17.180 -38.349  0.00  0.00    +0.012 C 
BRANCH  27  28
ATOM     28  C   UNL A   1      39.097 -18.036 -39.135  0.00  0.00    -0.037 C 
BRANCH  28  29
ATOM     29  C   UNL A   1      39.099 -19.533 -38.798  0.00  0.00    -0.052 C 
BRANCH  29  30
ATOM     30  C   UNL A   1      39.966 -20.440 -39.677  0.00  0.00    -0.052 C 
BRANCH  30  31
ATOM     31  C   UNL A   1      40.883 -21.417 -38.935  0.00  0.00    -0.037 C 
BRANCH  31  32
ATOM     32  C   UNL A   1      42.276 -21.559 -39.543  0.00  0.00    +0.009 C 
BRANCH  32  33
ATOM     33  N   UNL A   1      43.284 -21.159 -38.550  0.00  0.00    -0.343 N 
ATOM     34  H   UNL A   1      43.346 -21.535 -37.642  0.00  0.00    +0.000 HD
BRANCH  33  35
ATOM     35  C   UNL A   1      44.162 -20.158 -39.066  0.00  0.00    +0.041 A 
ATOM     36  C   UNL A   1      45.305 -20.509 -39.813  0.00  0.00    -0.005 A 
ATOM     37  C   UNL A   1      46.032 -19.471 -40.405  0.00  0.00    +0.047 A 
ATOM     38  N   UNL A   1      45.706 -18.163 -40.271  0.00  0.00    -0.251 NA
ATOM     39  C   UNL A   1      44.631 -17.829 -39.546  0.00  0.00    +0.074 A 
ATOM     40  C   UNL A   1      44.321 -16.484 -39.418  0.00  0.00    -0.017 A 
ATOM     41  C   UNL A   1      43.220 -16.062 -38.677  0.00  0.00    +0.043 A 
ATOM     42 CL   UNL A   1      42.869 -14.383 -38.544  0.00  0.00    -0.083 Cl
ATOM     43  C   UNL A   1      42.403 -16.989 -38.045  0.00  0.00    -0.043 A 
ATOM     44  C   UNL A   1      42.700 -18.344 -38.164  0.00  0.00    -0.049 A 
ATOM     45  C   UNL A   1      43.812 -18.788 -38.920  0.00  0.00    +0.022 A 
ATOM     46  C   UNL A   1      47.277 -19.731 -41.214  0.00  0.00    -0.010 C 
ATOM     47  C   UNL A   1      47.371 -21.161 -41.732  0.00  0.00    -0.047 C 
ATOM     48  C   UNL A   1      47.116 -22.135 -40.593  0.00  0.00    -0.049 C 
ATOM     49  C   UNL A   1      45.705 -21.949 -40.035  0.00  0.00    -0.024 C 
ENDBRANCH  33  35
ENDBRANCH  32  33
ENDBRANCH  31  32
ENDBRANCH  30  31
ENDBRANCH  29  30
ENDBRANCH  28  29
ENDBRANCH  27  28
ENDBRANCH   3  27
TORSDOF 14
ENDMDL
MODEL 17
REMARK VINA RESULT:    -6.640      2.806      8.440
REMARK INTER + INTRA:         -16.260
REMARK INTER:                 -12.121
REMARK INTRA:                  -4.139
REMARK UNBOUND:                -4.186
REMARK  Name = cpd13.pdb
REMARK  16 active torsions:
REMARK  status: ('A' for Active; 'I' for Inactive)
REMARK    1  A    between atoms: C_1  and  C_2
REMARK    2  A    between atoms: C_6  and  N_7
REMARK    3  A    between atoms: N_7  and  C_8
REMARK    4  A    between atoms: C_13  and  C_14
REMARK    5  A    between atoms: N_16  and  C_17
REMARK    6  A    between atoms: C_17  and  C_18
REMARK    7  A    between atoms: C_18  and  C_19
REMARK    8  A    between atoms: N_21  and  C_22
REMARK    9  A    between atoms: C_22  and  C_23
REMARK   10  A    between atoms: C_23  and  C_24
REMARK   11  A    between atoms: C_24  and  C_25
REMARK   12  A    between atoms: C_25  and  C_26
REMARK   13  A    between atoms: C_26  and  C_27
REMARK   14  A    between atoms: C_27  and  N_28
REMARK   15  A    between atoms: N_28  and  C_29
REMARK   16  A    between atoms: C_44  and  C_45
REMARK                            x       y       z     vdW  Elec       q    Type
REMARK                         _______ _______ _______ _____ _____    ______ ____
ROOT
ATOM      1  C   UNL A   1      44.834 -20.047 -35.027  0.00  0.00    +0.215 C 
ATOM      2  O   UNL A   1      45.631 -20.042 -34.095  0.00  0.00    -0.276 OA
ATOM      3  N   UNL A   1      45.179 -19.763 -36.331  0.00  0.00    -0.315 N 
ATOM      4  H   UNL A   1      44.474 -19.762 -37.018  0.00  0.00    +0.000 HD
ENDROOT
BRANCH   1   5
ATOM      5  C   UNL A   1      43.364 -20.340 -34.826  0.00  0.00    +0.039 C 
BRANCH   5   6
ATOM      6  C   UNL A   1      42.565 -19.057 -34.661  0.00  0.00    +0.020 C 
BRANCH   6   9
ATOM      7  C   UNL A   1      41.058 -19.308 -32.640  0.00  0.00    +0.246 C 
ATOM      8  O   UNL A   1      40.562 -18.692 -31.699  0.00  0.00    -0.270 OA
ATOM      9  N   UNL A   1      42.174 -18.821 -33.277  0.00  0.00    -0.311 N 
ATOM     10  H   UNL A   1      42.773 -18.252 -32.741  0.00  0.00    +0.000 HD
BRANCH   7  16
ATOM     11  C   UNL A   1      39.247 -20.553 -33.847  0.00  0.00    +0.044 A 
ATOM     12  C   UNL A   1      38.753 -21.782 -34.317  0.00  0.00    -0.040 A 
ATOM     13  C   UNL A   1      39.350 -22.992 -33.955  0.00  0.00    -0.060 A 
ATOM     14  C   UNL A   1      40.473 -23.001 -33.133  0.00  0.00    -0.061 A 
ATOM     15  C   UNL A   1      41.020 -21.794 -32.701  0.00  0.00    -0.048 A 
ATOM     16  C   UNL A   1      40.438 -20.577 -33.091  0.00  0.00    +0.058 A 
BRANCH  11  17
ATOM     17  N   UNL A   1      38.659 -19.324 -34.259  0.00  0.00    -0.314 N 
ATOM     18  H   UNL A   1      39.206 -18.744 -34.835  0.00  0.00    +0.000 HD
BRANCH  17  24
ATOM     19  C   UNL A   1      33.985 -18.136 -35.610  0.00  0.00    -0.039 C 
ATOM     20  C   UNL A   1      35.096 -18.223 -34.596  0.00  0.00    -0.046 A 
ATOM     21  C   UNL A   1      34.855 -17.754 -33.296  0.00  0.00    -0.058 A 
ATOM     22  C   UNL A   1      35.854 -17.802 -32.328  0.00  0.00    -0.060 A 
ATOM     23  C   UNL A   1      37.099 -18.337 -32.644  0.00  0.00    -0.040 A 
ATOM     24  C   UNL A   1      37.360 -18.849 -33.924  0.00  0.00    +0.035 A 
ATOM     25  C   UNL A   1      36.372 -18.735 -34.930  0.00  0.00    -0.026 A 
ATOM     26  C   UNL A   1      36.653 -19.244 -36.323  0.00  0.00    -0.038 C 
ENDBRANCH  17  24
ENDBRANCH  11  17
ENDBRANCH   7  16
ENDBRANCH   6   9
ENDBRANCH   5   6
ENDBRANCH   1   5
BRANCH   3  27
ATOM     27  C   UNL A   1      46.540 -19.467 -36.728  0.00  0.00    +0.012 C 
BRANCH  27  28
ATOM     28  C   UNL A   1      46.808 -17.964 -36.812  0.00  0.00    -0.037 C 
BRANCH  28  29
ATOM     29  C   UNL A   1      47.161 -17.427 -38.206  0.00  0.00    -0.052 C 
BRANCH  29  30
ATOM     30  C   UNL A   1      46.617 -16.043 -38.573  0.00  0.00    -0.052 C 
BRANCH  30  31
ATOM     31  C   UNL A   1      45.661 -15.993 -39.769  0.00  0.00    -0.037 C 
BRANCH  31  32
ATOM     32  C   UNL A   1      44.237 -16.446 -39.455  0.00  0.00    +0.009 C 
BRANCH  32  33
ATOM     33  N   UNL A   1      43.827 -17.470 -40.427  0.00  0.00    -0.343 N 
ATOM     34  H   UNL A   1      43.617 -17.285 -41.371  0.00  0.00    +0.000 HD
BRANCH  33  35
ATOM     35  C   UNL A   1      43.770 -18.767 -39.831  0.00  0.00    +0.041 A 
ATOM     36  C   UNL A   1      42.646 -19.175 -39.085  0.00  0.00    -0.005 A 
ATOM     37  C   UNL A   1      42.605 -20.506 -38.658  0.00  0.00    +0.047 A 
ATOM     38  N   UNL A   1      43.595 -21.397 -38.902  0.00  0.00    -0.251 NA
ATOM     39  C   UNL A   1      44.671 -21.004 -39.594  0.00  0.00    +0.074 A 
ATOM     40  C   UNL A   1      45.675 -21.932 -39.826  0.00  0.00    -0.017 A 
ATOM     41  C   UNL A   1      46.824 -21.593 -40.536  0.00  0.00    +0.043 A 
ATOM     42 CL   UNL A   1      48.046 -22.775 -40.803  0.00  0.00    -0.083 Cl
ATOM     43  C   UNL A   1      46.991 -20.307 -41.029  0.00  0.00    -0.043 A 
ATOM     44  C   UNL A   1      45.992 -19.363 -40.807  0.00  0.00    -0.049 A 
ATOM     45  C   UNL A   1      44.815 -19.695 -40.093  0.00  0.00    +0.022 A 
ATOM     46  C   UNL A   1      41.456 -21.046 -37.843  0.00  0.00    -0.010 C 
ATOM     47  C   UNL A   1      40.187 -20.214 -37.967  0.00  0.00    -0.047 C 
ATOM     48  C   UNL A   1      40.514 -18.746 -37.742  0.00  0.00    -0.049 C 
ATOM     49  C   UNL A   1      41.487 -18.245 -38.809  0.00  0.00    -0.024 C 
ENDBRANCH  33  35
ENDBRANCH  32  33
ENDBRANCH  31  32
ENDBRANCH  30  31
ENDBRANCH  29  30
ENDBRANCH  28  29
ENDBRANCH  27  28
ENDBRANCH   3  27
TORSDOF 14
ENDMDL
MODEL 18
REMARK VINA RESULT:    -6.467      3.116      7.171
REMARK INTER + INTRA:         -15.946
REMARK INTER:                 -11.242
REMARK INTRA:                  -4.704
REMARK UNBOUND:                -4.186
REMARK  Name = cpd13.pdb
REMARK  16 active torsions:
REMARK  status: ('A' for Active; 'I' for Inactive)
REMARK    1  A    between atoms: C_1  and  C_2
REMARK    2  A    between atoms: C_6  and  N_7
REMARK    3  A    between atoms: N_7  and  C_8
REMARK    4  A    between atoms: C_13  and  C_14
REMARK    5  A    between atoms: N_16  and  C_17
REMARK    6  A    between atoms: C_17  and  C_18
REMARK    7  A    between atoms: C_18  and  C_19
REMARK    8  A    between atoms: N_21  and  C_22
REMARK    9  A    between atoms: C_22  and  C_23
REMARK   10  A    between atoms: C_23  and  C_24
REMARK   11  A    between atoms: C_24  and  C_25
REMARK   12  A    between atoms: C_25  and  C_26
REMARK   13  A    between atoms: C_26  and  C_27
REMARK   14  A    between atoms: C_27  and  N_28
REMARK   15  A    between atoms: N_28  and  C_29
REMARK   16  A    between atoms: C_44  and  C_45
REMARK                            x       y       z     vdW  Elec       q    Type
REMARK                         _______ _______ _______ _____ _____    ______ ____
ROOT
ATOM      1  C   UNL A   1      43.779 -14.430 -36.220  0.00  0.00    +0.215 C 
ATOM      2  O   UNL A   1      44.394 -15.091 -37.050  0.00  0.00    -0.276 OA
ATOM      3  N   UNL A   1      42.709 -13.618 -36.528  0.00  0.00    -0.315 N 
ATOM      4  H   UNL A   1      42.285 -13.099 -35.806  0.00  0.00    +0.000 HD
ENDROOT
BRANCH   1   5
ATOM      5  C   UNL A   1      44.162 -14.421 -34.757  0.00  0.00    +0.039 C 
BRANCH   5   6
ATOM      6  C   UNL A   1      43.612 -15.642 -34.036  0.00  0.00    +0.020 C 
BRANCH   6   9
ATOM      7  C   UNL A   1      44.894 -17.439 -32.795  0.00  0.00    +0.246 C 
ATOM      8  O   UNL A   1      45.227 -17.814 -31.672  0.00  0.00    -0.270 OA
ATOM      9  N   UNL A   1      44.519 -16.134 -33.008  0.00  0.00    -0.311 N 
ATOM     10  H   UNL A   1      44.904 -15.461 -32.401  0.00  0.00    +0.000 HD
BRANCH   7  16
ATOM     11  C   UNL A   1      43.904 -19.415 -33.978  0.00  0.00    +0.044 A 
ATOM     12  C   UNL A   1      43.901 -20.251 -35.108  0.00  0.00    -0.040 A 
ATOM     13  C   UNL A   1      44.902 -20.165 -36.080  0.00  0.00    -0.060 A 
ATOM     14  C   UNL A   1      45.919 -19.222 -35.955  0.00  0.00    -0.061 A 
ATOM     15  C   UNL A   1      45.914 -18.342 -34.876  0.00  0.00    -0.048 A 
ATOM     16  C   UNL A   1      44.890 -18.408 -33.917  0.00  0.00    +0.058 A 
BRANCH  11  17
ATOM     17  N   UNL A   1      42.855 -19.481 -33.019  0.00  0.00    -0.314 N 
ATOM     18  H   UNL A   1      43.124 -19.517 -32.073  0.00  0.00    +0.000 HD
BRANCH  17  24
ATOM     19  C   UNL A   1      38.491 -21.934 -33.160  0.00  0.00    -0.039 C 
ATOM     20  C   UNL A   1      39.340 -20.714 -33.401  0.00  0.00    -0.046 A 
ATOM     21  C   UNL A   1      38.740 -19.582 -33.973  0.00  0.00    -0.058 A 
ATOM     22  C   UNL A   1      39.485 -18.434 -34.227  0.00  0.00    -0.060 A 
ATOM     23  C   UNL A   1      40.836 -18.399 -33.895  0.00  0.00    -0.040 A 
ATOM     24  C   UNL A   1      41.458 -19.500 -33.286  0.00  0.00    +0.035 A 
ATOM     25  C   UNL A   1      40.721 -20.693 -33.095  0.00  0.00    -0.026 A 
ATOM     26  C   UNL A   1      41.388 -21.899 -32.480  0.00  0.00    -0.038 C 
ENDBRANCH  17  24
ENDBRANCH  11  17
ENDBRANCH   7  16
ENDBRANCH   6   9
ENDBRANCH   5   6
ENDBRANCH   1   5
BRANCH   3  27
ATOM     27  C   UNL A   1      42.184 -13.501 -37.872  0.00  0.00    +0.012 C 
BRANCH  27  28
ATOM     28  C   UNL A   1      41.362 -14.722 -38.284  0.00  0.00    -0.037 C 
BRANCH  28  29
ATOM     29  C   UNL A   1      40.956 -14.784 -39.763  0.00  0.00    -0.052 C 
BRANCH  29  30
ATOM     30  C   UNL A   1      41.860 -15.596 -40.696  0.00  0.00    -0.052 C 
BRANCH  30  31
ATOM     31  C   UNL A   1      43.364 -15.500 -40.424  0.00  0.00    -0.037 C 
BRANCH  31  32
ATOM     32  C   UNL A   1      44.121 -16.814 -40.600  0.00  0.00    +0.009 C 
BRANCH  32  33
ATOM     33  N   UNL A   1      44.343 -17.429 -39.283  0.00  0.00    -0.343 N 
ATOM     34  H   UNL A   1      44.661 -16.939 -38.491  0.00  0.00    +0.000 HD
BRANCH  33  35
ATOM     35  C   UNL A   1      44.041 -18.824 -39.297  0.00  0.00    +0.041 A 
ATOM     36  C   UNL A   1      42.780 -19.298 -38.879  0.00  0.00    -0.005 A 
ATOM     37  C   UNL A   1      42.512 -20.659 -39.060  0.00  0.00    +0.047 A 
ATOM     38  N   UNL A   1      43.406 -21.531 -39.583  0.00  0.00    -0.251 NA
ATOM     39  C   UNL A   1      44.609 -21.084 -39.962  0.00  0.00    +0.074 A 
ATOM     40  C   UNL A   1      45.510 -21.997 -40.490  0.00  0.00    -0.017 A 
ATOM     41  C   UNL A   1      46.781 -21.604 -40.902  0.00  0.00    +0.043 A 
ATOM     42 CL   UNL A   1      47.869 -22.768 -41.552  0.00  0.00    -0.083 Cl
ATOM     43  C   UNL A   1      47.176 -20.278 -40.791  0.00  0.00    -0.043 A 
ATOM     44  C   UNL A   1      46.283 -19.349 -40.265  0.00  0.00    -0.049 A 
ATOM     45  C   UNL A   1      44.985 -19.732 -39.848  0.00  0.00    +0.022 A 
ATOM     46  C   UNL A   1      41.202 -21.275 -38.638  0.00  0.00    -0.010 C 
ATOM     47  C   UNL A   1      40.077 -20.258 -38.492  0.00  0.00    -0.047 C 
ATOM     48  C   UNL A   1      40.553 -19.089 -37.643  0.00  0.00    -0.049 C 
ATOM     49  C   UNL A   1      41.721 -18.375 -38.323  0.00  0.00    -0.024 C 
ENDBRANCH  33  35
ENDBRANCH  32  33
ENDBRANCH  31  32
ENDBRANCH  30  31
ENDBRANCH  29  30
ENDBRANCH  28  29
ENDBRANCH  27  28
ENDBRANCH   3  27
TORSDOF 14
ENDMDL
MODEL 19
REMARK VINA RESULT:    -6.389      2.739      4.726
REMARK INTER + INTRA:         -15.805
REMARK INTER:                 -12.047
REMARK INTRA:                  -3.758
REMARK UNBOUND:                -4.186
REMARK  Name = cpd13.pdb
REMARK  16 active torsions:
REMARK  status: ('A' for Active; 'I' for Inactive)
REMARK    1  A    between atoms: C_1  and  C_2
REMARK    2  A    between atoms: C_6  and  N_7
REMARK    3  A    between atoms: N_7  and  C_8
REMARK    4  A    between atoms: C_13  and  C_14
REMARK    5  A    between atoms: N_16  and  C_17
REMARK    6  A    between atoms: C_17  and  C_18
REMARK    7  A    between atoms: C_18  and  C_19
REMARK    8  A    between atoms: N_21  and  C_22
REMARK    9  A    between atoms: C_22  and  C_23
REMARK   10  A    between atoms: C_23  and  C_24
REMARK   11  A    between atoms: C_24  and  C_25
REMARK   12  A    between atoms: C_25  and  C_26
REMARK   13  A    between atoms: C_26  and  C_27
REMARK   14  A    between atoms: C_27  and  N_28
REMARK   15  A    between atoms: N_28  and  C_29
REMARK   16  A    between atoms: C_44  and  C_45
REMARK                            x       y       z     vdW  Elec       q    Type
REMARK                         _______ _______ _______ _____ _____    ______ ____
ROOT
ATOM      1  C   UNL A   1      42.583 -15.277 -36.891  0.00  0.00    +0.215 C 
ATOM      2  O   UNL A   1      41.794 -14.914 -37.757  0.00  0.00    -0.276 OA
ATOM      3  N   UNL A   1      42.215 -15.991 -35.771  0.00  0.00    -0.315 N 
ATOM      4  H   UNL A   1      42.906 -16.222 -35.109  0.00  0.00    +0.000 HD
ENDROOT
BRANCH   1   5
ATOM      5  C   UNL A   1      44.057 -14.946 -36.957  0.00  0.00    +0.039 C 
BRANCH   5   6
ATOM      6  C   UNL A   1      44.708 -15.572 -38.181  0.00  0.00    +0.020 C 
BRANCH   6   9
ATOM      7  C   UNL A   1      46.925 -16.340 -37.226  0.00  0.00    +0.246 C 
ATOM      8  O   UNL A   1      48.036 -15.946 -36.878  0.00  0.00    -0.270 OA
ATOM      9  N   UNL A   1      46.162 -15.589 -38.089  0.00  0.00    -0.311 N 
ATOM     10  H   UNL A   1      46.649 -15.002 -38.710  0.00  0.00    +0.000 HD
BRANCH   7  16
ATOM     11  C   UNL A   1      46.270 -18.737 -37.559  0.00  0.00    +0.044 A 
ATOM     12  C   UNL A   1      45.853 -19.951 -36.987  0.00  0.00    -0.040 A 
ATOM     13  C   UNL A   1      45.478 -20.030 -35.643  0.00  0.00    -0.060 A 
ATOM     14  C   UNL A   1      45.535 -18.899 -34.832  0.00  0.00    -0.061 A 
ATOM     15  C   UNL A   1      46.000 -17.697 -35.359  0.00  0.00    -0.048 A 
ATOM     16  C   UNL A   1      46.407 -17.626 -36.701  0.00  0.00    +0.058 A 
BRANCH  11  17
ATOM     17  N   UNL A   1      46.692 -18.678 -38.917  0.00  0.00    -0.314 N 
ATOM     18  H   UNL A   1      47.621 -18.394 -39.078  0.00  0.00    +0.000 HD
BRANCH  17  24
ATOM     19  C   UNL A   1      45.427 -21.841 -42.588  0.00  0.00    -0.039 C 
ATOM     20  C   UNL A   1      45.332 -20.512 -41.884  0.00  0.00    -0.046 A 
ATOM     21  C   UNL A   1      44.493 -19.526 -42.424  0.00  0.00    -0.058 A 
ATOM     22  C   UNL A   1      44.381 -18.279 -41.817  0.00  0.00    -0.060 A 
ATOM     23  C   UNL A   1      45.093 -18.010 -40.652  0.00  0.00    -0.040 A 
ATOM     24  C   UNL A   1      45.911 -18.987 -40.065  0.00  0.00    +0.035 A 
ATOM     25  C   UNL A   1      46.084 -20.229 -40.719  0.00  0.00    -0.026 A 
ATOM     26  C   UNL A   1      46.993 -21.275 -40.121  0.00  0.00    -0.038 C 
ENDBRANCH  17  24
ENDBRANCH  11  17
ENDBRANCH   7  16
ENDBRANCH   6   9
ENDBRANCH   5   6
ENDBRANCH   1   5
BRANCH   3  27
ATOM     27  C   UNL A   1      40.851 -16.413 -35.532  0.00  0.00    +0.012 C 
BRANCH  27  28
ATOM     28  C   UNL A   1      40.767 -17.582 -34.550  0.00  0.00    -0.037 C 
BRANCH  28  29
ATOM     29  C   UNL A   1      41.979 -18.524 -34.531  0.00  0.00    -0.052 C 
BRANCH  29  30
ATOM     30  C   UNL A   1      42.277 -19.242 -33.210  0.00  0.00    -0.052 C 
BRANCH  30  31
ATOM     31  C   UNL A   1      41.196 -20.206 -32.712  0.00  0.00    -0.037 C 
BRANCH  31  32
ATOM     32  C   UNL A   1      41.505 -21.680 -32.962  0.00  0.00    +0.009 C 
BRANCH  32  33
ATOM     33  N   UNL A   1      40.290 -22.357 -33.441  0.00  0.00    -0.343 N 
ATOM     34  H   UNL A   1      39.986 -23.238 -33.124  0.00  0.00    +0.000 HD
BRANCH  33  35
ATOM     35  C   UNL A   1      39.608 -21.577 -34.424  0.00  0.00    +0.041 A 
ATOM     36  C   UNL A   1      38.388 -20.936 -34.123  0.00  0.00    -0.005 A 
ATOM     37  C   UNL A   1      37.858 -20.075 -35.090  0.00  0.00    +0.047 A 
ATOM     38  N   UNL A   1      38.442 -19.858 -36.293  0.00  0.00    -0.251 NA
ATOM     39  C   UNL A   1      39.589 -20.482 -36.585  0.00  0.00    +0.074 A 
ATOM     40  C   UNL A   1      40.164 -20.248 -37.825  0.00  0.00    -0.017 A 
ATOM     41  C   UNL A   1      41.356 -20.864 -38.198  0.00  0.00    +0.043 A 
ATOM     42 CL   UNL A   1      42.038 -20.547 -39.746  0.00  0.00    -0.083 Cl
ATOM     43  C   UNL A   1      41.998 -21.735 -37.329  0.00  0.00    -0.043 A 
ATOM     44  C   UNL A   1      41.435 -21.980 -36.079  0.00  0.00    -0.049 A 
ATOM     45  C   UNL A   1      40.227 -21.355 -35.683  0.00  0.00    +0.022 A 
ATOM     46  C   UNL A   1      36.555 -19.347 -34.880  0.00  0.00    -0.010 C 
ATOM     47  C   UNL A   1      36.160 -19.232 -33.414  0.00  0.00    -0.047 C 
ATOM     48  C   UNL A   1      36.262 -20.595 -32.748  0.00  0.00    -0.049 C 
ATOM     49  C   UNL A   1      37.703 -21.103 -32.787  0.00  0.00    -0.024 C 
ENDBRANCH  33  35
ENDBRANCH  32  33
ENDBRANCH  31  32
ENDBRANCH  30  31
ENDBRANCH  29  30
ENDBRANCH  28  29
ENDBRANCH  27  28
ENDBRANCH   3  27
TORSDOF 14
ENDMDL
MODEL 20
REMARK VINA RESULT:    -6.318      2.454      4.786
REMARK INTER + INTRA:         -15.676
REMARK INTER:                  -9.908
REMARK INTRA:                  -5.768
REMARK UNBOUND:                -4.186
REMARK  Name = cpd13.pdb
REMARK  16 active torsions:
REMARK  status: ('A' for Active; 'I' for Inactive)
REMARK    1  A    between atoms: C_1  and  C_2
REMARK    2  A    between atoms: C_6  and  N_7
REMARK    3  A    between atoms: N_7  and  C_8
REMARK    4  A    between atoms: C_13  and  C_14
REMARK    5  A    between atoms: N_16  and  C_17
REMARK    6  A    between atoms: C_17  and  C_18
REMARK    7  A    between atoms: C_18  and  C_19
REMARK    8  A    between atoms: N_21  and  C_22
REMARK    9  A    between atoms: C_22  and  C_23
REMARK   10  A    between atoms: C_23  and  C_24
REMARK   11  A    between atoms: C_24  and  C_25
REMARK   12  A    between atoms: C_25  and  C_26
REMARK   13  A    between atoms: C_26  and  C_27
REMARK   14  A    between atoms: C_27  and  N_28
REMARK   15  A    between atoms: N_28  and  C_29
REMARK   16  A    between atoms: C_44  and  C_45
REMARK                            x       y       z     vdW  Elec       q    Type
REMARK                         _______ _______ _______ _____ _____    ______ ____
ROOT
ATOM      1  C   UNL A   1      43.743 -15.998 -40.253  0.00  0.00    +0.215 C 
ATOM      2  O   UNL A   1      44.233 -14.874 -40.261  0.00  0.00    -0.276 OA
ATOM      3  N   UNL A   1      42.476 -16.278 -39.789  0.00  0.00    -0.315 N 
ATOM      4  H   UNL A   1      42.166 -17.212 -39.793  0.00  0.00    +0.000 HD
ENDROOT
BRANCH   1   5
ATOM      5  C   UNL A   1      44.508 -17.210 -40.734  0.00  0.00    +0.039 C 
BRANCH   5   6
ATOM      6  C   UNL A   1      43.696 -18.483 -40.548  0.00  0.00    +0.020 C 
BRANCH   6   9
ATOM      7  C   UNL A   1      44.584 -20.739 -39.814  0.00  0.00    +0.246 C 
ATOM      8  O   UNL A   1      45.602 -21.424 -39.756  0.00  0.00    -0.270 OA
ATOM      9  N   UNL A   1      44.506 -19.685 -40.693  0.00  0.00    -0.311 N 
ATOM     10  H   UNL A   1      45.056 -19.749 -41.507  0.00  0.00    +0.000 HD
BRANCH   7  16
ATOM     11  C   UNL A   1      43.483 -20.674 -37.562  0.00  0.00    +0.044 A 
ATOM     12  C   UNL A   1      42.338 -20.920 -36.786  0.00  0.00    -0.040 A 
ATOM     13  C   UNL A   1      41.242 -21.613 -37.306  0.00  0.00    -0.060 A 
ATOM     14  C   UNL A   1      41.256 -22.055 -38.627  0.00  0.00    -0.061 A 
ATOM     15  C   UNL A   1      42.354 -21.773 -39.436  0.00  0.00    -0.048 A 
ATOM     16  C   UNL A   1      43.441 -21.049 -38.921  0.00  0.00    +0.058 A 
BRANCH  11  17
ATOM     17  N   UNL A   1      44.575 -19.928 -37.035  0.00  0.00    -0.314 N 
ATOM     18  H   UNL A   1      45.313 -20.446 -36.641  0.00  0.00    +0.000 HD
BRANCH  17  24
ATOM     19  C   UNL A   1      47.354 -15.821 -37.733  0.00  0.00    -0.039 C 
ATOM     20  C   UNL A   1      46.083 -16.512 -37.314  0.00  0.00    -0.046 A 
ATOM     21  C   UNL A   1      45.024 -15.731 -36.829  0.00  0.00    -0.058 A 
ATOM     22  C   UNL A   1      43.834 -16.325 -36.418  0.00  0.00    -0.060 A 
ATOM     23  C   UNL A   1      43.684 -17.706 -36.504  0.00  0.00    -0.040 A 
ATOM     24  C   UNL A   1      44.710 -18.512 -37.021  0.00  0.00    +0.035 A 
ATOM     25  C   UNL A   1      45.946 -17.919 -37.370  0.00  0.00    -0.026 A 
ATOM     26  C   UNL A   1      47.073 -18.779 -37.888  0.00  0.00    -0.038 C 
ENDBRANCH  17  24
ENDBRANCH  11  17
ENDBRANCH   7  16
ENDBRANCH   6   9
ENDBRANCH   5   6
ENDBRANCH   1   5
BRANCH   3  27
ATOM     27  C   UNL A   1      41.584 -15.248 -39.298  0.00  0.00    +0.012 C 
BRANCH  27  28
ATOM     28  C   UNL A   1      40.159 -15.414 -39.825  0.00  0.00    -0.037 C 
BRANCH  28  29
ATOM     29  C   UNL A   1      39.299 -16.462 -39.105  0.00  0.00    -0.052 C 
BRANCH  29  30
ATOM     30  C   UNL A   1      39.574 -16.676 -37.613  0.00  0.00    -0.052 C 
BRANCH  30  31
ATOM     31  C   UNL A   1      39.732 -18.132 -37.162  0.00  0.00    -0.037 C 
BRANCH  31  32
ATOM     32  C   UNL A   1      38.486 -18.728 -36.510  0.00  0.00    +0.009 C 
BRANCH  32  33
ATOM     33  N   UNL A   1      38.454 -18.352 -35.088  0.00  0.00    -0.343 N 
ATOM     34  H   UNL A   1      37.783 -17.753 -34.690  0.00  0.00    +0.000 HD
BRANCH  33  35
ATOM     35  C   UNL A   1      39.518 -18.966 -34.359  0.00  0.00    +0.041 A 
ATOM     36  C   UNL A   1      39.569 -20.364 -34.187  0.00  0.00    -0.005 A 
ATOM     37  C   UNL A   1      40.715 -20.898 -33.589  0.00  0.00    +0.047 A 
ATOM     38  N   UNL A   1      41.747 -20.140 -33.149  0.00  0.00    -0.251 NA
ATOM     39  C   UNL A   1      41.690 -18.810 -33.295  0.00  0.00    +0.074 A 
ATOM     40  C   UNL A   1      42.756 -18.054 -32.832  0.00  0.00    -0.017 A 
ATOM     41  C   UNL A   1      42.764 -16.667 -32.948  0.00  0.00    +0.043 A 
ATOM     42 CL   UNL A   1      44.107 -15.765 -32.361  0.00  0.00    -0.083 Cl
ATOM     43  C   UNL A   1      41.694 -16.005 -33.534  0.00  0.00    -0.043 A 
ATOM     44  C   UNL A   1      40.616 -16.749 -34.006  0.00  0.00    -0.049 A 
ATOM     45  C   UNL A   1      40.597 -18.161 -33.902  0.00  0.00    +0.022 A 
ATOM     46  C   UNL A   1      40.870 -22.378 -33.344  0.00  0.00    -0.010 C 
ATOM     47  C   UNL A   1      39.963 -23.231 -34.222  0.00  0.00    -0.047 C 
ATOM     48  C   UNL A   1      38.539 -22.703 -34.150  0.00  0.00    -0.049 C 
ATOM     49  C   UNL A   1      38.471 -21.273 -34.688  0.00  0.00    -0.024 C 
ENDBRANCH  33  35
ENDBRANCH  32  33
ENDBRANCH  31  32
ENDBRANCH  30  31
ENDBRANCH  29  30
ENDBRANCH  28  29
ENDBRANCH  27  28
ENDBRANCH   3  27
TORSDOF 14
ENDMDL
