REMARK  Name = cpd13.pdb
REMARK  16 active torsions:
REMARK  status: ('A' for Active; 'I' for Inactive)
REMARK    1  A    between atoms: C_1  and  C_2
REMARK    2  A    between atoms: C_6  and  N_7
REMARK    3  A    between atoms: N_7  and  C_8
REMARK    4  A    between atoms: C_13  and  C_14
REMARK    5  A    between atoms: N_16  and  C_17
REMARK    6  A    between atoms: C_17  and  C_18
REMARK    7  A    between atoms: C_18  and  C_19
REMARK    8  A    between atoms: N_21  and  C_22
REMARK    9  A    between atoms: C_22  and  C_23
REMARK   10  A    between atoms: C_23  and  C_24
REMARK   11  A    between atoms: C_24  and  C_25
REMARK   12  A    between atoms: C_25  and  C_26
REMARK   13  A    between atoms: C_26  and  C_27
REMARK   14  A    between atoms: C_27  and  N_28
REMARK   15  A    between atoms: N_28  and  C_29
REMARK   16  A    between atoms: C_44  and  C_45
REMARK                            x       y       z     vdW  Elec       q    Type
REMARK                         _______ _______ _______ _____ _____    ______ ____
ROOT
ATOM      1  C   UNL A   1       5.702   5.932   0.524  0.00  0.00    +0.215 C 
ATOM      2  O   UNL A   1       6.112   6.150  -0.611  0.00  0.00    -0.276 OA
ATOM      3  N   UNL A   1       6.523   5.638   1.591  0.00  0.00    -0.315 N 
ATOM      4  H   UNL A   1       6.113   5.449   2.466  0.00  0.00    +0.000 HD
ENDROOT
BRANCH   1   5
ATOM      5  C   UNL A   1       4.228   5.936   0.860  0.00  0.00    +0.039 C 
BRANCH   5   6
ATOM      6  C   UNL A   1       3.666   4.523   0.887  0.00  0.00    +0.020 C 
BRANCH   6   9
ATOM      7  C   UNL A   1       2.304   3.400  -0.930  0.00  0.00    +0.246 C 
ATOM      8  O   UNL A   1       2.363   2.566  -1.831  0.00  0.00    -0.270 OA
ATOM      9  N   UNL A   1       3.452   3.985  -0.450  0.00  0.00    -0.311 N 
ATOM     10  H   UNL A   1       4.209   4.047  -1.076  0.00  0.00    +0.000 HD
BRANCH   7  16
ATOM     11  C   UNL A   1       0.055   2.757  -0.028  0.00  0.00    +0.044 A 
ATOM     12  C   UNL A   1      -1.142   3.157   0.590  0.00  0.00    -0.040 A 
ATOM     13  C   UNL A   1      -1.451   4.508   0.771  0.00  0.00    -0.060 A 
ATOM     14  C   UNL A   1      -0.556   5.492   0.359  0.00  0.00    -0.061 A 
ATOM     15  C   UNL A   1       0.664   5.122  -0.203  0.00  0.00    -0.048 A 
ATOM     16  C   UNL A   1       0.987   3.764  -0.355  0.00  0.00    +0.058 A 
BRANCH  11  17
ATOM     17  N   UNL A   1       0.379   1.378  -0.166  0.00  0.00    -0.314 N 
ATOM     18  H   UNL A   1       1.335   1.145  -0.140  0.00  0.00    +0.000 HD
BRANCH  17  24
ATOM     19  C   UNL A   1      -0.914  -3.394   0.632  0.00  0.00    -0.039 C 
ATOM     20  C   UNL A   1      -1.140  -2.040   0.012  0.00  0.00    -0.046 A 
ATOM     21  C   UNL A   1      -2.257  -1.860  -0.817  0.00  0.00    -0.058 A 
ATOM     22  C   UNL A   1      -2.502  -0.631  -1.422  0.00  0.00    -0.060 A 
ATOM     23  C   UNL A   1      -1.641   0.438  -1.191  0.00  0.00    -0.040 A 
ATOM     24  C   UNL A   1      -0.536   0.302  -0.337  0.00  0.00    +0.035 A 
ATOM     25  C   UNL A   1      -0.244  -0.965   0.221  0.00  0.00    -0.026 A 
ATOM     26  C   UNL A   1       0.965  -1.136   1.108  0.00  0.00    -0.038 C 
ENDBRANCH  17  24
ENDBRANCH  11  17
ENDBRANCH   7  16
ENDBRANCH   6   9
ENDBRANCH   5   6
ENDBRANCH   1   5
BRANCH   3  27
ATOM     27  C   UNL A   1       7.966   5.597   1.473  0.00  0.00    +0.012 C 
BRANCH  27  28
ATOM     28  C   UNL A   1       8.514   4.171   1.535  0.00  0.00    -0.037 C 
BRANCH  28  29
ATOM     29  C   UNL A   1       8.091   3.244   0.387  0.00  0.00    -0.052 C 
BRANCH  29  30
ATOM     30  C   UNL A   1       8.468   3.682  -1.032  0.00  0.00    -0.052 C 
BRANCH  30  31
ATOM     31  C   UNL A   1       9.875   3.298  -1.501  0.00  0.00    -0.037 C 
BRANCH  31  32
ATOM     32  C   UNL A   1      11.002   4.019  -0.766  0.00  0.00    +0.009 C 
BRANCH  32  33
ATOM     33  N   UNL A   1      12.249   3.883  -1.534  0.00  0.00    -0.343 N 
ATOM     34  H   UNL A   1      12.310   3.457  -2.419  0.00  0.00    +0.000 HD
BRANCH  33  35
ATOM     35  C   UNL A   1      13.360   4.446  -0.835  0.00  0.00    +0.041 A 
ATOM     36  C   UNL A   1      13.705   5.804  -0.993  0.00  0.00    -0.005 A 
ATOM     37  C   UNL A   1      14.712   6.313  -0.166  0.00  0.00    +0.047 A 
ATOM     38  N   UNL A   1      15.378   5.563   0.744  0.00  0.00    -0.251 NA
ATOM     39  C   UNL A   1      15.063   4.269   0.880  0.00  0.00    +0.074 A 
ATOM     40  C   UNL A   1      15.763   3.520   1.814  0.00  0.00    -0.017 A 
ATOM     41  C   UNL A   1      15.491   2.168   2.008  0.00  0.00    +0.043 A 
ATOM     42 CL   UNL A   1      16.382   1.274   3.178  0.00  0.00    -0.083 Cl
ATOM     43  C   UNL A   1      14.506   1.536   1.262  0.00  0.00    -0.043 A 
ATOM     44  C   UNL A   1      13.793   2.274   0.321  0.00  0.00    -0.049 A 
ATOM     45  C   UNL A   1      14.053   3.651   0.118  0.00  0.00    +0.022 A 
ATOM     46  C   UNL A   1      15.169   7.747  -0.258  0.00  0.00    -0.010 C 
ATOM     47  C   UNL A   1      14.147   8.663  -0.919  0.00  0.00    -0.047 C 
ATOM     48  C   UNL A   1      13.674   8.043  -2.224  0.00  0.00    -0.049 C 
ATOM     49  C   UNL A   1      12.978   6.708  -1.961  0.00  0.00    -0.024 C 
ENDBRANCH  33  35
ENDBRANCH  32  33
ENDBRANCH  31  32
ENDBRANCH  30  31
ENDBRANCH  29  30
ENDBRANCH  28  29
ENDBRANCH  27  28
ENDBRANCH   3  27
TORSDOF 14
