REMARK  Name = cpd330.pdb
REMARK  7 active torsions:
REMARK  status: ('A' for Active; 'I' for Inactive)
REMARK    1  A    between atoms: C_1  and  O_2
REMARK    2  A    between atoms: O_2  and  C_3
REMARK    3  A    between atoms: C_9  and  C_10
REMARK    4  A    between atoms: C_10  and  C_12
REMARK    5  A    between atoms: C_13  and  C_14
REMARK    6  A    between atoms: N_18  and  C_19
REMARK    7  A    between atoms: C_19  and  C_20
REMARK                            x       y       z     vdW  Elec       q    Type
REMARK                         _______ _______ _______ _____ _____    ______ ____
ROOT
ATOM      1  C   UNL A   1      -3.231   0.124   0.952  0.00  0.00    -0.011 C 
ATOM      2  C   UNL A   1      -3.484  -0.966   0.209  0.00  0.00    -0.049 C 
ENDROOT
BRANCH   2   3
ATOM      3  C   UNL A   1      -4.790  -1.628   0.065  0.00  0.00    -0.009 A 
ATOM      4  C   UNL A   1      -4.817  -2.975  -0.295  0.00  0.00    -0.052 A 
ATOM      5  C   UNL A   1      -6.030  -3.606  -0.539  0.00  0.00    -0.045 A 
ATOM      6  C   UNL A   1      -7.205  -2.874  -0.456  0.00  0.00    +0.005 A 
ATOM      7  N   UNL A   1      -7.184  -1.559  -0.129  0.00  0.00    -0.348 N 
ATOM      8  C   UNL A   1      -6.007  -0.947   0.167  0.00  0.00    +0.012 A 
BRANCH   7   9
ATOM      9  C   UNL A   1      -8.489  -0.834  -0.076  0.00  0.00    +0.048 C 
BRANCH   9  10
ATOM     10  C   UNL A   1      -8.396   0.655  -0.299  0.00  0.00    -0.028 A 
ATOM     11  C   UNL A   1      -8.895   1.540   0.671  0.00  0.00    -0.056 A 
ATOM     12  C   UNL A   1      -8.785   2.921   0.496  0.00  0.00    -0.047 A 
ATOM     13  C   UNL A   1      -8.179   3.428  -0.650  0.00  0.00    +0.018 A 
ATOM     14 BR   UNL A   1      -8.005   5.296  -0.870  0.00  0.00    -0.050 Br
ATOM     15  C   UNL A   1      -7.701   2.566  -1.634  0.00  0.00    -0.047 A 
ATOM     16  C   UNL A   1      -7.823   1.184  -1.469  0.00  0.00    -0.056 A 
ENDBRANCH   9  10
ENDBRANCH   7   9
ENDBRANCH   2   3
BRANCH   1  17
ATOM     17  C   UNL A   1      -1.902   0.820   0.986  0.00  0.00    +0.221 C 
ATOM     18  O   UNL A   1      -1.943   2.038   1.151  0.00  0.00    -0.284 OA
BRANCH  17  25
ATOM     19  C   UNL A   1       2.715   0.022  -0.256  0.00  0.00    +0.163 A 
ATOM     20  C   UNL A   1       3.579  -1.081  -0.290  0.00  0.00    -0.016 A 
ATOM     21  C   UNL A   1       3.174  -2.336   0.174  0.00  0.00    -0.058 A 
ATOM     22  C   UNL A   1       1.883  -2.538   0.680  0.00  0.00    -0.051 A 
ATOM     23  C   UNL A   1       0.990  -1.453   0.697  0.00  0.00    +0.025 A 
ATOM     24  C   UNL A   1      -0.356  -1.262   1.102  0.00  0.00    -0.005 A 
ATOM     25  C   UNL A   1      -0.682   0.055   0.830  0.00  0.00    +0.176 A 
ATOM     26  O   UNL A   1       0.415   0.694   0.321  0.00  0.00    -0.448 OA
ATOM     27  C   UNL A   1       1.425  -0.219   0.227  0.00  0.00    +0.177 A 
BRANCH  19  29
ATOM     28  C   UNL A   1       4.348   1.696  -0.317  0.00  0.00    +0.079 C 
ATOM     29  O   UNL A   1       3.047   1.268  -0.713  0.00  0.00    -0.491 OA
ENDBRANCH  19  29
ENDBRANCH  17  25
ENDBRANCH   1  17
TORSDOF 6
