MODEL 1
REMARK VINA RESULT:   -10.162      0.000      0.000
REMARK INTER + INTRA:         -14.444
REMARK INTER:                 -13.727
REMARK INTRA:                  -0.718
REMARK UNBOUND:                -0.718
REMARK  Name = cpd330.pdb
REMARK  7 active torsions:
REMARK  status: ('A' for Active; 'I' for Inactive)
REMARK    1  A    between atoms: C_1  and  O_2
REMARK    2  A    between atoms: O_2  and  C_3
REMARK    3  A    between atoms: C_9  and  C_10
REMARK    4  A    between atoms: C_10  and  C_12
REMARK    5  A    between atoms: C_13  and  C_14
REMARK    6  A    between atoms: N_18  and  C_19
REMARK    7  A    between atoms: C_19  and  C_20
REMARK                            x       y       z     vdW  Elec       q    Type
REMARK                         _______ _______ _______ _____ _____    ______ ____
ROOT
ATOM      1  C   UNL A   1      43.252 -39.163 -28.828  0.00  0.00    -0.011 C 
ATOM      2  C   UNL A   1      42.890 -39.118 -30.121  0.00  0.00    -0.049 C 
ENDROOT
BRANCH   2   3
ATOM      3  C   UNL A   1      41.869 -38.230 -30.701  0.00  0.00    -0.009 A 
ATOM      4  C   UNL A   1      42.199 -37.489 -31.835  0.00  0.00    -0.052 A 
ATOM      5  C   UNL A   1      41.298 -36.566 -32.350  0.00  0.00    -0.045 A 
ATOM      6  C   UNL A   1      40.088 -36.365 -31.703  0.00  0.00    +0.005 A 
ATOM      7  N   UNL A   1      39.770 -37.066 -30.587  0.00  0.00    -0.348 N 
ATOM      8  C   UNL A   1      40.621 -38.012 -30.109  0.00  0.00    +0.012 A 
BRANCH   7   9
ATOM      9  C   UNL A   1      38.455 -36.782 -29.938  0.00  0.00    +0.048 C 
BRANCH   9  10
ATOM     10  C   UNL A   1      37.528 -37.968 -29.842  0.00  0.00    -0.028 A 
ATOM     11  C   UNL A   1      37.675 -38.888 -28.791  0.00  0.00    -0.056 A 
ATOM     12  C   UNL A   1      36.803 -39.971 -28.668  0.00  0.00    -0.047 A 
ATOM     13  C   UNL A   1      35.779 -40.145 -29.595  0.00  0.00    +0.018 A 
ATOM     14 BR   UNL A   1      34.582 -41.594 -29.409  0.00  0.00    -0.050 Br
ATOM     15  C   UNL A   1      35.633 -39.257 -30.658  0.00  0.00    -0.047 A 
ATOM     16  C   UNL A   1      36.513 -38.180 -30.792  0.00  0.00    -0.056 A 
ENDBRANCH   9  10
ENDBRANCH   7   9
ENDBRANCH   2   3
BRANCH   1  17
ATOM     17  C   UNL A   1      44.369 -40.017 -28.305  0.00  0.00    +0.221 C 
ATOM     18  O   UNL A   1      44.204 -40.477 -27.176  0.00  0.00    -0.284 OA
BRANCH  17  25
ATOM     19  C   UNL A   1      48.830 -39.192 -30.014  0.00  0.00    +0.163 A 
ATOM     20  C   UNL A   1      49.647 -39.733 -31.015  0.00  0.00    -0.016 A 
ATOM     21  C   UNL A   1      49.239 -40.838 -31.768  0.00  0.00    -0.058 A 
ATOM     22  C   UNL A   1      47.991 -41.437 -31.555  0.00  0.00    -0.051 A 
ATOM     23  C   UNL A   1      47.142 -40.893 -30.576  0.00  0.00    +0.025 A 
ATOM     24  C   UNL A   1      45.844 -41.192 -30.089  0.00  0.00    -0.005 A 
ATOM     25  C   UNL A   1      45.543 -40.250 -29.121  0.00  0.00    +0.176 A 
ATOM     26  O   UNL A   1      46.614 -39.415 -28.958  0.00  0.00    -0.448 OA
ATOM     27  C   UNL A   1      47.579 -39.794 -29.846  0.00  0.00    +0.177 A 
BRANCH  19  29
ATOM     28  C   UNL A   1      48.766 -36.860 -29.834  0.00  0.00    +0.079 C 
ATOM     29  O   UNL A   1      49.165 -38.102 -29.259  0.00  0.00    -0.491 OA
ENDBRANCH  19  29
ENDBRANCH  17  25
ENDBRANCH   1  17
TORSDOF 6
ENDMDL
MODEL 2
REMARK VINA RESULT:    -8.727      5.393      8.159
REMARK INTER + INTRA:         -12.507
REMARK INTER:                 -11.832
REMARK INTRA:                  -0.675
REMARK UNBOUND:                -0.718
REMARK  Name = cpd330.pdb
REMARK  7 active torsions:
REMARK  status: ('A' for Active; 'I' for Inactive)
REMARK    1  A    between atoms: C_1  and  O_2
REMARK    2  A    between atoms: O_2  and  C_3
REMARK    3  A    between atoms: C_9  and  C_10
REMARK    4  A    between atoms: C_10  and  C_12
REMARK    5  A    between atoms: C_13  and  C_14
REMARK    6  A    between atoms: N_18  and  C_19
REMARK    7  A    between atoms: C_19  and  C_20
REMARK                            x       y       z     vdW  Elec       q    Type
REMARK                         _______ _______ _______ _____ _____    ______ ____
ROOT
ATOM      1  C   UNL A   1      36.973 -37.648 -28.626  0.00  0.00    -0.011 C 
ATOM      2  C   UNL A   1      36.239 -37.561 -27.505  0.00  0.00    -0.049 C 
ENDROOT
BRANCH   2   3
ATOM      3  C   UNL A   1      34.899 -36.965 -27.395  0.00  0.00    -0.009 A 
ATOM      4  C   UNL A   1      34.480 -36.082 -28.389  0.00  0.00    -0.052 A 
ATOM      5  C   UNL A   1      33.264 -35.422 -28.267  0.00  0.00    -0.045 A 
ATOM      6  C   UNL A   1      32.492 -35.625 -27.133  0.00  0.00    +0.005 A 
ATOM      7  N   UNL A   1      32.904 -36.464 -26.152  0.00  0.00    -0.348 N 
ATOM      8  C   UNL A   1      34.066 -37.157 -26.288  0.00  0.00    +0.012 A 
BRANCH   7   9
ATOM      9  C   UNL A   1      32.027 -36.618 -24.953  0.00  0.00    +0.048 C 
BRANCH   9  10
ATOM     10  C   UNL A   1      32.700 -37.229 -23.749  0.00  0.00    -0.028 A 
ATOM     11  C   UNL A   1      32.395 -38.547 -23.371  0.00  0.00    -0.056 A 
ATOM     12  C   UNL A   1      33.035 -39.139 -22.281  0.00  0.00    -0.047 A 
ATOM     13  C   UNL A   1      33.982 -38.419 -21.558  0.00  0.00    +0.018 A 
ATOM     14 BR   UNL A   1      34.868 -39.233 -20.102  0.00  0.00    -0.050 Br
ATOM     15  C   UNL A   1      34.279 -37.103 -21.903  0.00  0.00    -0.047 A 
ATOM     16  C   UNL A   1      33.629 -36.502 -22.984  0.00  0.00    -0.056 A 
ENDBRANCH   9  10
ENDBRANCH   7   9
ENDBRANCH   2   3
BRANCH   1  17
ATOM     17  C   UNL A   1      38.294 -38.356 -28.706  0.00  0.00    +0.221 C 
ATOM     18  O   UNL A   1      38.347 -39.449 -28.143  0.00  0.00    -0.284 OA
BRANCH  17  25
ATOM     19  C   UNL A   1      40.437 -35.528 -32.008  0.00  0.00    +0.163 A 
ATOM     20  C   UNL A   1      41.750 -35.277 -32.428  0.00  0.00    -0.016 A 
ATOM     21  C   UNL A   1      42.843 -35.874 -31.794  0.00  0.00    -0.058 A 
ATOM     22  C   UNL A   1      42.662 -36.757 -30.721  0.00  0.00    -0.051 A 
ATOM     23  C   UNL A   1      41.352 -37.047 -30.301  0.00  0.00    +0.025 A 
ATOM     24  C   UNL A   1      40.773 -37.868 -29.300  0.00  0.00    -0.005 A 
ATOM     25  C   UNL A   1      39.400 -37.744 -29.414  0.00  0.00    +0.176 A 
ATOM     26  O   UNL A   1      39.109 -36.850 -30.407  0.00  0.00    -0.448 OA
ATOM     27  C   UNL A   1      40.288 -36.435 -30.955  0.00  0.00    +0.177 A 
BRANCH  19  29
ATOM     28  C   UNL A   1      38.842 -33.818 -31.949  0.00  0.00    +0.079 C 
ATOM     29  O   UNL A   1      39.328 -34.989 -32.601  0.00  0.00    -0.491 OA
ENDBRANCH  19  29
ENDBRANCH  17  25
ENDBRANCH   1  17
TORSDOF 6
ENDMDL
MODEL 3
REMARK VINA RESULT:    -8.279      6.847      9.253
REMARK INTER + INTRA:         -11.900
REMARK INTER:                 -11.260
REMARK INTRA:                  -0.641
REMARK UNBOUND:                -0.718
REMARK  Name = cpd330.pdb
REMARK  7 active torsions:
REMARK  status: ('A' for Active; 'I' for Inactive)
REMARK    1  A    between atoms: C_1  and  O_2
REMARK    2  A    between atoms: O_2  and  C_3
REMARK    3  A    between atoms: C_9  and  C_10
REMARK    4  A    between atoms: C_10  and  C_12
REMARK    5  A    between atoms: C_13  and  C_14
REMARK    6  A    between atoms: N_18  and  C_19
REMARK    7  A    between atoms: C_19  and  C_20
REMARK                            x       y       z     vdW  Elec       q    Type
REMARK                         _______ _______ _______ _____ _____    ______ ____
ROOT
ATOM      1  C   UNL A   1      35.939 -35.704 -29.916  0.00  0.00    -0.011 C 
ATOM      2  C   UNL A   1      35.174 -34.809 -29.269  0.00  0.00    -0.049 C 
ENDROOT
BRANCH   2   3
ATOM      3  C   UNL A   1      34.370 -33.748 -29.896  0.00  0.00    -0.009 A 
ATOM      4  C   UNL A   1      34.993 -32.884 -30.796  0.00  0.00    -0.052 A 
ATOM      5  C   UNL A   1      34.292 -31.810 -31.329  0.00  0.00    -0.045 A 
ATOM      6  C   UNL A   1      32.982 -31.588 -30.929  0.00  0.00    +0.005 A 
ATOM      7  N   UNL A   1      32.378 -32.411 -30.038  0.00  0.00    -0.348 N 
ATOM      8  C   UNL A   1      33.037 -33.497 -29.554  0.00  0.00    +0.012 A 
BRANCH   7   9
ATOM      9  C   UNL A   1      30.972 -32.098 -29.643  0.00  0.00    +0.048 C 
BRANCH   9  10
ATOM     10  C   UNL A   1      30.019 -31.905 -30.797  0.00  0.00    -0.028 A 
ATOM     11  C   UNL A   1      29.521 -30.624 -31.087  0.00  0.00    -0.056 A 
ATOM     12  C   UNL A   1      28.665 -30.424 -32.172  0.00  0.00    -0.047 A 
ATOM     13  C   UNL A   1      28.298 -31.501 -32.973  0.00  0.00    +0.018 A 
ATOM     14 BR   UNL A   1      27.165 -31.221 -34.458  0.00  0.00    -0.050 Br
ATOM     15  C   UNL A   1      28.762 -32.783 -32.686  0.00  0.00    -0.047 A 
ATOM     16  C   UNL A   1      29.606 -32.989 -31.592  0.00  0.00    -0.056 A 
ENDBRANCH   9  10
ENDBRANCH   7   9
ENDBRANCH   2   3
BRANCH   1  17
ATOM     17  C   UNL A   1      36.661 -36.829 -29.236  0.00  0.00    +0.221 C 
ATOM     18  O   UNL A   1      35.995 -37.483 -28.435  0.00  0.00    -0.284 OA
BRANCH  17  25
ATOM     19  C   UNL A   1      40.843 -36.343 -31.639  0.00  0.00    +0.163 A 
ATOM     20  C   UNL A   1      42.104 -36.953 -31.612  0.00  0.00    -0.016 A 
ATOM     21  C   UNL A   1      42.416 -37.936 -30.668  0.00  0.00    -0.058 A 
ATOM     22  C   UNL A   1      41.471 -38.354 -29.721  0.00  0.00    -0.051 A 
ATOM     23  C   UNL A   1      40.190 -37.777 -29.748  0.00  0.00    +0.025 A 
ATOM     24  C   UNL A   1      38.998 -37.934 -28.996  0.00  0.00    -0.005 A 
ATOM     25  C   UNL A   1      38.054 -37.084 -29.543  0.00  0.00    +0.176 A 
ATOM     26  O   UNL A   1      38.624 -36.377 -30.566  0.00  0.00    -0.448 OA
ATOM     27  C   UNL A   1      39.914 -36.803 -30.701  0.00  0.00    +0.177 A 
BRANCH  19  29
ATOM     28  C   UNL A   1      40.344 -34.085 -31.993  0.00  0.00    +0.079 C 
ATOM     29  O   UNL A   1      40.473 -35.391 -32.550  0.00  0.00    -0.491 OA
ENDBRANCH  19  29
ENDBRANCH  17  25
ENDBRANCH   1  17
TORSDOF 6
ENDMDL
MODEL 4
REMARK VINA RESULT:    -7.982      6.713     10.062
REMARK INTER + INTRA:         -11.499
REMARK INTER:                 -10.792
REMARK INTRA:                  -0.707
REMARK UNBOUND:                -0.718
REMARK  Name = cpd330.pdb
REMARK  7 active torsions:
REMARK  status: ('A' for Active; 'I' for Inactive)
REMARK    1  A    between atoms: C_1  and  O_2
REMARK    2  A    between atoms: O_2  and  C_3
REMARK    3  A    between atoms: C_9  and  C_10
REMARK    4  A    between atoms: C_10  and  C_12
REMARK    5  A    between atoms: C_13  and  C_14
REMARK    6  A    between atoms: N_18  and  C_19
REMARK    7  A    between atoms: C_19  and  C_20
REMARK                            x       y       z     vdW  Elec       q    Type
REMARK                         _______ _______ _______ _____ _____    ______ ____
ROOT
ATOM      1  C   UNL A   1      34.782 -37.544 -27.027  0.00  0.00    -0.011 C 
ATOM      2  C   UNL A   1      33.946 -38.293 -26.289  0.00  0.00    -0.049 C 
ENDROOT
BRANCH   2   3
ATOM      3  C   UNL A   1      33.353 -37.907 -24.999  0.00  0.00    -0.009 A 
ATOM      4  C   UNL A   1      32.938 -36.587 -24.826  0.00  0.00    -0.052 A 
ATOM      5  C   UNL A   1      32.468 -36.162 -23.590  0.00  0.00    -0.045 A 
ATOM      6  C   UNL A   1      32.453 -37.052 -22.526  0.00  0.00    +0.005 A 
ATOM      7  N   UNL A   1      32.877 -38.329 -22.682  0.00  0.00    -0.348 N 
ATOM      8  C   UNL A   1      33.284 -38.771 -23.901  0.00  0.00    +0.012 A 
BRANCH   7   9
ATOM      9  C   UNL A   1      32.846 -39.224 -21.486  0.00  0.00    +0.048 C 
BRANCH   9  10
ATOM     10  C   UNL A   1      34.159 -39.351 -20.755  0.00  0.00    -0.028 A 
ATOM     11  C   UNL A   1      34.694 -40.623 -20.494  0.00  0.00    -0.056 A 
ATOM     12  C   UNL A   1      35.926 -40.757 -19.850  0.00  0.00    -0.047 A 
ATOM     13  C   UNL A   1      36.630 -39.622 -19.459  0.00  0.00    +0.018 A 
ATOM     14 BR   UNL A   1      38.310 -39.805 -18.615  0.00  0.00    -0.050 Br
ATOM     15  C   UNL A   1      36.103 -38.353 -19.687  0.00  0.00    -0.047 A 
ATOM     16  C   UNL A   1      34.864 -38.216 -20.318  0.00  0.00    -0.056 A 
ENDBRANCH   9  10
ENDBRANCH   7   9
ENDBRANCH   2   3
BRANCH   1  17
ATOM     17  C   UNL A   1      35.279 -37.943 -28.386  0.00  0.00    +0.221 C 
ATOM     18  O   UNL A   1      34.419 -38.323 -29.177  0.00  0.00    -0.284 OA
BRANCH  17  25
ATOM     19  C   UNL A   1      39.234 -36.512 -30.795  0.00  0.00    +0.163 A 
ATOM     20  C   UNL A   1      40.604 -36.804 -30.758  0.00  0.00    -0.016 A 
ATOM     21  C   UNL A   1      41.137 -37.671 -29.800  0.00  0.00    -0.058 A 
ATOM     22  C   UNL A   1      40.316 -38.288 -28.847  0.00  0.00    -0.051 A 
ATOM     23  C   UNL A   1      38.934 -38.032 -28.883  0.00  0.00    +0.025 A 
ATOM     24  C   UNL A   1      37.811 -38.458 -28.129  0.00  0.00    -0.005 A 
ATOM     25  C   UNL A   1      36.694 -37.864 -28.689  0.00  0.00    +0.176 A 
ATOM     26  O   UNL A   1      37.084 -37.056 -29.722  0.00  0.00    -0.448 OA
ATOM     27  C   UNL A   1      38.438 -37.166 -29.850  0.00  0.00    +0.177 A 
BRANCH  19  29
ATOM     28  C   UNL A   1      39.419 -35.533 -32.912  0.00  0.00    +0.079 C 
ATOM     29  O   UNL A   1      38.653 -35.688 -31.720  0.00  0.00    -0.491 OA
ENDBRANCH  19  29
ENDBRANCH  17  25
ENDBRANCH   1  17
TORSDOF 6
ENDMDL
MODEL 5
REMARK VINA RESULT:    -7.975      6.758     11.782
REMARK INTER + INTRA:         -11.490
REMARK INTER:                 -10.852
REMARK INTRA:                  -0.638
REMARK UNBOUND:                -0.718
REMARK  Name = cpd330.pdb
REMARK  7 active torsions:
REMARK  status: ('A' for Active; 'I' for Inactive)
REMARK    1  A    between atoms: C_1  and  O_2
REMARK    2  A    between atoms: O_2  and  C_3
REMARK    3  A    between atoms: C_9  and  C_10
REMARK    4  A    between atoms: C_10  and  C_12
REMARK    5  A    between atoms: C_13  and  C_14
REMARK    6  A    between atoms: N_18  and  C_19
REMARK    7  A    between atoms: C_19  and  C_20
REMARK                            x       y       z     vdW  Elec       q    Type
REMARK                         _______ _______ _______ _____ _____    ______ ____
ROOT
ATOM      1  C   UNL A   1      33.418 -36.682 -25.468  0.00  0.00    -0.011 C 
ATOM      2  C   UNL A   1      34.539 -37.323 -25.839  0.00  0.00    -0.049 C 
ENDROOT
BRANCH   2   3
ATOM      3  C   UNL A   1      34.930 -37.650 -27.219  0.00  0.00    -0.009 A 
ATOM      4  C   UNL A   1      34.687 -38.940 -27.691  0.00  0.00    -0.052 A 
ATOM      5  C   UNL A   1      35.134 -39.314 -28.952  0.00  0.00    -0.045 A 
ATOM      6  C   UNL A   1      35.852 -38.407 -29.716  0.00  0.00    +0.005 A 
ATOM      7  N   UNL A   1      36.111 -37.159 -29.253  0.00  0.00    -0.348 N 
ATOM      8  C   UNL A   1      35.630 -36.765 -28.045  0.00  0.00    +0.012 A 
BRANCH   7   9
ATOM      9  C   UNL A   1      36.905 -36.244 -30.127  0.00  0.00    +0.048 C 
BRANCH   9  10
ATOM     10  C   UNL A   1      38.348 -36.640 -30.314  0.00  0.00    -0.028 A 
ATOM     11  C   UNL A   1      38.959 -37.510 -29.395  0.00  0.00    -0.056 A 
ATOM     12  C   UNL A   1      40.284 -37.914 -29.574  0.00  0.00    -0.047 A 
ATOM     13  C   UNL A   1      41.009 -37.450 -30.668  0.00  0.00    +0.018 A 
ATOM     14 BR   UNL A   1      42.791 -38.022 -30.923  0.00  0.00    -0.050 Br
ATOM     15  C   UNL A   1      40.427 -36.568 -31.575  0.00  0.00    -0.047 A 
ATOM     16  C   UNL A   1      39.106 -36.150 -31.391  0.00  0.00    -0.056 A 
ENDBRANCH   9  10
ENDBRANCH   7   9
ENDBRANCH   2   3
BRANCH   1  17
ATOM     17  C   UNL A   1      33.114 -36.284 -24.054  0.00  0.00    +0.221 C 
ATOM     18  O   UNL A   1      32.350 -35.329 -23.922  0.00  0.00    -0.284 OA
BRANCH  17  25
ATOM     19  C   UNL A   1      33.928 -40.094 -21.171  0.00  0.00    +0.163 A 
ATOM     20  C   UNL A   1      34.654 -40.341 -19.998  0.00  0.00    -0.016 A 
ATOM     21  C   UNL A   1      35.447 -39.349 -19.412  0.00  0.00    -0.058 A 
ATOM     22  C   UNL A   1      35.534 -38.068 -19.973  0.00  0.00    -0.051 A 
ATOM     23  C   UNL A   1      34.792 -37.790 -21.133  0.00  0.00    +0.025 A 
ATOM     24  C   UNL A   1      34.608 -36.655 -21.964  0.00  0.00    -0.005 A 
ATOM     25  C   UNL A   1      33.710 -37.013 -22.954  0.00  0.00    +0.176 A 
ATOM     26  O   UNL A   1      33.370 -38.329 -22.798  0.00  0.00    -0.448 OA
ATOM     27  C   UNL A   1      34.013 -38.798 -21.689  0.00  0.00    +0.177 A 
BRANCH  19  29
ATOM     28  C   UNL A   1      33.752 -41.714 -22.850  0.00  0.00    +0.079 C 
ATOM     29  O   UNL A   1      33.121 -41.017 -21.779  0.00  0.00    -0.491 OA
ENDBRANCH  19  29
ENDBRANCH  17  25
ENDBRANCH   1  17
TORSDOF 6
ENDMDL
MODEL 6
REMARK VINA RESULT:    -7.956      7.483     10.194
REMARK INTER + INTRA:         -11.464
REMARK INTER:                 -10.660
REMARK INTRA:                  -0.804
REMARK UNBOUND:                -0.718
REMARK  Name = cpd330.pdb
REMARK  7 active torsions:
REMARK  status: ('A' for Active; 'I' for Inactive)
REMARK    1  A    between atoms: C_1  and  O_2
REMARK    2  A    between atoms: O_2  and  C_3
REMARK    3  A    between atoms: C_9  and  C_10
REMARK    4  A    between atoms: C_10  and  C_12
REMARK    5  A    between atoms: C_13  and  C_14
REMARK    6  A    between atoms: N_18  and  C_19
REMARK    7  A    between atoms: C_19  and  C_20
REMARK                            x       y       z     vdW  Elec       q    Type
REMARK                         _______ _______ _______ _____ _____    ______ ____
ROOT
ATOM      1  C   UNL A   1      34.528 -36.195 -29.214  0.00  0.00    -0.011 C 
ATOM      2  C   UNL A   1      34.498 -34.884 -28.926  0.00  0.00    -0.049 C 
ENDROOT
BRANCH   2   3
ATOM      3  C   UNL A   1      33.678 -33.869 -29.606  0.00  0.00    -0.009 A 
ATOM      4  C   UNL A   1      34.311 -32.739 -30.123  0.00  0.00    -0.052 A 
ATOM      5  C   UNL A   1      33.559 -31.714 -30.681  0.00  0.00    -0.045 A 
ATOM      6  C   UNL A   1      32.175 -31.811 -30.685  0.00  0.00    +0.005 A 
ATOM      7  N   UNL A   1      31.553 -32.896 -30.163  0.00  0.00    -0.348 N 
ATOM      8  C   UNL A   1      32.282 -33.930 -29.666  0.00  0.00    +0.012 A 
BRANCH   7   9
ATOM      9  C   UNL A   1      30.059 -32.920 -30.188  0.00  0.00    +0.048 C 
BRANCH   9  10
ATOM     10  C   UNL A   1      29.395 -31.738 -29.527  0.00  0.00    -0.028 A 
ATOM     11  C   UNL A   1      28.631 -30.845 -30.296  0.00  0.00    -0.056 A 
ATOM     12  C   UNL A   1      27.981 -29.766 -29.694  0.00  0.00    -0.047 A 
ATOM     13  C   UNL A   1      28.092 -29.569 -28.321  0.00  0.00    +0.018 A 
ATOM     14 BR   UNL A   1      27.187 -28.125 -27.505  0.00  0.00    -0.050 Br
ATOM     15  C   UNL A   1      28.866 -30.429 -27.546  0.00  0.00    -0.047 A 
ATOM     16  C   UNL A   1      29.530 -31.501 -28.148  0.00  0.00    -0.056 A 
ENDBRANCH   9  10
ENDBRANCH   7   9
ENDBRANCH   2   3
BRANCH   1  17
ATOM     17  C   UNL A   1      35.307 -37.205 -28.424  0.00  0.00    +0.221 C 
ATOM     18  O   UNL A   1      34.665 -37.835 -27.585  0.00  0.00    -0.284 OA
BRANCH  17  25
ATOM     19  C   UNL A   1      39.476 -36.777 -30.860  0.00  0.00    +0.163 A 
ATOM     20  C   UNL A   1      40.785 -37.258 -30.720  0.00  0.00    -0.016 A 
ATOM     21  C   UNL A   1      41.162 -38.027 -29.616  0.00  0.00    -0.058 A 
ATOM     22  C   UNL A   1      40.240 -38.356 -28.613  0.00  0.00    -0.051 A 
ATOM     23  C   UNL A   1      38.914 -37.909 -28.747  0.00  0.00    +0.025 A 
ATOM     24  C   UNL A   1      37.726 -38.038 -27.984  0.00  0.00    -0.005 A 
ATOM     25  C   UNL A   1      36.722 -37.384 -28.676  0.00  0.00    +0.176 A 
ATOM     26  O   UNL A   1      37.248 -36.820 -29.805  0.00  0.00    -0.448 OA
ATOM     27  C   UNL A   1      38.573 -37.146 -29.858  0.00  0.00    +0.177 A 
BRANCH  19  29
ATOM     28  C   UNL A   1      40.030 -35.855 -32.937  0.00  0.00    +0.079 C 
ATOM     29  O   UNL A   1      39.042 -36.037 -31.925  0.00  0.00    -0.491 OA
ENDBRANCH  19  29
ENDBRANCH  17  25
ENDBRANCH   1  17
TORSDOF 6
ENDMDL
MODEL 7
REMARK VINA RESULT:    -7.856      7.363      9.823
REMARK INTER + INTRA:         -11.330
REMARK INTER:                 -10.684
REMARK INTRA:                  -0.646
REMARK UNBOUND:                -0.718
REMARK  Name = cpd330.pdb
REMARK  7 active torsions:
REMARK  status: ('A' for Active; 'I' for Inactive)
REMARK    1  A    between atoms: C_1  and  O_2
REMARK    2  A    between atoms: O_2  and  C_3
REMARK    3  A    between atoms: C_9  and  C_10
REMARK    4  A    between atoms: C_10  and  C_12
REMARK    5  A    between atoms: C_13  and  C_14
REMARK    6  A    between atoms: N_18  and  C_19
REMARK    7  A    between atoms: C_19  and  C_20
REMARK                            x       y       z     vdW  Elec       q    Type
REMARK                         _______ _______ _______ _____ _____    ______ ____
ROOT
ATOM      1  C   UNL A   1      35.848 -34.894 -30.300  0.00  0.00    -0.011 C 
ATOM      2  C   UNL A   1      34.713 -34.572 -29.658  0.00  0.00    -0.049 C 
ENDROOT
BRANCH   2   3
ATOM      3  C   UNL A   1      33.810 -33.464 -30.006  0.00  0.00    -0.009 A 
ATOM      4  C   UNL A   1      34.353 -32.191 -30.175  0.00  0.00    -0.052 A 
ATOM      5  C   UNL A   1      33.520 -31.103 -30.404  0.00  0.00    -0.045 A 
ATOM      6  C   UNL A   1      32.146 -31.293 -30.426  0.00  0.00    +0.005 A 
ATOM      7  N   UNL A   1      31.611 -32.524 -30.239  0.00  0.00    -0.348 N 
ATOM      8  C   UNL A   1      32.420 -33.603 -30.071  0.00  0.00    +0.012 A 
BRANCH   7   9
ATOM      9  C   UNL A   1      30.122 -32.645 -30.260  0.00  0.00    +0.048 C 
BRANCH   9  10
ATOM     10  C   UNL A   1      29.386 -31.542 -29.542  0.00  0.00    -0.028 A 
ATOM     11  C   UNL A   1      28.647 -30.600 -30.277  0.00  0.00    -0.056 A 
ATOM     12  C   UNL A   1      27.932 -29.593 -29.625  0.00  0.00    -0.047 A 
ATOM     13  C   UNL A   1      27.952 -29.518 -28.236  0.00  0.00    +0.018 A 
ATOM     14 BR   UNL A   1      26.959 -28.173 -27.356  0.00  0.00    -0.050 Br
ATOM     15  C   UNL A   1      28.699 -30.427 -27.491  0.00  0.00    -0.047 A 
ATOM     16  C   UNL A   1      29.428 -31.427 -28.141  0.00  0.00    -0.056 A 
ENDBRANCH   9  10
ENDBRANCH   7   9
ENDBRANCH   2   3
BRANCH   1  17
ATOM     17  C   UNL A   1      36.682 -36.096 -29.966  0.00  0.00    +0.221 C 
ATOM     18  O   UNL A   1      36.230 -36.831 -29.089  0.00  0.00    -0.284 OA
BRANCH  17  25
ATOM     19  C   UNL A   1      41.221 -37.695 -30.548  0.00  0.00    +0.163 A 
ATOM     20  C   UNL A   1      42.208 -37.604 -31.539  0.00  0.00    -0.016 A 
ATOM     21  C   UNL A   1      41.957 -36.969 -32.759  0.00  0.00    -0.058 A 
ATOM     22  C   UNL A   1      40.710 -36.391 -33.030  0.00  0.00    -0.051 A 
ATOM     23  C   UNL A   1      39.714 -36.444 -32.039  0.00  0.00    +0.025 A 
ATOM     24  C   UNL A   1      38.378 -35.982 -31.928  0.00  0.00    -0.005 A 
ATOM     25  C   UNL A   1      37.929 -36.326 -30.665  0.00  0.00    +0.176 A 
ATOM     26  O   UNL A   1      38.911 -37.020 -30.013  0.00  0.00    -0.448 OA
ATOM     27  C   UNL A   1      39.998 -37.082 -30.837  0.00  0.00    +0.177 A 
BRANCH  19  29
ATOM     28  C   UNL A   1      42.464 -39.249 -29.317  0.00  0.00    +0.079 C 
ATOM     29  O   UNL A   1      41.413 -38.285 -29.329  0.00  0.00    -0.491 OA
ENDBRANCH  19  29
ENDBRANCH  17  25
ENDBRANCH   1  17
TORSDOF 6
ENDMDL
MODEL 8
REMARK VINA RESULT:    -7.760     17.721     21.276
REMARK INTER + INTRA:         -11.199
REMARK INTER:                 -10.447
REMARK INTRA:                  -0.753
REMARK UNBOUND:                -0.718
REMARK  Name = cpd330.pdb
REMARK  7 active torsions:
REMARK  status: ('A' for Active; 'I' for Inactive)
REMARK    1  A    between atoms: C_1  and  O_2
REMARK    2  A    between atoms: O_2  and  C_3
REMARK    3  A    between atoms: C_9  and  C_10
REMARK    4  A    between atoms: C_10  and  C_12
REMARK    5  A    between atoms: C_13  and  C_14
REMARK    6  A    between atoms: N_18  and  C_19
REMARK    7  A    between atoms: C_19  and  C_20
REMARK                            x       y       z     vdW  Elec       q    Type
REMARK                         _______ _______ _______ _____ _____    ______ ____
ROOT
ATOM      1  C   UNL A   1      41.933 -21.718 -38.578  0.00  0.00    -0.011 C 
ATOM      2  C   UNL A   1      42.511 -21.646 -39.788  0.00  0.00    -0.049 C 
ENDROOT
BRANCH   2   3
ATOM      3  C   UNL A   1      43.777 -20.965 -40.101  0.00  0.00    -0.009 A 
ATOM      4  C   UNL A   1      44.018 -20.582 -41.420  0.00  0.00    -0.052 A 
ATOM      5  C   UNL A   1      45.243 -20.029 -41.771  0.00  0.00    -0.045 A 
ATOM      6  C   UNL A   1      46.230 -19.897 -40.806  0.00  0.00    +0.005 A 
ATOM      7  N   UNL A   1      46.010 -20.288 -39.528  0.00  0.00    -0.348 N 
ATOM      8  C   UNL A   1      44.796 -20.778 -39.162  0.00  0.00    +0.012 A 
BRANCH   7   9
ATOM      9  C   UNL A   1      47.128 -20.130 -38.549  0.00  0.00    +0.048 C 
BRANCH   9  10
ATOM     10  C   UNL A   1      46.751 -19.436 -37.264  0.00  0.00    -0.028 A 
ATOM     11  C   UNL A   1      46.801 -18.034 -37.185  0.00  0.00    -0.056 A 
ATOM     12  C   UNL A   1      46.421 -17.375 -36.014  0.00  0.00    -0.047 A 
ATOM     13  C   UNL A   1      45.992 -18.111 -34.912  0.00  0.00    +0.018 A 
ATOM     14 BR   UNL A   1      45.451 -17.215 -33.340  0.00  0.00    -0.050 Br
ATOM     15  C   UNL A   1      45.960 -19.502 -34.964  0.00  0.00    -0.047 A 
ATOM     16  C   UNL A   1      46.354 -20.166 -36.129  0.00  0.00    -0.056 A 
ENDBRANCH   9  10
ENDBRANCH   7   9
ENDBRANCH   2   3
BRANCH   1  17
ATOM     17  C   UNL A   1      40.692 -22.510 -38.292  0.00  0.00    +0.221 C 
ATOM     18  O   UNL A   1      40.435 -23.406 -39.095  0.00  0.00    -0.284 OA
BRANCH  17  25
ATOM     19  C   UNL A   1      38.218 -23.417 -34.223  0.00  0.00    +0.163 A 
ATOM     20  C   UNL A   1      37.414 -22.683 -33.341  0.00  0.00    -0.016 A 
ATOM     21  C   UNL A   1      37.221 -21.308 -33.507  0.00  0.00    -0.058 A 
ATOM     22  C   UNL A   1      37.818 -20.617 -34.570  0.00  0.00    -0.051 A 
ATOM     23  C   UNL A   1      38.606 -21.339 -35.483  0.00  0.00    +0.025 A 
ATOM     24  C   UNL A   1      39.340 -21.018 -36.654  0.00  0.00    -0.005 A 
ATOM     25  C   UNL A   1      39.886 -22.197 -37.130  0.00  0.00    +0.176 A 
ATOM     26  O   UNL A   1      39.561 -23.218 -36.280  0.00  0.00    -0.448 OA
ATOM     27  C   UNL A   1      38.775 -22.705 -35.289  0.00  0.00    +0.177 A 
BRANCH  19  29
ATOM     28  C   UNL A   1      37.227 -25.533 -34.106  0.00  0.00    +0.079 C 
ATOM     29  O   UNL A   1      38.428 -24.766 -34.124  0.00  0.00    -0.491 OA
ENDBRANCH  19  29
ENDBRANCH  17  25
ENDBRANCH   1  17
TORSDOF 6
ENDMDL
MODEL 9
REMARK VINA RESULT:    -7.739     22.886     25.959
REMARK INTER + INTRA:         -11.171
REMARK INTER:                 -10.231
REMARK INTRA:                  -0.940
REMARK UNBOUND:                -0.718
REMARK  Name = cpd330.pdb
REMARK  7 active torsions:
REMARK  status: ('A' for Active; 'I' for Inactive)
REMARK    1  A    between atoms: C_1  and  O_2
REMARK    2  A    between atoms: O_2  and  C_3
REMARK    3  A    between atoms: C_9  and  C_10
REMARK    4  A    between atoms: C_10  and  C_12
REMARK    5  A    between atoms: C_13  and  C_14
REMARK    6  A    between atoms: N_18  and  C_19
REMARK    7  A    between atoms: C_19  and  C_20
REMARK                            x       y       z     vdW  Elec       q    Type
REMARK                         _______ _______ _______ _____ _____    ______ ____
ROOT
ATOM      1  C   UNL A   1      50.940 -31.380 -53.820  0.00  0.00    -0.011 C 
ATOM      2  C   UNL A   1      51.798 -31.339 -52.787  0.00  0.00    -0.049 C 
ENDROOT
BRANCH   2   3
ATOM      3  C   UNL A   1      53.234 -31.655 -52.846  0.00  0.00    -0.009 A 
ATOM      4  C   UNL A   1      54.075 -30.803 -53.560  0.00  0.00    -0.052 A 
ATOM      5  C   UNL A   1      55.416 -31.123 -53.722  0.00  0.00    -0.045 A 
ATOM      6  C   UNL A   1      55.898 -32.314 -53.198  0.00  0.00    +0.005 A 
ATOM      7  N   UNL A   1      55.081 -33.157 -52.522  0.00  0.00    -0.348 N 
ATOM      8  C   UNL A   1      53.780 -32.825 -52.310  0.00  0.00    +0.012 A 
BRANCH   7   9
ATOM      9  C   UNL A   1      55.669 -34.428 -52.002  0.00  0.00    +0.048 C 
BRANCH   9  10
ATOM     10  C   UNL A   1      55.554 -34.615 -50.509  0.00  0.00    -0.028 A 
ATOM     11  C   UNL A   1      54.698 -35.601 -49.992  0.00  0.00    -0.056 A 
ATOM     12  C   UNL A   1      54.606 -35.810 -48.615  0.00  0.00    -0.047 A 
ATOM     13  C   UNL A   1      55.366 -35.035 -47.744  0.00  0.00    +0.018 A 
ATOM     14 BR   UNL A   1      55.262 -35.340 -45.883  0.00  0.00    -0.050 Br
ATOM     15  C   UNL A   1      56.202 -34.036 -48.237  0.00  0.00    -0.047 A 
ATOM     16  C   UNL A   1      56.284 -33.814 -49.614  0.00  0.00    -0.056 A 
ENDBRANCH   9  10
ENDBRANCH   7   9
ENDBRANCH   2   3
BRANCH   1  17
ATOM     17  C   UNL A   1      49.505 -30.951 -53.729  0.00  0.00    +0.221 C 
ATOM     18  O   UNL A   1      49.301 -29.744 -53.856  0.00  0.00    -0.284 OA
BRANCH  17  25
ATOM     19  C   UNL A   1      47.569 -35.389 -53.502  0.00  0.00    +0.163 A 
ATOM     20  C   UNL A   1      46.296 -35.928 -53.271  0.00  0.00    -0.016 A 
ATOM     21  C   UNL A   1      45.207 -35.111 -52.954  0.00  0.00    -0.058 A 
ATOM     22  C   UNL A   1      45.348 -33.720 -52.867  0.00  0.00    -0.051 A 
ATOM     23  C   UNL A   1      46.608 -33.154 -53.122  0.00  0.00    +0.025 A 
ATOM     24  C   UNL A   1      47.136 -31.837 -53.148  0.00  0.00    -0.005 A 
ATOM     25  C   UNL A   1      48.469 -31.937 -53.505  0.00  0.00    +0.176 A 
ATOM     26  O   UNL A   1      48.796 -33.257 -53.654  0.00  0.00    -0.448 OA
ATOM     27  C   UNL A   1      47.670 -33.995 -53.436  0.00  0.00    +0.177 A 
BRANCH  19  29
ATOM     28  C   UNL A   1      49.373 -36.649 -52.708  0.00  0.00    +0.079 C 
ATOM     29  O   UNL A   1      48.667 -36.134 -53.834  0.00  0.00    -0.491 OA
ENDBRANCH  19  29
ENDBRANCH  17  25
ENDBRANCH   1  17
TORSDOF 6
ENDMDL
MODEL 10
REMARK VINA RESULT:    -7.720      5.095      8.507
REMARK INTER + INTRA:         -11.146
REMARK INTER:                 -10.247
REMARK INTRA:                  -0.899
REMARK UNBOUND:                -0.718
REMARK  Name = cpd330.pdb
REMARK  7 active torsions:
REMARK  status: ('A' for Active; 'I' for Inactive)
REMARK    1  A    between atoms: C_1  and  O_2
REMARK    2  A    between atoms: O_2  and  C_3
REMARK    3  A    between atoms: C_9  and  C_10
REMARK    4  A    between atoms: C_10  and  C_12
REMARK    5  A    between atoms: C_13  and  C_14
REMARK    6  A    between atoms: N_18  and  C_19
REMARK    7  A    between atoms: C_19  and  C_20
REMARK                            x       y       z     vdW  Elec       q    Type
REMARK                         _______ _______ _______ _____ _____    ______ ____
ROOT
ATOM      1  C   UNL A   1      35.177 -36.000 -29.661  0.00  0.00    -0.011 C 
ATOM      2  C   UNL A   1      34.789 -34.733 -29.441  0.00  0.00    -0.049 C 
ENDROOT
BRANCH   2   3
ATOM      3  C   UNL A   1      33.471 -34.165 -29.762  0.00  0.00    -0.009 A 
ATOM      4  C   UNL A   1      32.830 -33.385 -28.801  0.00  0.00    -0.052 A 
ATOM      5  C   UNL A   1      31.542 -32.917 -29.029  0.00  0.00    -0.045 A 
ATOM      6  C   UNL A   1      30.892 -33.265 -30.204  0.00  0.00    +0.005 A 
ATOM      7  N   UNL A   1      31.501 -34.042 -31.132  0.00  0.00    -0.348 N 
ATOM      8  C   UNL A   1      32.781 -34.457 -30.943  0.00  0.00    +0.012 A 
BRANCH   7   9
ATOM      9  C   UNL A   1      30.730 -34.387 -32.365  0.00  0.00    +0.048 C 
BRANCH   9  10
ATOM     10  C   UNL A   1      30.967 -35.780 -32.891  0.00  0.00    -0.028 A 
ATOM     11  C   UNL A   1      30.399 -36.883 -32.232  0.00  0.00    -0.056 A 
ATOM     12  C   UNL A   1      30.580 -38.176 -32.726  0.00  0.00    -0.047 A 
ATOM     13  C   UNL A   1      31.332 -38.378 -33.880  0.00  0.00    +0.018 A 
ATOM     14 BR   UNL A   1      31.551 -40.126 -34.563  0.00  0.00    -0.050 Br
ATOM     15  C   UNL A   1      31.924 -37.299 -34.533  0.00  0.00    -0.047 A 
ATOM     16  C   UNL A   1      31.757 -36.005 -34.032  0.00  0.00    -0.056 A 
ENDBRANCH   9  10
ENDBRANCH   7   9
ENDBRANCH   2   3
BRANCH   1  17
ATOM     17  C   UNL A   1      36.500 -36.556 -29.223  0.00  0.00    +0.221 C 
ATOM     18  O   UNL A   1      36.523 -37.050 -28.097  0.00  0.00    -0.284 OA
BRANCH  17  25
ATOM     19  C   UNL A   1      41.087 -37.252 -30.626  0.00  0.00    +0.163 A 
ATOM     20  C   UNL A   1      41.877 -36.888 -31.725  0.00  0.00    -0.016 A 
ATOM     21  C   UNL A   1      41.337 -36.189 -32.808  0.00  0.00    -0.058 A 
ATOM     22  C   UNL A   1      39.986 -35.817 -32.828  0.00  0.00    -0.051 A 
ATOM     23  C   UNL A   1      39.182 -36.147 -31.724  0.00  0.00    +0.025 A 
ATOM     24  C   UNL A   1      37.823 -35.944 -31.371  0.00  0.00    -0.005 A 
ATOM     25  C   UNL A   1      37.642 -36.488 -30.112  0.00  0.00    +0.176 A 
ATOM     26  O   UNL A   1      38.813 -37.057 -29.695  0.00  0.00    -0.448 OA
ATOM     27  C   UNL A   1      39.751 -36.842 -30.663  0.00  0.00    +0.177 A 
BRANCH  19  29
ATOM     28  C   UNL A   1      42.329 -39.077 -29.850  0.00  0.00    +0.079 C 
ATOM     29  O   UNL A   1      41.562 -37.919 -29.530  0.00  0.00    -0.491 OA
ENDBRANCH  19  29
ENDBRANCH  17  25
ENDBRANCH   1  17
TORSDOF 6
ENDMDL
MODEL 11
REMARK VINA RESULT:    -7.646      5.607      8.999
REMARK INTER + INTRA:         -11.046
REMARK INTER:                 -10.492
REMARK INTRA:                  -0.554
REMARK UNBOUND:                -0.718
REMARK  Name = cpd330.pdb
REMARK  7 active torsions:
REMARK  status: ('A' for Active; 'I' for Inactive)
REMARK    1  A    between atoms: C_1  and  O_2
REMARK    2  A    between atoms: O_2  and  C_3
REMARK    3  A    between atoms: C_9  and  C_10
REMARK    4  A    between atoms: C_10  and  C_12
REMARK    5  A    between atoms: C_13  and  C_14
REMARK    6  A    between atoms: N_18  and  C_19
REMARK    7  A    between atoms: C_19  and  C_20
REMARK                            x       y       z     vdW  Elec       q    Type
REMARK                         _______ _______ _______ _____ _____    ______ ____
ROOT
ATOM      1  C   UNL A   1      35.304 -37.310 -28.987  0.00  0.00    -0.011 C 
ATOM      2  C   UNL A   1      34.349 -38.018 -28.361  0.00  0.00    -0.049 C 
ENDROOT
BRANCH   2   3
ATOM      3  C   UNL A   1      33.408 -37.498 -27.357  0.00  0.00    -0.009 A 
ATOM      4  C   UNL A   1      32.086 -37.273 -27.739  0.00  0.00    -0.052 A 
ATOM      5  C   UNL A   1      31.194 -36.688 -26.849  0.00  0.00    -0.045 A 
ATOM      6  C   UNL A   1      31.642 -36.301 -25.595  0.00  0.00    +0.005 A 
ATOM      7  N   UNL A   1      32.932 -36.497 -25.226  0.00  0.00    -0.348 N 
ATOM      8  C   UNL A   1      33.797 -37.119 -26.069  0.00  0.00    +0.012 A 
BRANCH   7   9
ATOM      9  C   UNL A   1      33.343 -36.038 -23.865  0.00  0.00    +0.048 C 
BRANCH   9  10
ATOM     10  C   UNL A   1      33.665 -37.146 -22.893  0.00  0.00    -0.028 A 
ATOM     11  C   UNL A   1      34.437 -36.873 -21.752  0.00  0.00    -0.056 A 
ATOM     12  C   UNL A   1      34.713 -37.879 -20.824  0.00  0.00    -0.047 A 
ATOM     13  C   UNL A   1      34.224 -39.166 -21.031  0.00  0.00    +0.018 A 
ATOM     14 BR   UNL A   1      34.575 -40.518 -19.760  0.00  0.00    -0.050 Br
ATOM     15  C   UNL A   1      33.478 -39.461 -22.170  0.00  0.00    -0.047 A 
ATOM     16  C   UNL A   1      33.212 -38.460 -23.108  0.00  0.00    -0.056 A 
ENDBRANCH   9  10
ENDBRANCH   7   9
ENDBRANCH   2   3
BRANCH   1  17
ATOM     17  C   UNL A   1      36.174 -37.864 -30.077  0.00  0.00    +0.221 C 
ATOM     18  O   UNL A   1      35.809 -38.936 -30.556  0.00  0.00    -0.284 OA
BRANCH  17  25
ATOM     19  C   UNL A   1      40.900 -36.812 -30.295  0.00  0.00    +0.163 A 
ATOM     20  C   UNL A   1      41.689 -35.808 -30.872  0.00  0.00    -0.016 A 
ATOM     21  C   UNL A   1      41.124 -34.808 -31.670  0.00  0.00    -0.058 A 
ATOM     22  C   UNL A   1      39.745 -34.769 -31.911  0.00  0.00    -0.051 A 
ATOM     23  C   UNL A   1      38.930 -35.749 -31.319  0.00  0.00    +0.025 A 
ATOM     24  C   UNL A   1      37.541 -36.033 -31.310  0.00  0.00    -0.005 A 
ATOM     25  C   UNL A   1      37.355 -37.138 -30.497  0.00  0.00    +0.176 A 
ATOM     26  O   UNL A   1      38.570 -37.574 -30.046  0.00  0.00    -0.448 OA
ATOM     27  C   UNL A   1      39.525 -36.728 -30.531  0.00  0.00    +0.177 A 
BRANCH  19  29
ATOM     28  C   UNL A   1      42.246 -38.722 -30.170  0.00  0.00    +0.079 C 
ATOM     29  O   UNL A   1      41.392 -37.803 -29.491  0.00  0.00    -0.491 OA
ENDBRANCH  19  29
ENDBRANCH  17  25
ENDBRANCH   1  17
TORSDOF 6
ENDMDL
MODEL 12
REMARK VINA RESULT:    -7.544     18.987     20.130
REMARK INTER + INTRA:         -10.908
REMARK INTER:                 -10.160
REMARK INTRA:                  -0.748
REMARK UNBOUND:                -0.718
REMARK  Name = cpd330.pdb
REMARK  7 active torsions:
REMARK  status: ('A' for Active; 'I' for Inactive)
REMARK    1  A    between atoms: C_1  and  O_2
REMARK    2  A    between atoms: O_2  and  C_3
REMARK    3  A    between atoms: C_9  and  C_10
REMARK    4  A    between atoms: C_10  and  C_12
REMARK    5  A    between atoms: C_13  and  C_14
REMARK    6  A    between atoms: N_18  and  C_19
REMARK    7  A    between atoms: C_19  and  C_20
REMARK                            x       y       z     vdW  Elec       q    Type
REMARK                         _______ _______ _______ _____ _____    ______ ____
ROOT
ATOM      1  C   UNL A   1      43.681 -20.147 -36.926  0.00  0.00    -0.011 C 
ATOM      2  C   UNL A   1      42.904 -21.163 -37.336  0.00  0.00    -0.049 C 
ENDROOT
BRANCH   2   3
ATOM      3  C   UNL A   1      41.620 -21.564 -36.739  0.00  0.00    -0.009 A 
ATOM      4  C   UNL A   1      40.581 -21.942 -37.589  0.00  0.00    -0.052 A 
ATOM      5  C   UNL A   1      39.326 -22.228 -37.068  0.00  0.00    -0.045 A 
ATOM      6  C   UNL A   1      39.111 -22.098 -35.704  0.00  0.00    +0.005 A 
ATOM      7  N   UNL A   1      40.110 -21.708 -34.876  0.00  0.00    -0.348 N 
ATOM      8  C   UNL A   1      41.357 -21.481 -35.369  0.00  0.00    +0.012 A 
BRANCH   7   9
ATOM      9  C   UNL A   1      39.797 -21.575 -33.421  0.00  0.00    +0.048 C 
BRANCH   9  10
ATOM     10  C   UNL A   1      38.786 -20.507 -33.087  0.00  0.00    -0.028 A 
ATOM     11  C   UNL A   1      39.199 -19.172 -32.940  0.00  0.00    -0.056 A 
ATOM     12  C   UNL A   1      38.270 -18.167 -32.665  0.00  0.00    -0.047 A 
ATOM     13  C   UNL A   1      36.922 -18.487 -32.531  0.00  0.00    +0.018 A 
ATOM     14 BR   UNL A   1      35.664 -17.120 -32.189  0.00  0.00    -0.050 Br
ATOM     15  C   UNL A   1      36.497 -19.808 -32.648  0.00  0.00    -0.047 A 
ATOM     16  C   UNL A   1      37.426 -20.819 -32.908  0.00  0.00    -0.056 A 
ENDBRANCH   9  10
ENDBRANCH   7   9
ENDBRANCH   2   3
BRANCH   1  17
ATOM     17  C   UNL A   1      44.933 -19.717 -37.632  0.00  0.00    +0.221 C 
ATOM     18  O   UNL A   1      45.407 -18.642 -37.268  0.00  0.00    -0.284 OA
BRANCH  17  25
ATOM     19  C   UNL A   1      45.220 -21.820 -41.990  0.00  0.00    +0.163 A 
ATOM     20  C   UNL A   1      46.051 -22.765 -42.606  0.00  0.00    -0.016 A 
ATOM     21  C   UNL A   1      47.164 -23.294 -41.947  0.00  0.00    -0.058 A 
ATOM     22  C   UNL A   1      47.482 -22.904 -40.639  0.00  0.00    -0.051 A 
ATOM     23  C   UNL A   1      46.646 -21.979 -39.991  0.00  0.00    +0.025 A 
ATOM     24  C   UNL A   1      46.622 -21.367 -38.711  0.00  0.00    -0.005 A 
ATOM     25  C   UNL A   1      45.502 -20.555 -38.668  0.00  0.00    +0.176 A 
ATOM     26  O   UNL A   1      44.864 -20.603 -39.877  0.00  0.00    -0.448 OA
ATOM     27  C   UNL A   1      45.547 -21.474 -40.675  0.00  0.00    +0.177 A 
BRANCH  19  29
ATOM     28  C   UNL A   1      44.339 -20.019 -43.197  0.00  0.00    +0.079 C 
ATOM     29  O   UNL A   1      44.107 -21.282 -42.577  0.00  0.00    -0.491 OA
ENDBRANCH  19  29
ENDBRANCH  17  25
ENDBRANCH   1  17
TORSDOF 6
ENDMDL
MODEL 13
REMARK VINA RESULT:    -7.525      8.486     12.046
REMARK INTER + INTRA:         -10.883
REMARK INTER:                 -10.124
REMARK INTRA:                  -0.759
REMARK UNBOUND:                -0.718
REMARK  Name = cpd330.pdb
REMARK  7 active torsions:
REMARK  status: ('A' for Active; 'I' for Inactive)
REMARK    1  A    between atoms: C_1  and  O_2
REMARK    2  A    between atoms: O_2  and  C_3
REMARK    3  A    between atoms: C_9  and  C_10
REMARK    4  A    between atoms: C_10  and  C_12
REMARK    5  A    between atoms: C_13  and  C_14
REMARK    6  A    between atoms: N_18  and  C_19
REMARK    7  A    between atoms: C_19  and  C_20
REMARK                            x       y       z     vdW  Elec       q    Type
REMARK                         _______ _______ _______ _____ _____    ______ ____
ROOT
ATOM      1  C   UNL A   1      33.277 -36.561 -26.782  0.00  0.00    -0.011 C 
ATOM      2  C   UNL A   1      34.586 -36.863 -26.775  0.00  0.00    -0.049 C 
ENDROOT
BRANCH   2   3
ATOM      3  C   UNL A   1      35.495 -36.791 -27.930  0.00  0.00    -0.009 A 
ATOM      4  C   UNL A   1      36.608 -37.631 -27.954  0.00  0.00    -0.052 A 
ATOM      5  C   UNL A   1      37.541 -37.520 -28.976  0.00  0.00    -0.045 A 
ATOM      6  C   UNL A   1      37.372 -36.545 -29.948  0.00  0.00    +0.005 A 
ATOM      7  N   UNL A   1      36.304 -35.711 -29.918  0.00  0.00    -0.348 N 
ATOM      8  C   UNL A   1      35.356 -35.849 -28.953  0.00  0.00    +0.012 A 
BRANCH   7   9
ATOM      9  C   UNL A   1      36.199 -34.675 -30.989  0.00  0.00    +0.048 C 
BRANCH   9  10
ATOM     10  C   UNL A   1      34.929 -33.862 -30.962  0.00  0.00    -0.028 A 
ATOM     11  C   UNL A   1      34.800 -32.796 -30.056  0.00  0.00    -0.056 A 
ATOM     12  C   UNL A   1      33.645 -32.012 -30.042  0.00  0.00    -0.047 A 
ATOM     13  C   UNL A   1      32.609 -32.288 -30.930  0.00  0.00    +0.018 A 
ATOM     14 BR   UNL A   1      31.060 -31.206 -30.929  0.00  0.00    -0.050 Br
ATOM     15  C   UNL A   1      32.709 -33.356 -31.818  0.00  0.00    -0.047 A 
ATOM     16  C   UNL A   1      33.857 -34.152 -31.825  0.00  0.00    -0.056 A 
ENDBRANCH   9  10
ENDBRANCH   7   9
ENDBRANCH   2   3
BRANCH   1  17
ATOM     17  C   UNL A   1      32.416 -36.555 -25.553  0.00  0.00    +0.221 C 
ATOM     18  O   UNL A   1      31.294 -36.072 -25.692  0.00  0.00    -0.284 OA
BRANCH  17  25
ATOM     19  C   UNL A   1      33.612 -40.011 -22.372  0.00  0.00    +0.163 A 
ATOM     20  C   UNL A   1      34.085 -40.055 -21.053  0.00  0.00    -0.016 A 
ATOM     21  C   UNL A   1      34.396 -38.885 -20.353  0.00  0.00    -0.058 A 
ATOM     22  C   UNL A   1      34.234 -37.624 -20.943  0.00  0.00    -0.051 A 
ATOM     23  C   UNL A   1      33.733 -37.555 -22.255  0.00  0.00    +0.025 A 
ATOM     24  C   UNL A   1      33.425 -36.509 -23.162  0.00  0.00    -0.005 A 
ATOM     25  C   UNL A   1      32.927 -37.097 -24.311  0.00  0.00    +0.176 A 
ATOM     26  O   UNL A   1      32.958 -38.457 -24.170  0.00  0.00    -0.448 OA
ATOM     27  C   UNL A   1      33.434 -38.738 -22.922  0.00  0.00    +0.177 A 
BRANCH  19  29
ATOM     28  C   UNL A   1      33.497 -42.347 -22.412  0.00  0.00    +0.079 C 
ATOM     29  O   UNL A   1      33.274 -41.119 -23.100  0.00  0.00    -0.491 OA
ENDBRANCH  19  29
ENDBRANCH  17  25
ENDBRANCH   1  17
TORSDOF 6
ENDMDL
MODEL 14
REMARK VINA RESULT:    -7.496     18.273     20.045
REMARK INTER + INTRA:         -10.844
REMARK INTER:                  -9.981
REMARK INTRA:                  -0.863
REMARK UNBOUND:                -0.718
REMARK  Name = cpd330.pdb
REMARK  7 active torsions:
REMARK  status: ('A' for Active; 'I' for Inactive)
REMARK    1  A    between atoms: C_1  and  O_2
REMARK    2  A    between atoms: O_2  and  C_3
REMARK    3  A    between atoms: C_9  and  C_10
REMARK    4  A    between atoms: C_10  and  C_12
REMARK    5  A    between atoms: C_13  and  C_14
REMARK    6  A    between atoms: N_18  and  C_19
REMARK    7  A    between atoms: C_19  and  C_20
REMARK                            x       y       z     vdW  Elec       q    Type
REMARK                         _______ _______ _______ _____ _____    ______ ____
ROOT
ATOM      1  C   UNL A   1      42.433 -19.932 -36.804  0.00  0.00    -0.011 C 
ATOM      2  C   UNL A   1      42.247 -21.234 -36.535  0.00  0.00    -0.049 C 
ENDROOT
BRANCH   2   3
ATOM      3  C   UNL A   1      41.086 -21.815 -35.841  0.00  0.00    -0.009 A 
ATOM      4  C   UNL A   1      40.283 -22.721 -36.533  0.00  0.00    -0.052 A 
ATOM      5  C   UNL A   1      39.123 -23.211 -35.947  0.00  0.00    -0.045 A 
ATOM      6  C   UNL A   1      38.757 -22.762 -34.686  0.00  0.00    +0.005 A 
ATOM      7  N   UNL A   1      39.522 -21.865 -34.018  0.00  0.00    -0.348 N 
ATOM      8  C   UNL A   1      40.687 -21.423 -34.560  0.00  0.00    +0.012 A 
BRANCH   7   9
ATOM      9  C   UNL A   1      39.053 -21.417 -32.672  0.00  0.00    +0.048 C 
BRANCH   9  10
ATOM     10  C   UNL A   1      38.073 -20.270 -32.692  0.00  0.00    -0.028 A 
ATOM     11  C   UNL A   1      38.532 -18.955 -32.513  0.00  0.00    -0.056 A 
ATOM     12  C   UNL A   1      37.642 -17.879 -32.564  0.00  0.00    -0.047 A 
ATOM     13  C   UNL A   1      36.288 -18.110 -32.790  0.00  0.00    +0.018 A 
ATOM     14 BR   UNL A   1      35.092 -16.651 -32.887  0.00  0.00    -0.050 Br
ATOM     15  C   UNL A   1      35.812 -19.410 -32.944  0.00  0.00    -0.047 A 
ATOM     16  C   UNL A   1      36.697 -20.489 -32.879  0.00  0.00    -0.056 A 
ENDBRANCH   9  10
ENDBRANCH   7   9
ENDBRANCH   2   3
BRANCH   1  17
ATOM     17  C   UNL A   1      43.588 -19.402 -37.603  0.00  0.00    +0.221 C 
ATOM     18  O   UNL A   1      44.123 -18.388 -37.158  0.00  0.00    -0.284 OA
BRANCH  17  25
ATOM     19  C   UNL A   1      46.489 -22.057 -40.437  0.00  0.00    +0.163 A 
ATOM     20  C   UNL A   1      46.502 -22.461 -41.779  0.00  0.00    -0.016 A 
ATOM     21  C   UNL A   1      45.449 -22.146 -42.642  0.00  0.00    -0.058 A 
ATOM     22  C   UNL A   1      44.346 -21.404 -42.198  0.00  0.00    -0.051 A 
ATOM     23  C   UNL A   1      44.326 -20.963 -40.864  0.00  0.00    +0.025 A 
ATOM     24  C   UNL A   1      43.430 -20.206 -40.066  0.00  0.00    -0.005 A 
ATOM     25  C   UNL A   1      44.002 -20.084 -38.812  0.00  0.00    +0.176 A 
ATOM     26  O   UNL A   1      45.184 -20.771 -38.788  0.00  0.00    -0.448 OA
ATOM     27  C   UNL A   1      45.390 -21.294 -40.032  0.00  0.00    +0.177 A 
BRANCH  19  29
ATOM     28  C   UNL A   1      48.664 -22.871 -40.155  0.00  0.00    +0.079 C 
ATOM     29  O   UNL A   1      47.498 -22.318 -39.550  0.00  0.00    -0.491 OA
ENDBRANCH  19  29
ENDBRANCH  17  25
ENDBRANCH   1  17
TORSDOF 6
ENDMDL
MODEL 15
REMARK VINA RESULT:    -7.468      7.326     12.081
REMARK INTER + INTRA:         -10.805
REMARK INTER:                  -9.971
REMARK INTRA:                  -0.834
REMARK UNBOUND:                -0.718
REMARK  Name = cpd330.pdb
REMARK  7 active torsions:
REMARK  status: ('A' for Active; 'I' for Inactive)
REMARK    1  A    between atoms: C_1  and  O_2
REMARK    2  A    between atoms: O_2  and  C_3
REMARK    3  A    between atoms: C_9  and  C_10
REMARK    4  A    between atoms: C_10  and  C_12
REMARK    5  A    between atoms: C_13  and  C_14
REMARK    6  A    between atoms: N_18  and  C_19
REMARK    7  A    between atoms: C_19  and  C_20
REMARK                            x       y       z     vdW  Elec       q    Type
REMARK                         _______ _______ _______ _____ _____    ______ ____
ROOT
ATOM      1  C   UNL A   1      33.933 -41.523 -33.081  0.00  0.00    -0.011 C 
ATOM      2  C   UNL A   1      35.060 -40.957 -32.620  0.00  0.00    -0.049 C 
ENDROOT
BRANCH   2   3
ATOM      3  C   UNL A   1      35.341 -40.613 -31.217  0.00  0.00    -0.009 A 
ATOM      4  C   UNL A   1      34.938 -41.501 -30.221  0.00  0.00    -0.052 A 
ATOM      5  C   UNL A   1      35.095 -41.163 -28.883  0.00  0.00    -0.045 A 
ATOM      6  C   UNL A   1      35.621 -39.923 -28.552  0.00  0.00    +0.005 A 
ATOM      7  N   UNL A   1      35.994 -39.046 -29.516  0.00  0.00    -0.348 N 
ATOM      8  C   UNL A   1      35.897 -39.390 -30.827  0.00  0.00    +0.012 A 
BRANCH   7   9
ATOM      9  C   UNL A   1      36.537 -37.724 -29.082  0.00  0.00    +0.048 C 
BRANCH   9  10
ATOM     10  C   UNL A   1      37.923 -37.412 -29.587  0.00  0.00    -0.028 A 
ATOM     11  C   UNL A   1      39.039 -38.022 -28.991  0.00  0.00    -0.056 A 
ATOM     12  C   UNL A   1      40.326 -37.770 -29.470  0.00  0.00    -0.047 A 
ATOM     13  C   UNL A   1      40.509 -36.906 -30.546  0.00  0.00    +0.018 A 
ATOM     14 BR   UNL A   1      42.248 -36.591 -31.211  0.00  0.00    -0.050 Br
ATOM     15  C   UNL A   1      39.416 -36.273 -31.134  0.00  0.00    -0.047 A 
ATOM     16  C   UNL A   1      38.128 -36.510 -30.647  0.00  0.00    -0.056 A 
ENDBRANCH   9  10
ENDBRANCH   7   9
ENDBRANCH   2   3
BRANCH   1  17
ATOM     17  C   UNL A   1      33.736 -41.946 -34.508  0.00  0.00    +0.221 C 
ATOM     18  O   UNL A   1      33.521 -41.037 -35.308  0.00  0.00    -0.284 OA
BRANCH  17  25
ATOM     19  C   UNL A   1      32.181 -46.141 -36.374  0.00  0.00    +0.163 A 
ATOM     20  C   UNL A   1      32.646 -47.463 -36.422  0.00  0.00    -0.016 A 
ATOM     21  C   UNL A   1      33.889 -47.816 -35.889  0.00  0.00    -0.058 A 
ATOM     22  C   UNL A   1      34.711 -46.861 -35.276  0.00  0.00    -0.051 A 
ATOM     23  C   UNL A   1      34.253 -45.535 -35.191  0.00  0.00    +0.025 A 
ATOM     24  C   UNL A   1      34.764 -44.325 -34.655  0.00  0.00    -0.005 A 
ATOM     25  C   UNL A   1      33.805 -43.349 -34.861  0.00  0.00    +0.176 A 
ATOM     26  O   UNL A   1      32.749 -43.893 -35.540  0.00  0.00    -0.448 OA
ATOM     27  C   UNL A   1      33.012 -45.218 -35.730  0.00  0.00    +0.177 A 
BRANCH  19  29
ATOM     28  C   UNL A   1      29.902 -45.873 -35.923  0.00  0.00    +0.079 C 
ATOM     29  O   UNL A   1      30.968 -45.739 -36.860  0.00  0.00    -0.491 OA
ENDBRANCH  19  29
ENDBRANCH  17  25
ENDBRANCH   1  17
TORSDOF 6
ENDMDL
MODEL 16
REMARK VINA RESULT:    -7.386     18.556     21.897
REMARK INTER + INTRA:         -10.695
REMARK INTER:                  -9.686
REMARK INTRA:                  -1.010
REMARK UNBOUND:                -0.718
REMARK  Name = cpd330.pdb
REMARK  7 active torsions:
REMARK  status: ('A' for Active; 'I' for Inactive)
REMARK    1  A    between atoms: C_1  and  O_2
REMARK    2  A    between atoms: O_2  and  C_3
REMARK    3  A    between atoms: C_9  and  C_10
REMARK    4  A    between atoms: C_10  and  C_12
REMARK    5  A    between atoms: C_13  and  C_14
REMARK    6  A    between atoms: N_18  and  C_19
REMARK    7  A    between atoms: C_19  and  C_20
REMARK                            x       y       z     vdW  Elec       q    Type
REMARK                         _______ _______ _______ _____ _____    ______ ____
ROOT
ATOM      1  C   UNL A   1      41.331 -20.209 -39.370  0.00  0.00    -0.011 C 
ATOM      2  C   UNL A   1      41.893 -21.184 -40.104  0.00  0.00    -0.049 C 
ENDROOT
BRANCH   2   3
ATOM      3  C   UNL A   1      43.255 -21.170 -40.660  0.00  0.00    -0.009 A 
ATOM      4  C   UNL A   1      43.435 -21.554 -41.989  0.00  0.00    -0.052 A 
ATOM      5  C   UNL A   1      44.715 -21.651 -42.518  0.00  0.00    -0.045 A 
ATOM      6  C   UNL A   1      45.808 -21.396 -41.702  0.00  0.00    +0.005 A 
ATOM      7  N   UNL A   1      45.640 -21.044 -40.404  0.00  0.00    -0.348 N 
ATOM      8  C   UNL A   1      44.390 -20.892 -39.893  0.00  0.00    +0.012 A 
BRANCH   7   9
ATOM      9  C   UNL A   1      46.866 -20.802 -39.585  0.00  0.00    +0.048 C 
BRANCH   9  10
ATOM     10  C   UNL A   1      46.963 -19.423 -38.982  0.00  0.00    -0.028 A 
ATOM     11  C   UNL A   1      46.926 -18.292 -39.814  0.00  0.00    -0.056 A 
ATOM     12  C   UNL A   1      46.980 -17.007 -39.269  0.00  0.00    -0.047 A 
ATOM     13  C   UNL A   1      47.073 -16.843 -37.890  0.00  0.00    +0.018 A 
ATOM     14 BR   UNL A   1      47.115 -15.104 -37.154  0.00  0.00    -0.050 Br
ATOM     15  C   UNL A   1      47.135 -17.953 -37.052  0.00  0.00    -0.047 A 
ATOM     16  C   UNL A   1      47.098 -19.240 -37.595  0.00  0.00    -0.056 A 
ENDBRANCH   9  10
ENDBRANCH   7   9
ENDBRANCH   2   3
BRANCH   1  17
ATOM     17  C   UNL A   1      39.973 -20.316 -38.741  0.00  0.00    +0.221 C 
ATOM     18  O   UNL A   1      39.062 -19.751 -39.344  0.00  0.00    -0.284 OA
BRANCH  17  25
ATOM     19  C   UNL A   1      40.951 -21.607 -34.172  0.00  0.00    +0.163 A 
ATOM     20  C   UNL A   1      40.485 -22.574 -33.271  0.00  0.00    -0.016 A 
ATOM     21  C   UNL A   1      39.430 -23.429 -33.603  0.00  0.00    -0.058 A 
ATOM     22  C   UNL A   1      38.807 -23.356 -34.856  0.00  0.00    -0.051 A 
ATOM     23  C   UNL A   1      39.276 -22.413 -35.787  0.00  0.00    +0.025 A 
ATOM     24  C   UNL A   1      38.933 -22.051 -37.114  0.00  0.00    -0.005 A 
ATOM     25  C   UNL A   1      39.806 -21.050 -37.504  0.00  0.00    +0.176 A 
ATOM     26  O   UNL A   1      40.637 -20.747 -36.461  0.00  0.00    -0.448 OA
ATOM     27  C   UNL A   1      40.328 -21.579 -35.424  0.00  0.00    +0.177 A 
BRANCH  19  29
ATOM     28  C   UNL A   1      41.737 -19.851 -32.841  0.00  0.00    +0.079 C 
ATOM     29  O   UNL A   1      41.991 -20.757 -33.913  0.00  0.00    -0.491 OA
ENDBRANCH  19  29
ENDBRANCH  17  25
ENDBRANCH   1  17
TORSDOF 6
ENDMDL
MODEL 17
REMARK VINA RESULT:    -7.347     18.619     21.842
REMARK INTER + INTRA:         -10.642
REMARK INTER:                  -9.741
REMARK INTRA:                  -0.900
REMARK UNBOUND:                -0.718
REMARK  Name = cpd330.pdb
REMARK  7 active torsions:
REMARK  status: ('A' for Active; 'I' for Inactive)
REMARK    1  A    between atoms: C_1  and  O_2
REMARK    2  A    between atoms: O_2  and  C_3
REMARK    3  A    between atoms: C_9  and  C_10
REMARK    4  A    between atoms: C_10  and  C_12
REMARK    5  A    between atoms: C_13  and  C_14
REMARK    6  A    between atoms: N_18  and  C_19
REMARK    7  A    between atoms: C_19  and  C_20
REMARK                            x       y       z     vdW  Elec       q    Type
REMARK                         _______ _______ _______ _____ _____    ______ ____
ROOT
ATOM      1  C   UNL A   1      44.530 -19.133 -35.153  0.00  0.00    -0.011 C 
ATOM      2  C   UNL A   1      45.107 -17.961 -35.466  0.00  0.00    -0.049 C 
ENDROOT
BRANCH   2   3
ATOM      3  C   UNL A   1      45.683 -17.604 -36.772  0.00  0.00    -0.009 A 
ATOM      4  C   UNL A   1      46.651 -16.601 -36.820  0.00  0.00    -0.052 A 
ATOM      5  C   UNL A   1      47.143 -16.168 -38.044  0.00  0.00    -0.045 A 
ATOM      6  C   UNL A   1      46.637 -16.717 -39.213  0.00  0.00    +0.005 A 
ATOM      7  N   UNL A   1      45.681 -17.676 -39.174  0.00  0.00    -0.348 N 
ATOM      8  C   UNL A   1      45.234 -18.147 -37.979  0.00  0.00    +0.012 A 
BRANCH   7   9
ATOM      9  C   UNL A   1      45.174 -18.208 -40.474  0.00  0.00    +0.048 C 
BRANCH   9  10
ATOM     10  C   UNL A   1      45.773 -19.526 -40.897  0.00  0.00    -0.028 A 
ATOM     11  C   UNL A   1      45.004 -20.699 -40.823  0.00  0.00    -0.056 A 
ATOM     12  C   UNL A   1      45.531 -21.922 -41.243  0.00  0.00    -0.047 A 
ATOM     13  C   UNL A   1      46.831 -21.982 -41.737  0.00  0.00    +0.018 A 
ATOM     14 BR   UNL A   1      47.532 -23.632 -42.333  0.00  0.00    -0.050 Br
ATOM     15  C   UNL A   1      47.617 -20.834 -41.794  0.00  0.00    -0.047 A 
ATOM     16  C   UNL A   1      47.097 -19.612 -41.361  0.00  0.00    -0.056 A 
ENDBRANCH   9  10
ENDBRANCH   7   9
ENDBRANCH   2   3
BRANCH   1  17
ATOM     17  C   UNL A   1      43.867 -19.411 -33.836  0.00  0.00    +0.221 C 
ATOM     18  O   UNL A   1      44.430 -18.944 -32.847  0.00  0.00    -0.284 OA
BRANCH  17  25
ATOM     19  C   UNL A   1      40.506 -22.506 -35.455  0.00  0.00    +0.163 A 
ATOM     20  C   UNL A   1      39.254 -22.961 -35.019  0.00  0.00    -0.016 A 
ATOM     21  C   UNL A   1      38.720 -22.555 -33.793  0.00  0.00    -0.058 A 
ATOM     22  C   UNL A   1      39.414 -21.669 -32.959  0.00  0.00    -0.051 A 
ATOM     23  C   UNL A   1      40.659 -21.177 -33.388  0.00  0.00    +0.025 A 
ATOM     24  C   UNL A   1      41.627 -20.286 -32.859  0.00  0.00    -0.005 A 
ATOM     25  C   UNL A   1      42.643 -20.184 -33.793  0.00  0.00    +0.176 A 
ATOM     26  O   UNL A   1      42.367 -21.007 -34.849  0.00  0.00    -0.448 OA
ATOM     27  C   UNL A   1      41.160 -21.600 -34.614  0.00  0.00    +0.177 A 
BRANCH  19  29
ATOM     28  C   UNL A   1      40.498 -22.181 -37.771  0.00  0.00    +0.079 C 
ATOM     29  O   UNL A   1      41.072 -22.851 -36.651  0.00  0.00    -0.491 OA
ENDBRANCH  19  29
ENDBRANCH  17  25
ENDBRANCH   1  17
TORSDOF 6
ENDMDL
MODEL 18
REMARK VINA RESULT:    -7.321     18.825     22.188
REMARK INTER + INTRA:         -10.607
REMARK INTER:                  -9.800
REMARK INTRA:                  -0.807
REMARK UNBOUND:                -0.718
REMARK  Name = cpd330.pdb
REMARK  7 active torsions:
REMARK  status: ('A' for Active; 'I' for Inactive)
REMARK    1  A    between atoms: C_1  and  O_2
REMARK    2  A    between atoms: O_2  and  C_3
REMARK    3  A    between atoms: C_9  and  C_10
REMARK    4  A    between atoms: C_10  and  C_12
REMARK    5  A    between atoms: C_13  and  C_14
REMARK    6  A    between atoms: N_18  and  C_19
REMARK    7  A    between atoms: C_19  and  C_20
REMARK                            x       y       z     vdW  Elec       q    Type
REMARK                         _______ _______ _______ _____ _____    ______ ____
ROOT
ATOM      1  C   UNL A   1      42.176 -21.849 -38.499  0.00  0.00    -0.011 C 
ATOM      2  C   UNL A   1      42.168 -21.399 -39.764  0.00  0.00    -0.049 C 
ENDROOT
BRANCH   2   3
ATOM      3  C   UNL A   1      43.352 -21.045 -40.562  0.00  0.00    -0.009 A 
ATOM      4  C   UNL A   1      43.323 -21.279 -41.936  0.00  0.00    -0.052 A 
ATOM      5  C   UNL A   1      44.457 -21.053 -42.705  0.00  0.00    -0.045 A 
ATOM      6  C   UNL A   1      45.624 -20.628 -42.086  0.00  0.00    +0.005 A 
ATOM      7  N   UNL A   1      45.665 -20.420 -40.748  0.00  0.00    -0.348 N 
ATOM      8  C   UNL A   1      44.545 -20.584 -39.995  0.00  0.00    +0.012 A 
BRANCH   7   9
ATOM      9  C   UNL A   1      46.962 -19.979 -40.152  0.00  0.00    +0.048 C 
BRANCH   9  10
ATOM     10  C   UNL A   1      47.058 -18.500 -39.868  0.00  0.00    -0.028 A 
ATOM     11  C   UNL A   1      46.962 -18.034 -38.547  0.00  0.00    -0.056 A 
ATOM     12  C   UNL A   1      47.085 -16.672 -38.263  0.00  0.00    -0.047 A 
ATOM     13  C   UNL A   1      47.301 -15.766 -39.298  0.00  0.00    +0.018 A 
ATOM     14 BR   UNL A   1      47.495 -13.928 -38.909  0.00  0.00    -0.050 Br
ATOM     15  C   UNL A   1      47.373 -16.208 -40.617  0.00  0.00    -0.047 A 
ATOM     16  C   UNL A   1      47.236 -17.568 -40.905  0.00  0.00    -0.056 A 
ENDBRANCH   9  10
ENDBRANCH   7   9
ENDBRANCH   2   3
BRANCH   1  17
ATOM     17  C   UNL A   1      40.945 -22.291 -37.763  0.00  0.00    +0.221 C 
ATOM     18  O   UNL A   1      40.285 -23.172 -38.311  0.00  0.00    -0.284 OA
BRANCH  17  25
ATOM     19  C   UNL A   1      39.841 -22.183 -33.044  0.00  0.00    +0.163 A 
ATOM     20  C   UNL A   1      39.463 -21.205 -32.114  0.00  0.00    -0.016 A 
ATOM     21  C   UNL A   1      39.396 -19.854 -32.467  0.00  0.00    -0.058 A 
ATOM     22  C   UNL A   1      39.694 -19.431 -33.769  0.00  0.00    -0.051 A 
ATOM     23  C   UNL A   1      40.047 -20.397 -34.726  0.00  0.00    +0.025 A 
ATOM     24  C   UNL A   1      40.393 -20.374 -36.102  0.00  0.00    -0.005 A 
ATOM     25  C   UNL A   1      40.607 -21.685 -36.492  0.00  0.00    +0.176 A 
ATOM     26  O   UNL A   1      40.455 -22.507 -35.409  0.00  0.00    -0.448 OA
ATOM     27  C   UNL A   1      40.103 -21.732 -34.342  0.00  0.00    +0.177 A 
BRANCH  19  29
ATOM     28  C   UNL A   1      41.073 -23.897 -32.037  0.00  0.00    +0.079 C 
ATOM     29  O   UNL A   1      39.906 -23.520 -32.764  0.00  0.00    -0.491 OA
ENDBRANCH  19  29
ENDBRANCH  17  25
ENDBRANCH   1  17
TORSDOF 6
ENDMDL
MODEL 19
REMARK VINA RESULT:    -7.300     18.234     20.669
REMARK INTER + INTRA:         -10.578
REMARK INTER:                  -9.718
REMARK INTRA:                  -0.860
REMARK UNBOUND:                -0.718
REMARK  Name = cpd330.pdb
REMARK  7 active torsions:
REMARK  status: ('A' for Active; 'I' for Inactive)
REMARK    1  A    between atoms: C_1  and  O_2
REMARK    2  A    between atoms: O_2  and  C_3
REMARK    3  A    between atoms: C_9  and  C_10
REMARK    4  A    between atoms: C_10  and  C_12
REMARK    5  A    between atoms: C_13  and  C_14
REMARK    6  A    between atoms: N_18  and  C_19
REMARK    7  A    between atoms: C_19  and  C_20
REMARK                            x       y       z     vdW  Elec       q    Type
REMARK                         _______ _______ _______ _____ _____    ______ ____
ROOT
ATOM      1  C   UNL A   1      41.578 -22.167 -38.537  0.00  0.00    -0.011 C 
ATOM      2  C   UNL A   1      40.484 -21.888 -37.810  0.00  0.00    -0.049 C 
ENDROOT
BRANCH   2   3
ATOM      3  C   UNL A   1      40.245 -22.300 -36.418  0.00  0.00    -0.009 A 
ATOM      4  C   UNL A   1      39.182 -23.163 -36.152  0.00  0.00    -0.052 A 
ATOM      5  C   UNL A   1      38.864 -23.493 -34.841  0.00  0.00    -0.045 A 
ATOM      6  C   UNL A   1      39.590 -22.927 -33.803  0.00  0.00    +0.005 A 
ATOM      7  N   UNL A   1      40.609 -22.070 -34.054  0.00  0.00    -0.348 N 
ATOM      8  C   UNL A   1      40.964 -21.786 -35.335  0.00  0.00    +0.012 A 
BRANCH   7   9
ATOM      9  C   UNL A   1      41.334 -21.489 -32.883  0.00  0.00    +0.048 C 
BRANCH   9  10
ATOM     10  C   UNL A   1      41.368 -19.981 -32.845  0.00  0.00    -0.028 A 
ATOM     11  C   UNL A   1      40.188 -19.261 -32.599  0.00  0.00    -0.056 A 
ATOM     12  C   UNL A   1      40.209 -17.866 -32.525  0.00  0.00    -0.047 A 
ATOM     13  C   UNL A   1      41.408 -17.182 -32.699  0.00  0.00    +0.018 A 
ATOM     14 BR   UNL A   1      41.439 -15.298 -32.569  0.00  0.00    -0.050 Br
ATOM     15  C   UNL A   1      42.584 -17.878 -32.969  0.00  0.00    -0.047 A 
ATOM     16  C   UNL A   1      42.563 -19.272 -33.058  0.00  0.00    -0.056 A 
ENDBRANCH   9  10
ENDBRANCH   7   9
ENDBRANCH   2   3
BRANCH   1  17
ATOM     17  C   UNL A   1      41.816 -21.638 -39.921  0.00  0.00    +0.221 C 
ATOM     18  O   UNL A   1      40.883 -21.771 -40.710  0.00  0.00    -0.284 OA
BRANCH  17  25
ATOM     19  C   UNL A   1      46.199 -21.298 -41.964  0.00  0.00    +0.163 A 
ATOM     20  C   UNL A   1      47.264 -20.387 -41.932  0.00  0.00    -0.016 A 
ATOM     21  C   UNL A   1      47.174 -19.189 -41.217  0.00  0.00    -0.058 A 
ATOM     22  C   UNL A   1      46.018 -18.861 -40.497  0.00  0.00    -0.051 A 
ATOM     23  C   UNL A   1      44.948 -19.773 -40.491  0.00  0.00    +0.025 A 
ATOM     24  C   UNL A   1      43.662 -19.813 -39.895  0.00  0.00    -0.005 A 
ATOM     25  C   UNL A   1      43.084 -21.019 -40.249  0.00  0.00    +0.176 A 
ATOM     26  O   UNL A   1      43.936 -21.701 -41.073  0.00  0.00    -0.448 OA
ATOM     27  C   UNL A   1      45.071 -20.955 -41.211  0.00  0.00    +0.177 A 
BRANCH  19  29
ATOM     28  C   UNL A   1      47.123 -23.445 -42.048  0.00  0.00    +0.079 C 
ATOM     29  O   UNL A   1      46.235 -22.493 -42.628  0.00  0.00    -0.491 OA
ENDBRANCH  19  29
ENDBRANCH  17  25
ENDBRANCH   1  17
TORSDOF 6
ENDMDL
MODEL 20
REMARK VINA RESULT:    -7.121     18.017     20.486
REMARK INTER + INTRA:         -10.337
REMARK INTER:                  -9.483
REMARK INTRA:                  -0.854
REMARK UNBOUND:                -0.718
REMARK  Name = cpd330.pdb
REMARK  7 active torsions:
REMARK  status: ('A' for Active; 'I' for Inactive)
REMARK    1  A    between atoms: C_1  and  O_2
REMARK    2  A    between atoms: O_2  and  C_3
REMARK    3  A    between atoms: C_9  and  C_10
REMARK    4  A    between atoms: C_10  and  C_12
REMARK    5  A    between atoms: C_13  and  C_14
REMARK    6  A    between atoms: N_18  and  C_19
REMARK    7  A    between atoms: C_19  and  C_20
REMARK                            x       y       z     vdW  Elec       q    Type
REMARK                         _______ _______ _______ _____ _____    ______ ____
ROOT
ATOM      1  C   UNL A   1      45.224 -17.904 -36.846  0.00  0.00    -0.011 C 
ATOM      2  C   UNL A   1      44.701 -18.942 -36.172  0.00  0.00    -0.049 C 
ENDROOT
BRANCH   2   3
ATOM      3  C   UNL A   1      43.682 -18.858 -35.114  0.00  0.00    -0.009 A 
ATOM      4  C   UNL A   1      44.104 -18.729 -33.792  0.00  0.00    -0.052 A 
ATOM      5  C   UNL A   1      43.176 -18.749 -32.759  0.00  0.00    -0.045 A 
ATOM      6  C   UNL A   1      41.834 -18.934 -33.056  0.00  0.00    +0.005 A 
ATOM      7  N   UNL A   1      41.419 -19.082 -34.338  0.00  0.00    -0.348 N 
ATOM      8  C   UNL A   1      42.313 -19.007 -35.359  0.00  0.00    +0.012 A 
BRANCH   7   9
ATOM      9  C   UNL A   1      39.960 -19.294 -34.577  0.00  0.00    +0.048 C 
BRANCH   9  10
ATOM     10  C   UNL A   1      39.458 -20.678 -34.247  0.00  0.00    -0.028 A 
ATOM     11  C   UNL A   1      38.228 -20.837 -33.587  0.00  0.00    -0.056 A 
ATOM     12  C   UNL A   1      37.733 -22.112 -33.306  0.00  0.00    -0.047 A 
ATOM     13  C   UNL A   1      38.463 -23.237 -33.678  0.00  0.00    +0.018 A 
ATOM     14 BR   UNL A   1      37.777 -24.960 -33.323  0.00  0.00    -0.050 Br
ATOM     15  C   UNL A   1      39.696 -23.098 -34.311  0.00  0.00    -0.047 A 
ATOM     16  C   UNL A   1      40.202 -21.823 -34.580  0.00  0.00    -0.056 A 
ENDBRANCH   9  10
ENDBRANCH   7   9
ENDBRANCH   2   3
BRANCH   1  17
ATOM     17  C   UNL A   1      46.188 -18.052 -37.986  0.00  0.00    +0.221 C 
ATOM     18  O   UNL A   1      47.241 -17.424 -37.878  0.00  0.00    -0.284 OA
BRANCH  17  25
ATOM     19  C   UNL A   1      46.475 -21.923 -40.889  0.00  0.00    +0.163 A 
ATOM     20  C   UNL A   1      45.899 -22.325 -42.102  0.00  0.00    -0.016 A 
ATOM     21  C   UNL A   1      44.931 -21.545 -42.740  0.00  0.00    -0.058 A 
ATOM     22  C   UNL A   1      44.508 -20.326 -42.194  0.00  0.00    -0.051 A 
ATOM     23  C   UNL A   1      45.093 -19.889 -40.993  0.00  0.00    +0.025 A 
ATOM     24  C   UNL A   1      44.952 -18.749 -40.160  0.00  0.00    -0.005 A 
ATOM     25  C   UNL A   1      45.849 -18.893 -39.116  0.00  0.00    +0.176 A 
ATOM     26  O   UNL A   1      46.500 -20.089 -39.243  0.00  0.00    -0.448 OA
ATOM     27  C   UNL A   1      46.054 -20.688 -40.385  0.00  0.00    +0.177 A 
BRANCH  19  29
ATOM     28  C   UNL A   1      48.769 -22.290 -40.614  0.00  0.00    +0.079 C 
ATOM     29  O   UNL A   1      47.440 -22.633 -40.228  0.00  0.00    -0.491 OA
ENDBRANCH  19  29
ENDBRANCH  17  25
ENDBRANCH   1  17
TORSDOF 6
ENDMDL
