@<TRIPOS>MOLECULE
*****
 29 32 0 0 0
SMALL
GASTEIGER

@<TRIPOS>ATOM
      1 C           2.5000    0.8660    0.0000 C.3     1  UNL1        0.2526
      2 O           1.5000    0.8660    0.0000 O.3     1  UNL1       -0.4684
      3 C           1.0000    0.0000    0.0000 C.ar    1  UNL1        0.1730
      4 C           1.5000   -0.8660    0.0000 C.ar    1  UNL1        0.0401
      5 C           1.0000   -1.7321    0.0000 C.ar    1  UNL1        0.0033
      6 C           0.0000   -1.7321    0.0000 C.ar    1  UNL1        0.0033
      7 C          -0.5000   -0.8660    0.0000 C.ar    1  UNL1        0.0407
      8 C          -1.4781   -0.6581    0.0000 C.ar    1  UNL1        0.0440
      9 C          -1.5827    0.3364    0.0000 C.ar    1  UNL1        0.1842
     10 C          -2.4487    0.8364    0.0000 C.2     1  UNL1        0.2299
     11 O          -2.4487    1.8364    0.0000 O.2     1  UNL1       -0.2833
     12 C          -3.3147    0.3364    0.0000 C.2     1  UNL1        0.0454
     13 C          -3.3147   -0.6636    0.0000 C.2     1  UNL1        0.0095
     14 C          -4.1808   -1.1636    0.0000 C.ar    1  UNL1        0.0700
     15 C          -4.1808   -2.1636    0.0000 C.ar    1  UNL1        0.0124
     16 C          -5.0468   -2.6636    0.0000 C.ar    1  UNL1        0.0758
     17 C          -5.9128   -2.1636    0.0000 C.ar    1  UNL1        0.2904
     18 N          -5.9128   -1.1636    0.0000 N.ar    1  UNL1       -0.1555
     19 C          -6.7788   -0.6636    0.0000 C.3     1  UNL1        0.3502
     20 C          -6.7788    0.3364    0.0000 C.ar    1  UNL1        0.0556
     21 C          -7.6449    0.8364    0.0000 C.ar    1  UNL1        0.0030
     22 C          -7.6449    1.8364    0.0000 C.ar    1  UNL1        0.0066
     23 C          -6.7788    2.3364    0.0000 C.ar    1  UNL1        0.0346
     24 BR         -6.7788    3.3364    0.0000 Br      1  UNL1       -0.0490
     25 C          -5.9128    1.8364    0.0000 C.ar    1  UNL1        0.0066
     26 C          -5.9128    0.8364    0.0000 C.ar    1  UNL1        0.0030
     27 C          -5.0468   -0.6636    0.0000 C.ar    1  UNL1        0.2902
     28 O          -0.6691    0.7431    0.0000 O.2     1  UNL1       -0.4472
     29 C           0.0000    0.0000    0.0000 C.ar    1  UNL1        0.1791
@<TRIPOS>UNITY_ATOM_ATTR
18 1
charge 1
@<TRIPOS>BOND
     1     1     2    1
     2     2     3    1
     3     3     4   ar
     4     4     5   ar
     5     5     6   ar
     6     6     7   ar
     7     7     8   ar
     8     8     9   ar
     9     9    10    1
    10    10    11    2
    11    10    12    1
    12    12    13    2
    13    13    14    1
    14    14    15   ar
    15    15    16   ar
    16    16    17   ar
    17    17    18   ar
    18    18    19    1
    19    19    20    1
    20    20    21   ar
    21    21    22   ar
    22    22    23   ar
    23    23    24    1
    24    23    25   ar
    25    25    26   ar
    26    20    26   ar
    27    18    27   ar
    28    14    27   ar
    29     9    28   ar
    30    28    29   ar
    31     3    29   ar
    32     7    29   ar
