@<TRIPOS>MOLECULE
*****
 33 36 0 0 0
SMALL
GASTEIGER

@<TRIPOS>ATOM
      1 C          -4.9189   -1.0499    0.0000 C.3     1  UNL1        0.0265
      2 C          -3.9615   -1.2529    0.0000 C.2     1  UNL1       -0.0397
      3 C          -3.3069   -0.5254    0.0000 C.2     1  UNL1        0.0510
      4 C          -2.3496   -0.7284    0.0000 C.2     1  UNL1        0.2642
      5 O          -2.0467   -1.6591    0.0000 O.2     1  UNL1       -0.2684
      6 N          -1.6950   -0.0008    0.0000 N.am    1  UNL1       -0.2034
      7 C          -0.8473   -0.4898    0.0000 C.3     1  UNL1        0.0956
      8 C          -0.8470   -1.4690    0.0000 C.3     1  UNL1        0.0217
      9 C           0.0006   -1.9583    0.0000 C.3     1  UNL1        0.0018
     10 C           0.8478   -1.4685    0.0000 C.3     1  UNL1        0.0001
     11 C           0.8481   -2.4720    0.0000 C.3     1  UNL1        0.0000
     12 C           0.8475   -0.4893    0.0000 C.3     1  UNL1        0.0017
     13 C           1.6954    0.0005    0.0000 C.3     1  UNL1        0.0001
     14 C           2.5436   -0.4888    0.0000 C.3     1  UNL1        0.0000
     15 C           2.5438   -1.4680    0.0000 C.3     1  UNL1        0.0000
     16 C           1.6960   -1.9578    0.0000 C.3     1  UNL1        0.0000
     17 C           1.6963   -2.9364    0.0000 C.3     1  UNL1        0.0000
     18 C           2.5444   -3.4257    0.0000 C.3     1  UNL1        0.0000
     19 C           3.3923   -2.9359    0.0000 C.3     1  UNL1        0.0012
     20 C           3.3925   -3.9394    0.0000 C.3     1  UNL1        0.0000
     21 C           4.2404   -3.4252    0.0000 C.3     1  UNL1        0.0147
     22 C           4.2407   -4.4034    0.0000 C.3     1  UNL1        0.0576
     23 C           5.2188   -4.4031    0.0000 C.3     1  UNL1        0.0173
     24 N           3.7518   -5.2506    0.0000 N.3     1  UNL1       -0.2716
     25 C           4.2412   -6.0976    0.0000 C.3     1  UNL1        0.0896
     26 C           2.7737   -5.2509    0.0000 C.3     1  UNL1        0.0896
     27 C           5.0871   -2.9354    0.0000 C.3     1  UNL1        0.0013
     28 C           5.0868   -1.9568    0.0000 C.3     1  UNL1        0.0000
     29 C           3.3920   -1.9573    0.0000 C.3     1  UNL1        0.0000
     30 C          -0.0000   -0.0000    0.0000 C.3     1  UNL1        0.0217
     31 C          -3.6587   -2.1836    0.0000 C.3     1  UNL1        0.0185
     32 C          -4.3132   -2.9111    0.0000 C.3     1  UNL1        0.0044
     33 C          -2.7013   -2.3866    0.0000 C.3     1  UNL1        0.0044
@<TRIPOS>BOND
     1     1     2    1
     2     2     3    2
     3     3     4    1
     4     4     5    2
     5     4     6   am
     6     6     7    1
     7     7     8    1
     8     8     9    1
     9     9    10    1
    10    10    11    1
    11    10    12    1
    12    12    13    1
    13    13    14    1
    14    14    15    1
    15    15    16    1
    16    10    16    1
    17    16    17    1
    18    17    18    1
    19    18    19    1
    20    19    20    1
    21    19    21    1
    22    21    22    1
    23    22    23    1
    24    22    24    1
    25    24    25    1
    26    24    26    1
    27    21    27    1
    28    27    28    1
    29    28    29    1
    30    15    29    1
    31    19    29    1
    32    12    30    1
    33     7    30    1
    34     2    31    1
    35    31    32    1
    36    31    33    1
