MODEL 1
REMARK VINA RESULT:    -8.404      0.000      0.000
REMARK INTER + INTRA:         -11.342
REMARK INTER:                 -10.861
REMARK INTRA:                  -0.481
REMARK UNBOUND:                -0.481
REMARK  Name = cpd194.pdb
REMARK  13 active torsions:
REMARK  status: ('A' for Active; 'I' for Inactive)
REMARK    1  A    between atoms: C_1  and  C_2
REMARK    2  A    between atoms: C_2  and  C_31
REMARK    3  A    between atoms: C_3  and  C_4
REMARK    4  A    between atoms: N_6  and  C_7
REMARK    5  A    between atoms: C_10  and  C_11
REMARK    6  A    between atoms: C_19  and  C_20
REMARK    7  A    between atoms: C_21  and  C_22
REMARK    8  A    between atoms: C_22  and  C_23
REMARK    9  A    between atoms: C_22  and  N_24
REMARK   10  A    between atoms: N_24  and  C_25
REMARK   11  A    between atoms: N_24  and  C_26
REMARK   12  A    between atoms: C_31  and  C_32
REMARK   13  A    between atoms: C_31  and  C_33
REMARK                            x       y       z     vdW  Elec       q    Type
REMARK                         _______ _______ _______ _____ _____    ______ ____
ROOT
ATOM      1  C   UNL     1      35.858 -35.334 -31.199  0.00  0.00    +0.024 C 
ATOM      2  C   UNL     1      34.640 -36.172 -31.606  0.00  0.00    -0.034 C 
ATOM      3  C   UNL     1      33.482 -35.306 -32.107  0.00  0.00    -0.045 C 
ATOM      4  C   UNL     1      33.059 -34.189 -31.108  0.00  0.00    -0.026 C 
ATOM      5  C   UNL     1      32.467 -34.868 -29.847  0.00  0.00    -0.059 C 
ATOM      6  C   UNL     1      34.331 -33.364 -30.761  0.00  0.00    -0.034 C 
ATOM      7  C   UNL     1      34.000 -32.203 -29.826  0.00  0.00    -0.049 C 
ATOM      8  C   UNL     1      33.044 -31.233 -30.508  0.00  0.00    -0.049 C 
ATOM      9  C   UNL     1      31.756 -31.864 -31.082  0.00  0.00    -0.034 C 
ATOM     10  C   UNL     1      32.021 -33.222 -31.800  0.00  0.00    -0.032 C 
ATOM     11  C   UNL     1      30.721 -33.919 -32.252  0.00  0.00    -0.049 C 
ATOM     12  C   UNL     1      29.476 -33.054 -32.086  0.00  0.00    -0.047 C 
ATOM     13  C   UNL     1      29.265 -32.570 -30.637  0.00  0.00    -0.025 C 
ATOM     14  C   UNL     1      28.878 -33.768 -29.742  0.00  0.00    -0.059 C 
ATOM     15  C   UNL     1      28.136 -31.485 -30.490  0.00  0.00    -0.020 C 
ATOM     16  C   UNL     1      28.897 -30.172 -30.607  0.00  0.00    -0.048 C 
ATOM     17  C   UNL     1      30.114 -30.433 -29.735  0.00  0.00    -0.049 C 
ATOM     18  C   UNL     1      30.565 -31.872 -30.083  0.00  0.00    -0.032 C 
ATOM     19  C   UNL     1      35.482 -34.221 -30.215  0.00  0.00    -0.031 C 
ENDROOT
BRANCH   1  22
ATOM     20  C   UNL     1      38.227 -35.956 -30.880  0.00  0.00    +0.237 C 
ATOM     21  O   UNL     1      38.678 -34.999 -31.489  0.00  0.00    -0.271 OA
ATOM     22  N   UNL     1      36.895 -36.180 -30.627  0.00  0.00    -0.309 N 
ATOM     23  H   UNL     1      36.637 -36.931 -30.045  0.00  0.00    +0.000 HD
BRANCH  20  26
ATOM     24  C   UNL     1      41.135 -38.246 -29.720  0.00  0.00    -0.043 C 
ATOM     25  C   UNL     1      40.415 -37.149 -30.471  0.00  0.00    -0.065 C 
ATOM     26  C   UNL     1      39.085 -37.014 -30.297  0.00  0.00    -0.001 C 
BRANCH  25  27
ATOM     27  C   UNL     1      41.327 -36.319 -31.370  0.00  0.00    -0.025 C 
ATOM     28  C   UNL     1      41.394 -36.893 -32.788  0.00  0.00    -0.059 C 
ATOM     29  C   UNL     1      42.729 -36.041 -30.820  0.00  0.00    -0.059 C 
ENDBRANCH  25  27
ENDBRANCH  20  26
ENDBRANCH   1  22
BRANCH  15  30
ATOM     30  C   UNL     1      26.837 -31.625 -31.346  0.00  0.00    +0.010 C 
ATOM     31  C   UNL     1      25.634 -31.946 -30.436  0.00  0.00    -0.049 C 
BRANCH  30  32
ATOM     32  N   UNL     1      26.592 -30.511 -32.289  0.00  0.00    -0.305 N 
ATOM     33  C   UNL     1      25.290 -29.853 -32.165  0.00  0.00    -0.013 C 
ATOM     34  C   UNL     1      26.783 -30.936 -33.679  0.00  0.00    -0.013 C 
ATOM     35  H   UNL     1      27.289 -29.815 -32.022  0.00  0.00    +0.000 HD
ENDBRANCH  30  32
ENDBRANCH  15  30
TORSDOF 5
ENDMDL
MODEL 2
REMARK VINA RESULT:    -7.771      1.247      2.112
REMARK INTER + INTRA:         -10.523
REMARK INTER:                  -9.901
REMARK INTRA:                  -0.623
REMARK UNBOUND:                -0.481
REMARK  Name = cpd194.pdb
REMARK  13 active torsions:
REMARK  status: ('A' for Active; 'I' for Inactive)
REMARK    1  A    between atoms: C_1  and  C_2
REMARK    2  A    between atoms: C_2  and  C_31
REMARK    3  A    between atoms: C_3  and  C_4
REMARK    4  A    between atoms: N_6  and  C_7
REMARK    5  A    between atoms: C_10  and  C_11
REMARK    6  A    between atoms: C_19  and  C_20
REMARK    7  A    between atoms: C_21  and  C_22
REMARK    8  A    between atoms: C_22  and  C_23
REMARK    9  A    between atoms: C_22  and  N_24
REMARK   10  A    between atoms: N_24  and  C_25
REMARK   11  A    between atoms: N_24  and  C_26
REMARK   12  A    between atoms: C_31  and  C_32
REMARK   13  A    between atoms: C_31  and  C_33
REMARK                            x       y       z     vdW  Elec       q    Type
REMARK                         _______ _______ _______ _____ _____    ______ ____
ROOT
ATOM      1  C   UNL     1      35.883 -35.038 -31.009  0.00  0.00    +0.024 C 
ATOM      2  C   UNL     1      34.758 -36.027 -31.334  0.00  0.00    -0.034 C 
ATOM      3  C   UNL     1      33.540 -35.338 -31.954  0.00  0.00    -0.045 C 
ATOM      4  C   UNL     1      32.991 -34.156 -31.103  0.00  0.00    -0.026 C 
ATOM      5  C   UNL     1      32.428 -34.733 -29.780  0.00  0.00    -0.059 C 
ATOM      6  C   UNL     1      34.173 -33.180 -30.836  0.00  0.00    -0.034 C 
ATOM      7  C   UNL     1      33.712 -31.953 -30.052  0.00  0.00    -0.049 C 
ATOM      8  C   UNL     1      32.692 -31.163 -30.861  0.00  0.00    -0.049 C 
ATOM      9  C   UNL     1      31.483 -31.975 -31.377  0.00  0.00    -0.034 C 
ATOM     10  C   UNL     1      31.889 -33.377 -31.923  0.00  0.00    -0.032 C 
ATOM     11  C   UNL     1      30.671 -34.240 -32.310  0.00  0.00    -0.049 C 
ATOM     12  C   UNL     1      29.348 -33.481 -32.270  0.00  0.00    -0.047 C 
ATOM     13  C   UNL     1      29.054 -32.852 -30.893  0.00  0.00    -0.025 C 
ATOM     14  C   UNL     1      28.753 -33.968 -29.867  0.00  0.00    -0.059 C 
ATOM     15  C   UNL     1      27.828 -31.867 -30.896  0.00  0.00    -0.020 C 
ATOM     16  C   UNL     1      28.471 -30.511 -31.156  0.00  0.00    -0.048 C 
ATOM     17  C   UNL     1      29.682 -30.554 -30.238  0.00  0.00    -0.049 C 
ATOM     18  C   UNL     1      30.270 -31.976 -30.405  0.00  0.00    -0.032 C 
ATOM     19  C   UNL     1      35.381 -33.857 -30.172  0.00  0.00    -0.031 C 
ENDROOT
BRANCH   1  22
ATOM     20  C   UNL     1      38.069 -36.188 -31.006  0.00  0.00    +0.237 C 
ATOM     21  O   UNL     1      38.293 -36.008 -32.193  0.00  0.00    -0.271 OA
ATOM     22  N   UNL     1      36.976 -35.711 -30.323  0.00  0.00    -0.309 N 
ATOM     23  H   UNL     1      36.932 -35.827 -29.346  0.00  0.00    +0.000 HD
BRANCH  20  26
ATOM     24  C   UNL     1      39.725 -38.616 -28.474  0.00  0.00    -0.043 C 
ATOM     25  C   UNL     1      38.634 -37.891 -29.228  0.00  0.00    -0.065 C 
ATOM     26  C   UNL     1      38.986 -36.943 -30.120  0.00  0.00    -0.001 C 
BRANCH  25  27
ATOM     27  C   UNL     1      37.224 -38.339 -28.852  0.00  0.00    -0.025 C 
ATOM     28  C   UNL     1      36.801 -37.784 -27.490  0.00  0.00    -0.059 C 
ATOM     29  C   UNL     1      36.960 -39.846 -28.941  0.00  0.00    -0.059 C 
ENDBRANCH  25  27
ENDBRANCH  20  26
ENDBRANCH   1  22
BRANCH  15  30
ATOM     30  C   UNL     1      26.571 -32.227 -31.750  0.00  0.00    +0.010 C 
ATOM     31  C   UNL     1      25.396 -32.610 -30.829  0.00  0.00    -0.049 C 
BRANCH  30  32
ATOM     32  N   UNL     1      26.219 -31.229 -32.785  0.00  0.00    -0.305 N 
ATOM     33  C   UNL     1      24.974 -30.494 -32.556  0.00  0.00    -0.013 C 
ATOM     34  C   UNL     1      26.177 -31.836 -34.120  0.00  0.00    -0.013 C 
ATOM     35  H   UNL     1      26.971 -30.543 -32.721  0.00  0.00    +0.000 HD
ENDBRANCH  30  32
ENDBRANCH  15  30
TORSDOF 5
ENDMDL
MODEL 3
REMARK VINA RESULT:    -7.597     16.238     17.824
REMARK INTER + INTRA:         -10.298
REMARK INTER:                  -9.457
REMARK INTRA:                  -0.841
REMARK UNBOUND:                -0.481
REMARK  Name = cpd194.pdb
REMARK  13 active torsions:
REMARK  status: ('A' for Active; 'I' for Inactive)
REMARK    1  A    between atoms: C_1  and  C_2
REMARK    2  A    between atoms: C_2  and  C_31
REMARK    3  A    between atoms: C_3  and  C_4
REMARK    4  A    between atoms: N_6  and  C_7
REMARK    5  A    between atoms: C_10  and  C_11
REMARK    6  A    between atoms: C_19  and  C_20
REMARK    7  A    between atoms: C_21  and  C_22
REMARK    8  A    between atoms: C_22  and  C_23
REMARK    9  A    between atoms: C_22  and  N_24
REMARK   10  A    between atoms: N_24  and  C_25
REMARK   11  A    between atoms: N_24  and  C_26
REMARK   12  A    between atoms: C_31  and  C_32
REMARK   13  A    between atoms: C_31  and  C_33
REMARK                            x       y       z     vdW  Elec       q    Type
REMARK                         _______ _______ _______ _____ _____    ______ ____
ROOT
ATOM      1  C   UNL     1      43.913 -20.573 -39.569  0.00  0.00    +0.024 C 
ATOM      2  C   UNL     1      42.438 -20.837 -39.896  0.00  0.00    -0.034 C 
ATOM      3  C   UNL     1      41.495 -19.965 -39.066  0.00  0.00    -0.045 C 
ATOM      4  C   UNL     1      41.734 -20.071 -37.531  0.00  0.00    -0.026 C 
ATOM      5  C   UNL     1      41.366 -21.508 -37.082  0.00  0.00    -0.059 C 
ATOM      6  C   UNL     1      43.237 -19.765 -37.268  0.00  0.00    -0.034 C 
ATOM      7  C   UNL     1      43.554 -19.789 -35.774  0.00  0.00    -0.049 C 
ATOM      8  C   UNL     1      42.772 -18.700 -35.052  0.00  0.00    -0.049 C 
ATOM      9  C   UNL     1      41.246 -18.709 -35.293  0.00  0.00    -0.034 C 
ATOM     10  C   UNL     1      40.874 -18.980 -36.781  0.00  0.00    -0.032 C 
ATOM     11  C   UNL     1      39.354 -19.126 -36.997  0.00  0.00    -0.049 C 
ATOM     12  C   UNL     1      38.526 -18.778 -35.763  0.00  0.00    -0.047 C 
ATOM     13  C   UNL     1      38.904 -19.620 -34.527  0.00  0.00    -0.025 C 
ATOM     14  C   UNL     1      38.461 -21.084 -34.742  0.00  0.00    -0.059 C 
ATOM     15  C   UNL     1      38.242 -19.115 -33.192  0.00  0.00    -0.020 C 
ATOM     16  C   UNL     1      39.289 -18.169 -32.620  0.00  0.00    -0.048 C 
ATOM     17  C   UNL     1      40.573 -18.952 -32.833  0.00  0.00    -0.049 C 
ATOM     18  C   UNL     1      40.454 -19.553 -34.254  0.00  0.00    -0.032 C 
ATOM     19  C   UNL     1      44.190 -20.667 -38.065  0.00  0.00    -0.031 C 
ENDROOT
BRANCH   1  22
ATOM     20  C   UNL     1      45.132 -21.265 -41.603  0.00  0.00    +0.237 C 
ATOM     21  O   UNL     1      44.878 -20.253 -42.237  0.00  0.00    -0.271 OA
ATOM     22  N   UNL     1      44.773 -21.495 -40.297  0.00  0.00    -0.309 N 
ATOM     23  H   UNL     1      45.106 -22.303 -39.842  0.00  0.00    +0.000 HD
BRANCH  20  26
ATOM     24  C   UNL     1      47.823 -23.870 -42.612  0.00  0.00    -0.043 C 
ATOM     25  C   UNL     1      47.228 -22.607 -42.033  0.00  0.00    -0.065 C 
ATOM     26  C   UNL     1      45.903 -22.396 -42.170  0.00  0.00    -0.001 C 
BRANCH  25  27
ATOM     27  C   UNL     1      48.251 -21.698 -41.357  0.00  0.00    -0.025 C 
ATOM     28  C   UNL     1      48.660 -20.537 -42.266  0.00  0.00    -0.059 C 
ATOM     29  C   UNL     1      49.481 -22.402 -40.773  0.00  0.00    -0.059 C 
ENDBRANCH  25  27
ENDBRANCH  20  26
ENDBRANCH   1  22
BRANCH  15  30
ATOM     30  C   UNL     1      36.768 -18.599 -33.227  0.00  0.00    +0.010 C 
ATOM     31  C   UNL     1      35.832 -19.620 -32.550  0.00  0.00    -0.049 C 
BRANCH  30  32
ATOM     32  N   UNL     1      36.586 -17.211 -32.747  0.00  0.00    -0.305 N 
ATOM     33  C   UNL     1      35.512 -17.016 -31.770  0.00  0.00    -0.013 C 
ATOM     34  C   UNL     1      36.392 -16.280 -33.863  0.00  0.00    -0.013 C 
ATOM     35  H   UNL     1      37.457 -17.012 -32.255  0.00  0.00    +0.000 HD
ENDBRANCH  30  32
ENDBRANCH  15  30
TORSDOF 5
ENDMDL
MODEL 4
REMARK VINA RESULT:    -7.564      1.669      2.210
REMARK INTER + INTRA:         -10.255
REMARK INTER:                 -10.803
REMARK INTRA:                   0.548
REMARK UNBOUND:                -0.481
REMARK  Name = cpd194.pdb
REMARK  13 active torsions:
REMARK  status: ('A' for Active; 'I' for Inactive)
REMARK    1  A    between atoms: C_1  and  C_2
REMARK    2  A    between atoms: C_2  and  C_31
REMARK    3  A    between atoms: C_3  and  C_4
REMARK    4  A    between atoms: N_6  and  C_7
REMARK    5  A    between atoms: C_10  and  C_11
REMARK    6  A    between atoms: C_19  and  C_20
REMARK    7  A    between atoms: C_21  and  C_22
REMARK    8  A    between atoms: C_22  and  C_23
REMARK    9  A    between atoms: C_22  and  N_24
REMARK   10  A    between atoms: N_24  and  C_25
REMARK   11  A    between atoms: N_24  and  C_26
REMARK   12  A    between atoms: C_31  and  C_32
REMARK   13  A    between atoms: C_31  and  C_33
REMARK                            x       y       z     vdW  Elec       q    Type
REMARK                         _______ _______ _______ _____ _____    ______ ____
ROOT
ATOM      1  C   UNL     1      35.732 -35.496 -31.759  0.00  0.00    +0.024 C 
ATOM      2  C   UNL     1      34.517 -36.418 -31.608  0.00  0.00    -0.034 C 
ATOM      3  C   UNL     1      33.194 -35.656 -31.712  0.00  0.00    -0.045 C 
ATOM      4  C   UNL     1      33.085 -34.455 -30.727  0.00  0.00    -0.026 C 
ATOM      5  C   UNL     1      33.051 -35.016 -29.283  0.00  0.00    -0.059 C 
ATOM      6  C   UNL     1      34.329 -33.549 -30.953  0.00  0.00    -0.034 C 
ATOM      7  C   UNL     1      34.278 -32.307 -30.065  0.00  0.00    -0.049 C 
ATOM      8  C   UNL     1      33.068 -31.454 -30.422  0.00  0.00    -0.049 C 
ATOM      9  C   UNL     1      31.711 -32.193 -30.417  0.00  0.00    -0.034 C 
ATOM     10  C   UNL     1      31.795 -33.609 -31.062  0.00  0.00    -0.032 C 
ATOM     11  C   UNL     1      30.477 -34.399 -30.934  0.00  0.00    -0.049 C 
ATOM     12  C   UNL     1      29.318 -33.570 -30.391  0.00  0.00    -0.047 C 
ATOM     13  C   UNL     1      29.618 -32.941 -29.015  0.00  0.00    -0.025 C 
ATOM     14  C   UNL     1      29.680 -34.049 -27.940  0.00  0.00    -0.059 C 
ATOM     15  C   UNL     1      28.544 -31.890 -28.550  0.00  0.00    -0.020 C 
ATOM     16  C   UNL     1      29.108 -30.569 -29.056  0.00  0.00    -0.048 C 
ATOM     17  C   UNL     1      30.576 -30.688 -28.682  0.00  0.00    -0.049 C 
ATOM     18  C   UNL     1      30.974 -32.138 -29.049  0.00  0.00    -0.032 C 
ATOM     19  C   UNL     1      35.661 -34.298 -30.805  0.00  0.00    -0.031 C 
ENDROOT
BRANCH   1  22
ATOM     20  C   UNL     1      37.458 -36.465 -30.282  0.00  0.00    +0.237 C 
ATOM     21  O   UNL     1      36.883 -36.193 -29.241  0.00  0.00    -0.271 OA
ATOM     22  N   UNL     1      36.968 -36.235 -31.545  0.00  0.00    -0.309 N 
ATOM     23  H   UNL     1      37.464 -36.577 -32.323  0.00  0.00    +0.000 HD
BRANCH  20  26
ATOM     24  C   UNL     1      41.139 -37.507 -30.925  0.00  0.00    -0.043 C 
ATOM     25  C   UNL     1      39.832 -36.767 -31.092  0.00  0.00    -0.065 C 
ATOM     26  C   UNL     1      38.785 -37.123 -30.319  0.00  0.00    -0.001 C 
BRANCH  25  27
ATOM     27  C   UNL     1      39.871 -35.684 -32.166  0.00  0.00    -0.025 C 
ATOM     28  C   UNL     1      40.885 -36.015 -33.264  0.00  0.00    -0.059 C 
ATOM     29  C   UNL     1      40.056 -34.251 -31.657  0.00  0.00    -0.059 C 
ENDBRANCH  25  27
ENDBRANCH  20  26
ENDBRANCH   1  22
BRANCH  15  30
ATOM     30  C   UNL     1      27.036 -32.171 -28.844  0.00  0.00    +0.010 C 
ATOM     31  C   UNL     1      26.667 -31.667 -30.253  0.00  0.00    -0.049 C 
BRANCH  30  32
ATOM     32  N   UNL     1      26.600 -33.559 -28.572  0.00  0.00    -0.305 N 
ATOM     33  C   UNL     1      25.685 -34.138 -29.558  0.00  0.00    -0.013 C 
ATOM     34  C   UNL     1      26.004 -33.680 -27.237  0.00  0.00    -0.013 C 
ATOM     35  H   UNL     1      27.463 -34.097 -28.635  0.00  0.00    +0.000 HD
ENDBRANCH  30  32
ENDBRANCH  15  30
TORSDOF 5
ENDMDL
MODEL 5
REMARK VINA RESULT:    -7.494      2.934     10.258
REMARK INTER + INTRA:         -10.165
REMARK INTER:                 -10.283
REMARK INTRA:                   0.118
REMARK UNBOUND:                -0.481
REMARK  Name = cpd194.pdb
REMARK  13 active torsions:
REMARK  status: ('A' for Active; 'I' for Inactive)
REMARK    1  A    between atoms: C_1  and  C_2
REMARK    2  A    between atoms: C_2  and  C_31
REMARK    3  A    between atoms: C_3  and  C_4
REMARK    4  A    between atoms: N_6  and  C_7
REMARK    5  A    between atoms: C_10  and  C_11
REMARK    6  A    between atoms: C_19  and  C_20
REMARK    7  A    between atoms: C_21  and  C_22
REMARK    8  A    between atoms: C_22  and  C_23
REMARK    9  A    between atoms: C_22  and  N_24
REMARK   10  A    between atoms: N_24  and  C_25
REMARK   11  A    between atoms: N_24  and  C_26
REMARK   12  A    between atoms: C_31  and  C_32
REMARK   13  A    between atoms: C_31  and  C_33
REMARK                            x       y       z     vdW  Elec       q    Type
REMARK                         _______ _______ _______ _____ _____    ______ ____
ROOT
ATOM      1  C   UNL     1      31.526 -30.699 -29.694  0.00  0.00    +0.024 C 
ATOM      2  C   UNL     1      30.947 -32.018 -29.169  0.00  0.00    -0.034 C 
ATOM      3  C   UNL     1      32.038 -32.998 -28.733  0.00  0.00    -0.045 C 
ATOM      4  C   UNL     1      33.103 -33.277 -29.835  0.00  0.00    -0.026 C 
ATOM      5  C   UNL     1      32.409 -34.024 -31.001  0.00  0.00    -0.059 C 
ATOM      6  C   UNL     1      33.668 -31.904 -30.299  0.00  0.00    -0.034 C 
ATOM      7  C   UNL     1      34.768 -32.082 -31.343  0.00  0.00    -0.049 C 
ATOM      8  C   UNL     1      35.946 -32.839 -30.744  0.00  0.00    -0.049 C 
ATOM      9  C   UNL     1      35.597 -34.186 -30.073  0.00  0.00    -0.034 C 
ATOM     10  C   UNL     1      34.293 -34.114 -29.223  0.00  0.00    -0.032 C 
ATOM     11  C   UNL     1      33.870 -35.489 -28.667  0.00  0.00    -0.049 C 
ATOM     12  C   UNL     1      34.908 -36.584 -28.891  0.00  0.00    -0.047 C 
ATOM     13  C   UNL     1      35.272 -36.776 -30.378  0.00  0.00    -0.025 C 
ATOM     14  C   UNL     1      34.071 -37.389 -31.131  0.00  0.00    -0.059 C 
ATOM     15  C   UNL     1      36.509 -37.719 -30.610  0.00  0.00    -0.020 C 
ATOM     16  C   UNL     1      37.683 -36.751 -30.653  0.00  0.00    -0.048 C 
ATOM     17  C   UNL     1      37.138 -35.630 -31.523  0.00  0.00    -0.049 C 
ATOM     18  C   UNL     1      35.687 -35.405 -31.035  0.00  0.00    -0.032 C 
ATOM     19  C   UNL     1      32.582 -30.931 -30.780  0.00  0.00    -0.031 C 
ENDROOT
BRANCH   1  22
ATOM     20  C   UNL     1      29.818 -30.112 -31.378  0.00  0.00    +0.237 C 
ATOM     21  O   UNL     1      29.966 -31.123 -32.047  0.00  0.00    -0.271 OA
ATOM     22  N   UNL     1      30.467 -29.837 -30.199  0.00  0.00    -0.309 N 
ATOM     23  H   UNL     1      30.210 -29.038 -29.683  0.00  0.00    +0.000 HD
BRANCH  20  26
ATOM     24  C   UNL     1      26.841 -27.646 -31.702  0.00  0.00    -0.043 C 
ATOM     25  C   UNL     1      27.627 -28.861 -31.265  0.00  0.00    -0.065 C 
ATOM     26  C   UNL     1      28.873 -29.033 -31.751  0.00  0.00    -0.001 C 
BRANCH  25  27
ATOM     27  C   UNL     1      26.866 -29.773 -30.306  0.00  0.00    -0.025 C 
ATOM     28  C   UNL     1      25.385 -29.874 -30.680  0.00  0.00    -0.059 C 
ATOM     29  C   UNL     1      27.040 -29.463 -28.816  0.00  0.00    -0.059 C 
ENDBRANCH  25  27
ENDBRANCH  20  26
ENDBRANCH   1  22
BRANCH  15  30
ATOM     30  C   UNL     1      36.672 -38.986 -29.712  0.00  0.00    +0.010 C 
ATOM     31  C   UNL     1      37.235 -38.590 -28.333  0.00  0.00    -0.049 C 
BRANCH  30  32
ATOM     32  N   UNL     1      35.476 -39.855 -29.642  0.00  0.00    -0.305 N 
ATOM     33  C   UNL     1      35.077 -40.273 -28.297  0.00  0.00    -0.013 C 
ATOM     34  C   UNL     1      35.629 -41.044 -30.487  0.00  0.00    -0.013 C 
ATOM     35  H   UNL     1      34.726 -39.257 -29.989  0.00  0.00    +0.000 HD
ENDBRANCH  30  32
ENDBRANCH  15  30
TORSDOF 5
ENDMDL
MODEL 6
REMARK VINA RESULT:    -7.447      3.399     10.796
REMARK INTER + INTRA:         -10.105
REMARK INTER:                  -9.284
REMARK INTRA:                  -0.821
REMARK UNBOUND:                -0.481
REMARK  Name = cpd194.pdb
REMARK  13 active torsions:
REMARK  status: ('A' for Active; 'I' for Inactive)
REMARK    1  A    between atoms: C_1  and  C_2
REMARK    2  A    between atoms: C_2  and  C_31
REMARK    3  A    between atoms: C_3  and  C_4
REMARK    4  A    between atoms: N_6  and  C_7
REMARK    5  A    between atoms: C_10  and  C_11
REMARK    6  A    between atoms: C_19  and  C_20
REMARK    7  A    between atoms: C_21  and  C_22
REMARK    8  A    between atoms: C_22  and  C_23
REMARK    9  A    between atoms: C_22  and  N_24
REMARK   10  A    between atoms: N_24  and  C_25
REMARK   11  A    between atoms: N_24  and  C_26
REMARK   12  A    between atoms: C_31  and  C_32
REMARK   13  A    between atoms: C_31  and  C_33
REMARK                            x       y       z     vdW  Elec       q    Type
REMARK                         _______ _______ _______ _____ _____    ______ ____
ROOT
ATOM      1  C   UNL     1      29.342 -30.210 -30.100  0.00  0.00    +0.024 C 
ATOM      2  C   UNL     1      30.451 -30.082 -29.049  0.00  0.00    -0.034 C 
ATOM      3  C   UNL     1      31.778 -30.671 -29.532  0.00  0.00    -0.045 C 
ATOM      4  C   UNL     1      31.667 -32.145 -30.021  0.00  0.00    -0.026 C 
ATOM      5  C   UNL     1      31.314 -33.033 -28.802  0.00  0.00    -0.059 C 
ATOM      6  C   UNL     1      30.548 -32.197 -31.101  0.00  0.00    -0.034 C 
ATOM      7  C   UNL     1      30.407 -33.602 -31.684  0.00  0.00    -0.049 C 
ATOM      8  C   UNL     1      31.692 -34.011 -32.392  0.00  0.00    -0.049 C 
ATOM      9  C   UNL     1      32.980 -33.890 -31.548  0.00  0.00    -0.034 C 
ATOM     10  C   UNL     1      33.023 -32.584 -30.699  0.00  0.00    -0.032 C 
ATOM     11  C   UNL     1      34.241 -32.529 -29.755  0.00  0.00    -0.049 C 
ATOM     12  C   UNL     1      35.246 -33.652 -29.989  0.00  0.00    -0.047 C 
ATOM     13  C   UNL     1      34.622 -35.057 -29.861  0.00  0.00    -0.025 C 
ATOM     14  C   UNL     1      34.256 -35.329 -28.385  0.00  0.00    -0.059 C 
ATOM     15  C   UNL     1      35.572 -36.217 -30.336  0.00  0.00    -0.020 C 
ATOM     16  C   UNL     1      35.195 -36.400 -31.800  0.00  0.00    -0.048 C 
ATOM     17  C   UNL     1      33.677 -36.347 -31.744  0.00  0.00    -0.049 C 
ATOM     18  C   UNL     1      33.344 -35.188 -30.774  0.00  0.00    -0.032 C 
ATOM     19  C   UNL     1      29.201 -31.649 -30.609  0.00  0.00    -0.031 C 
ENDROOT
BRANCH   1  22
ATOM     20  C   UNL     1      27.744 -28.406 -29.560  0.00  0.00    +0.237 C 
ATOM     21  O   UNL     1      28.397 -27.516 -30.081  0.00  0.00    -0.271 OA
ATOM     22  N   UNL     1      28.072 -29.740 -29.566  0.00  0.00    -0.309 N 
ATOM     23  H   UNL     1      27.432 -30.394 -29.200  0.00  0.00    +0.000 HD
BRANCH  20  26
ATOM     24  C   UNL     1      24.929 -27.405 -27.086  0.00  0.00    -0.043 C 
ATOM     25  C   UNL     1      26.322 -27.677 -27.603  0.00  0.00    -0.065 C 
ATOM     26  C   UNL     1      26.464 -28.156 -28.856  0.00  0.00    -0.001 C 
BRANCH  25  27
ATOM     27  C   UNL     1      27.424 -27.375 -26.590  0.00  0.00    -0.025 C 
ATOM     28  C   UNL     1      27.122 -28.000 -25.226  0.00  0.00    -0.059 C 
ATOM     29  C   UNL     1      27.809 -25.899 -26.449  0.00  0.00    -0.059 C 
ENDBRANCH  25  27
ENDBRANCH  20  26
ENDBRANCH   1  22
BRANCH  15  30
ATOM     30  C   UNL     1      37.096 -36.128 -30.007  0.00  0.00    +0.010 C 
ATOM     31  C   UNL     1      37.472 -37.181 -28.945  0.00  0.00    -0.049 C 
BRANCH  30  32
ATOM     32  N   UNL     1      37.987 -36.127 -31.188  0.00  0.00    -0.305 N 
ATOM     33  C   UNL     1      39.227 -36.893 -31.046  0.00  0.00    -0.013 C 
ATOM     34  C   UNL     1      38.314 -34.761 -31.609  0.00  0.00    -0.013 C 
ATOM     35  H   UNL     1      37.437 -36.606 -31.902  0.00  0.00    +0.000 HD
ENDBRANCH  30  32
ENDBRANCH  15  30
TORSDOF 5
ENDMDL
MODEL 7
REMARK VINA RESULT:    -7.241      3.644     10.563
REMARK INTER + INTRA:          -9.838
REMARK INTER:                  -9.173
REMARK INTRA:                  -0.665
REMARK UNBOUND:                -0.481
REMARK  Name = cpd194.pdb
REMARK  13 active torsions:
REMARK  status: ('A' for Active; 'I' for Inactive)
REMARK    1  A    between atoms: C_1  and  C_2
REMARK    2  A    between atoms: C_2  and  C_31
REMARK    3  A    between atoms: C_3  and  C_4
REMARK    4  A    between atoms: N_6  and  C_7
REMARK    5  A    between atoms: C_10  and  C_11
REMARK    6  A    between atoms: C_19  and  C_20
REMARK    7  A    between atoms: C_21  and  C_22
REMARK    8  A    between atoms: C_22  and  C_23
REMARK    9  A    between atoms: C_22  and  N_24
REMARK   10  A    between atoms: N_24  and  C_25
REMARK   11  A    between atoms: N_24  and  C_26
REMARK   12  A    between atoms: C_31  and  C_32
REMARK   13  A    between atoms: C_31  and  C_33
REMARK                            x       y       z     vdW  Elec       q    Type
REMARK                         _______ _______ _______ _____ _____    ______ ____
ROOT
ATOM      1  C   UNL     1      30.487 -30.503 -29.541  0.00  0.00    +0.024 C 
ATOM      2  C   UNL     1      29.717 -31.820 -29.695  0.00  0.00    -0.034 C 
ATOM      3  C   UNL     1      30.536 -33.028 -29.231  0.00  0.00    -0.045 C 
ATOM      4  C   UNL     1      31.932 -33.135 -29.913  0.00  0.00    -0.026 C 
ATOM      5  C   UNL     1      31.713 -33.420 -31.421  0.00  0.00    -0.059 C 
ATOM      6  C   UNL     1      32.666 -31.782 -29.694  0.00  0.00    -0.034 C 
ATOM      7  C   UNL     1      34.075 -31.815 -30.283  0.00  0.00    -0.049 C 
ATOM      8  C   UNL     1      34.917 -32.867 -29.574  0.00  0.00    -0.049 C 
ATOM      9  C   UNL     1      34.305 -34.285 -29.527  0.00  0.00    -0.034 C 
ATOM     10  C   UNL     1      32.778 -34.270 -29.215  0.00  0.00    -0.032 C 
ATOM     11  C   UNL     1      32.140 -35.671 -29.304  0.00  0.00    -0.049 C 
ATOM     12  C   UNL     1      33.157 -36.795 -29.477  0.00  0.00    -0.047 C 
ATOM     13  C   UNL     1      34.053 -36.613 -30.719  0.00  0.00    -0.025 C 
ATOM     14  C   UNL     1      33.211 -36.814 -31.999  0.00  0.00    -0.059 C 
ATOM     15  C   UNL     1      35.260 -37.619 -30.782  0.00  0.00    -0.020 C 
ATOM     16  C   UNL     1      36.387 -36.854 -30.102  0.00  0.00    -0.048 C 
ATOM     17  C   UNL     1      36.242 -35.469 -30.712  0.00  0.00    -0.049 C 
ATOM     18  C   UNL     1      34.721 -35.186 -30.724  0.00  0.00    -0.032 C 
ATOM     19  C   UNL     1      31.869 -30.569 -30.198  0.00  0.00    -0.031 C 
ENDROOT
BRANCH   1  22
ATOM     20  C   UNL     1      28.725 -28.780 -29.371  0.00  0.00    +0.237 C 
ATOM     21  O   UNL     1      28.459 -29.006 -28.201  0.00  0.00    -0.271 OA
ATOM     22  N   UNL     1      29.721 -29.394 -30.091  0.00  0.00    -0.309 N 
ATOM     23  H   UNL     1      29.922 -29.077 -31.001  0.00  0.00    +0.000 HD
BRANCH  20  26
ATOM     24  C   UNL     1      27.135 -25.567 -30.852  0.00  0.00    -0.043 C 
ATOM     25  C   UNL     1      27.822 -26.471 -29.855  0.00  0.00    -0.065 C 
ATOM     26  C   UNL     1      28.006 -27.768 -30.179  0.00  0.00    -0.001 C 
BRANCH  25  27
ATOM     27  C   UNL     1      28.218 -25.770 -28.559  0.00  0.00    -0.025 C 
ATOM     28  C   UNL     1      27.008 -25.138 -27.868  0.00  0.00    -0.059 C 
ATOM     29  C   UNL     1      29.375 -24.771 -28.670  0.00  0.00    -0.059 C 
ENDBRANCH  25  27
ENDBRANCH  20  26
ENDBRANCH   1  22
BRANCH  15  30
ATOM     30  C   UNL     1      35.037 -39.096 -30.328  0.00  0.00    +0.010 C 
ATOM     31  C   UNL     1      35.501 -40.067 -31.432  0.00  0.00    -0.049 C 
BRANCH  30  32
ATOM     32  N   UNL     1      35.570 -39.420 -28.986  0.00  0.00    -0.305 N 
ATOM     33  C   UNL     1      36.665 -40.392 -28.958  0.00  0.00    -0.013 C 
ATOM     34  C   UNL     1      34.507 -39.871 -28.083  0.00  0.00    -0.013 C 
ATOM     35  H   UNL     1      35.967 -38.536 -28.667  0.00  0.00    +0.000 HD
ENDBRANCH  30  32
ENDBRANCH  15  30
TORSDOF 5
ENDMDL
MODEL 8
REMARK VINA RESULT:    -7.020     18.614     21.341
REMARK INTER + INTRA:          -9.553
REMARK INTER:                  -9.115
REMARK INTRA:                  -0.438
REMARK UNBOUND:                -0.481
REMARK  Name = cpd194.pdb
REMARK  13 active torsions:
REMARK  status: ('A' for Active; 'I' for Inactive)
REMARK    1  A    between atoms: C_1  and  C_2
REMARK    2  A    between atoms: C_2  and  C_31
REMARK    3  A    between atoms: C_3  and  C_4
REMARK    4  A    between atoms: N_6  and  C_7
REMARK    5  A    between atoms: C_10  and  C_11
REMARK    6  A    between atoms: C_19  and  C_20
REMARK    7  A    between atoms: C_21  and  C_22
REMARK    8  A    between atoms: C_22  and  C_23
REMARK    9  A    between atoms: C_22  and  N_24
REMARK   10  A    between atoms: N_24  and  C_25
REMARK   11  A    between atoms: N_24  and  C_26
REMARK   12  A    between atoms: C_31  and  C_32
REMARK   13  A    between atoms: C_31  and  C_33
REMARK                            x       y       z     vdW  Elec       q    Type
REMARK                         _______ _______ _______ _____ _____    ______ ____
ROOT
ATOM      1  C   UNL     1      40.309 -20.855 -38.257  0.00  0.00    +0.024 C 
ATOM      2  C   UNL     1      40.393 -19.446 -37.659  0.00  0.00    -0.034 C 
ATOM      3  C   UNL     1      41.225 -18.497 -38.525  0.00  0.00    -0.045 C 
ATOM      4  C   UNL     1      42.652 -19.033 -38.845  0.00  0.00    -0.026 C 
ATOM      5  C   UNL     1      43.455 -19.092 -37.522  0.00  0.00    -0.059 C 
ATOM      6  C   UNL     1      42.491 -20.447 -39.473  0.00  0.00    -0.034 C 
ATOM      7  C   UNL     1      43.844 -21.031 -39.876  0.00  0.00    -0.049 C 
ATOM      8  C   UNL     1      44.492 -20.167 -40.950  0.00  0.00    -0.049 C 
ATOM      9  C   UNL     1      44.618 -18.666 -40.607  0.00  0.00    -0.034 C 
ATOM     10  C   UNL     1      43.343 -18.099 -39.914  0.00  0.00    -0.032 C 
ATOM     11  C   UNL     1      43.519 -16.639 -39.448  0.00  0.00    -0.049 C 
ATOM     12  C   UNL     1      44.814 -15.995 -39.934  0.00  0.00    -0.047 C 
ATOM     13  C   UNL     1      46.074 -16.776 -39.507  0.00  0.00    -0.025 C 
ATOM     14  C   UNL     1      46.269 -16.648 -37.979  0.00  0.00    -0.059 C 
ATOM     15  C   UNL     1      47.394 -16.273 -40.197  0.00  0.00    -0.020 C 
ATOM     16  C   UNL     1      47.504 -17.162 -41.428  0.00  0.00    -0.048 C 
ATOM     17  C   UNL     1      47.163 -18.530 -40.862  0.00  0.00    -0.049 C 
ATOM     18  C   UNL     1      45.960 -18.293 -39.917  0.00  0.00    -0.032 C 
ATOM     19  C   UNL     1      41.696 -21.418 -38.589  0.00  0.00    -0.031 C 
ENDROOT
BRANCH   1  22
ATOM     20  C   UNL     1      40.151 -22.143 -36.155  0.00  0.00    +0.237 C 
ATOM     21  O   UNL     1      41.187 -21.707 -35.678  0.00  0.00    -0.271 OA
ATOM     22  N   UNL     1      39.605 -21.755 -37.355  0.00  0.00    -0.309 N 
ATOM     23  H   UNL     1      38.717 -22.094 -37.611  0.00  0.00    +0.000 HD
BRANCH  20  26
ATOM     24  C   UNL     1      37.671 -24.084 -33.891  0.00  0.00    -0.043 C 
ATOM     25  C   UNL     1      38.523 -22.943 -34.398  0.00  0.00    -0.065 C 
ATOM     26  C   UNL     1      39.313 -23.155 -35.470  0.00  0.00    -0.001 C 
BRANCH  25  27
ATOM     27  C   UNL     1      38.379 -21.659 -33.585  0.00  0.00    -0.025 C 
ATOM     28  C   UNL     1      39.447 -21.560 -32.494  0.00  0.00    -0.059 C 
ATOM     29  C   UNL     1      36.982 -21.386 -33.018  0.00  0.00    -0.059 C 
ENDBRANCH  25  27
ENDBRANCH  20  26
ENDBRANCH   1  22
BRANCH  15  30
ATOM     30  C   UNL     1      47.598 -14.740 -40.414  0.00  0.00    +0.010 C 
ATOM     31  C   UNL     1      48.720 -14.218 -39.495  0.00  0.00    -0.049 C 
BRANCH  30  32
ATOM     32  N   UNL     1      47.743 -14.328 -41.828  0.00  0.00    -0.305 N 
ATOM     33  C   UNL     1      49.084 -13.892 -42.224  0.00  0.00    -0.013 C 
ATOM     34  C   UNL     1      46.776 -13.284 -42.183  0.00  0.00    -0.013 C 
ATOM     35  H   UNL     1      47.559 -15.186 -42.347  0.00  0.00    +0.000 HD
ENDBRANCH  30  32
ENDBRANCH  15  30
TORSDOF 5
ENDMDL
MODEL 9
REMARK VINA RESULT:    -7.019      2.462      3.231
REMARK INTER + INTRA:          -9.551
REMARK INTER:                  -8.782
REMARK INTRA:                  -0.769
REMARK UNBOUND:                -0.481
REMARK  Name = cpd194.pdb
REMARK  13 active torsions:
REMARK  status: ('A' for Active; 'I' for Inactive)
REMARK    1  A    between atoms: C_1  and  C_2
REMARK    2  A    between atoms: C_2  and  C_31
REMARK    3  A    between atoms: C_3  and  C_4
REMARK    4  A    between atoms: N_6  and  C_7
REMARK    5  A    between atoms: C_10  and  C_11
REMARK    6  A    between atoms: C_19  and  C_20
REMARK    7  A    between atoms: C_21  and  C_22
REMARK    8  A    between atoms: C_22  and  C_23
REMARK    9  A    between atoms: C_22  and  N_24
REMARK   10  A    between atoms: N_24  and  C_25
REMARK   11  A    between atoms: N_24  and  C_26
REMARK   12  A    between atoms: C_31  and  C_32
REMARK   13  A    between atoms: C_31  and  C_33
REMARK                            x       y       z     vdW  Elec       q    Type
REMARK                         _______ _______ _______ _____ _____    ______ ____
ROOT
ATOM      1  C   UNL     1      34.452 -36.500 -30.684  0.00  0.00    +0.024 C 
ATOM      2  C   UNL     1      33.038 -36.940 -31.081  0.00  0.00    -0.034 C 
ATOM      3  C   UNL     1      32.256 -35.822 -31.774  0.00  0.00    -0.045 C 
ATOM      4  C   UNL     1      32.200 -34.498 -30.955  0.00  0.00    -0.026 C 
ATOM      5  C   UNL     1      31.372 -34.759 -29.671  0.00  0.00    -0.059 C 
ATOM      6  C   UNL     1      33.663 -34.096 -30.612  0.00  0.00    -0.034 C 
ATOM      7  C   UNL     1      33.710 -32.771 -29.855  0.00  0.00    -0.049 C 
ATOM      8  C   UNL     1      33.159 -31.647 -30.724  0.00  0.00    -0.049 C 
ATOM      9  C   UNL     1      31.754 -31.896 -31.317  0.00  0.00    -0.034 C 
ATOM     10  C   UNL     1      31.571 -33.352 -31.840  0.00  0.00    -0.032 C 
ATOM     11  C   UNL     1      30.129 -33.640 -32.305  0.00  0.00    -0.049 C 
ATOM     12  C   UNL     1      29.242 -32.399 -32.345  0.00  0.00    -0.047 C 
ATOM     13  C   UNL     1      29.157 -31.673 -30.987  0.00  0.00    -0.025 C 
ATOM     14  C   UNL     1      28.360 -32.539 -29.986  0.00  0.00    -0.059 C 
ATOM     15  C   UNL     1      28.454 -30.268 -31.064  0.00  0.00    -0.020 C 
ATOM     16  C   UNL     1      29.617 -29.308 -31.279  0.00  0.00    -0.048 C 
ATOM     17  C   UNL     1      30.645 -29.829 -30.289  0.00  0.00    -0.049 C 
ATOM     18  C   UNL     1      30.597 -31.370 -30.422  0.00  0.00    -0.032 C 
ATOM     19  C   UNL     1      34.440 -35.197 -29.876  0.00  0.00    -0.031 C 
ENDROOT
BRANCH   1  22
ATOM     20  C   UNL     1      36.454 -37.836 -30.130  0.00  0.00    +0.237 C 
ATOM     21  O   UNL     1      37.217 -37.197 -30.838  0.00  0.00    -0.271 OA
ATOM     22  N   UNL     1      35.125 -37.550 -29.933  0.00  0.00    -0.309 N 
ATOM     23  H   UNL     1      34.615 -38.067 -29.268  0.00  0.00    +0.000 HD
BRANCH  20  26
ATOM     24  C   UNL     1      37.031 -41.372 -28.644  0.00  0.00    -0.043 C 
ATOM     25  C   UNL     1      36.403 -40.274 -29.470  0.00  0.00    -0.065 C 
ATOM     26  C   UNL     1      36.885 -39.019 -29.349  0.00  0.00    -0.001 C 
BRANCH  25  27
ATOM     27  C   UNL     1      35.252 -40.749 -30.353  0.00  0.00    -0.025 C 
ATOM     28  C   UNL     1      34.454 -41.870 -29.683  0.00  0.00    -0.059 C 
ATOM     29  C   UNL     1      35.629 -41.121 -31.791  0.00  0.00    -0.059 C 
ENDBRANCH  25  27
ENDBRANCH  20  26
ENDBRANCH   1  22
BRANCH  15  30
ATOM     30  C   UNL     1      27.213 -30.093 -31.996  0.00  0.00    +0.010 C 
ATOM     31  C   UNL     1      25.947 -29.844 -31.152  0.00  0.00    -0.049 C 
BRANCH  30  32
ATOM     32  N   UNL     1      27.398 -29.123 -33.098  0.00  0.00    -0.305 N 
ATOM     33  C   UNL     1      26.403 -28.051 -33.169  0.00  0.00    -0.013 C 
ATOM     34  C   UNL     1      27.467 -29.798 -34.398  0.00  0.00    -0.013 C 
ATOM     35  H   UNL     1      28.285 -28.673 -32.874  0.00  0.00    +0.000 HD
ENDBRANCH  30  32
ENDBRANCH  15  30
TORSDOF 5
ENDMDL
MODEL 10
REMARK VINA RESULT:    -6.917     16.217     19.903
REMARK INTER + INTRA:          -9.419
REMARK INTER:                  -8.559
REMARK INTRA:                  -0.860
REMARK UNBOUND:                -0.481
REMARK  Name = cpd194.pdb
REMARK  13 active torsions:
REMARK  status: ('A' for Active; 'I' for Inactive)
REMARK    1  A    between atoms: C_1  and  C_2
REMARK    2  A    between atoms: C_2  and  C_31
REMARK    3  A    between atoms: C_3  and  C_4
REMARK    4  A    between atoms: N_6  and  C_7
REMARK    5  A    between atoms: C_10  and  C_11
REMARK    6  A    between atoms: C_19  and  C_20
REMARK    7  A    between atoms: C_21  and  C_22
REMARK    8  A    between atoms: C_22  and  C_23
REMARK    9  A    between atoms: C_22  and  N_24
REMARK   10  A    between atoms: N_24  and  C_25
REMARK   11  A    between atoms: N_24  and  C_26
REMARK   12  A    between atoms: C_31  and  C_32
REMARK   13  A    between atoms: C_31  and  C_33
REMARK                            x       y       z     vdW  Elec       q    Type
REMARK                         _______ _______ _______ _____ _____    ______ ____
ROOT
ATOM      1  C   UNL     1      38.282 -20.050 -35.200  0.00  0.00    +0.024 C 
ATOM      2  C   UNL     1      38.197 -20.033 -36.730  0.00  0.00    -0.034 C 
ATOM      3  C   UNL     1      39.418 -20.679 -37.387  0.00  0.00    -0.045 C 
ATOM      4  C   UNL     1      40.774 -20.075 -36.916  0.00  0.00    -0.026 C 
ATOM      5  C   UNL     1      40.847 -18.608 -37.410  0.00  0.00    -0.059 C 
ATOM      6  C   UNL     1      40.806 -20.150 -35.362  0.00  0.00    -0.034 C 
ATOM      7  C   UNL     1      42.132 -19.629 -34.810  0.00  0.00    -0.049 C 
ATOM      8  C   UNL     1      43.283 -20.500 -35.295  0.00  0.00    -0.049 C 
ATOM      9  C   UNL     1      43.363 -20.702 -36.825  0.00  0.00    -0.034 C 
ATOM     10  C   UNL     1      41.967 -20.946 -37.473  0.00  0.00    -0.032 C 
ATOM     11  C   UNL     1      42.029 -21.010 -39.013  0.00  0.00    -0.049 C 
ATOM     12  C   UNL     1      43.451 -21.023 -39.566  0.00  0.00    -0.047 C 
ATOM     13  C   UNL     1      44.285 -19.805 -39.116  0.00  0.00    -0.025 C 
ATOM     14  C   UNL     1      43.745 -18.528 -39.797  0.00  0.00    -0.059 C 
ATOM     15  C   UNL     1      45.813 -19.920 -39.468  0.00  0.00    -0.020 C 
ATOM     16  C   UNL     1      46.414 -20.544 -38.215  0.00  0.00    -0.048 C 
ATOM     17  C   UNL     1      45.727 -19.757 -37.111  0.00  0.00    -0.049 C 
ATOM     18  C   UNL     1      44.247 -19.647 -37.549  0.00  0.00    -0.032 C 
ATOM     19  C   UNL     1      39.605 -19.464 -34.695  0.00  0.00    -0.031 C 
ENDROOT
BRANCH   1  22
ATOM     20  C   UNL     1      36.692 -19.630 -33.357  0.00  0.00    +0.237 C 
ATOM     21  O   UNL     1      37.213 -20.412 -32.578  0.00  0.00    -0.271 OA
ATOM     22  N   UNL     1      37.159 -19.332 -34.615  0.00  0.00    -0.309 N 
ATOM     23  H   UNL     1      36.724 -18.616 -35.132  0.00  0.00    +0.000 HD
BRANCH  20  26
ATOM     24  C   UNL     1      34.078 -16.953 -32.333  0.00  0.00    -0.043 C 
ATOM     25  C   UNL     1      35.426 -17.609 -32.523  0.00  0.00    -0.065 C 
ATOM     26  C   UNL     1      35.470 -18.860 -33.027  0.00  0.00    -0.001 C 
BRANCH  25  27
ATOM     27  C   UNL     1      36.602 -16.738 -32.087  0.00  0.00    -0.025 C 
ATOM     28  C   UNL     1      36.190 -15.738 -31.005  0.00  0.00    -0.059 C 
ATOM     29  C   UNL     1      37.370 -16.046 -33.218  0.00  0.00    -0.059 C 
ENDBRANCH  25  27
ENDBRANCH  20  26
ENDBRANCH   1  22
BRANCH  15  30
ATOM     30  C   UNL     1      46.229 -20.549 -40.836  0.00  0.00    +0.010 C 
ATOM     31  C   UNL     1      46.917 -19.490 -41.720  0.00  0.00    -0.049 C 
BRANCH  30  32
ATOM     32  N   UNL     1      46.980 -21.820 -40.732  0.00  0.00    -0.305 N 
ATOM     33  C   UNL     1      48.412 -21.733 -41.024  0.00  0.00    -0.013 C 
ATOM     34  C   UNL     1      46.384 -22.864 -41.572  0.00  0.00    -0.013 C 
ATOM     35  H   UNL     1      46.905 -22.061 -39.744  0.00  0.00    +0.000 HD
ENDBRANCH  30  32
ENDBRANCH  15  30
TORSDOF 5
ENDMDL
MODEL 11
REMARK VINA RESULT:    -6.832     19.291     21.941
REMARK INTER + INTRA:          -9.310
REMARK INTER:                  -8.748
REMARK INTRA:                  -0.561
REMARK UNBOUND:                -0.481
REMARK  Name = cpd194.pdb
REMARK  13 active torsions:
REMARK  status: ('A' for Active; 'I' for Inactive)
REMARK    1  A    between atoms: C_1  and  C_2
REMARK    2  A    between atoms: C_2  and  C_31
REMARK    3  A    between atoms: C_3  and  C_4
REMARK    4  A    between atoms: N_6  and  C_7
REMARK    5  A    between atoms: C_10  and  C_11
REMARK    6  A    between atoms: C_19  and  C_20
REMARK    7  A    between atoms: C_21  and  C_22
REMARK    8  A    between atoms: C_22  and  C_23
REMARK    9  A    between atoms: C_22  and  N_24
REMARK   10  A    between atoms: N_24  and  C_25
REMARK   11  A    between atoms: N_24  and  C_26
REMARK   12  A    between atoms: C_31  and  C_32
REMARK   13  A    between atoms: C_31  and  C_33
REMARK                            x       y       z     vdW  Elec       q    Type
REMARK                         _______ _______ _______ _____ _____    ______ ____
ROOT
ATOM      1  C   UNL     1      42.054 -20.617 -36.741  0.00  0.00    +0.024 C 
ATOM      2  C   UNL     1      41.771 -20.272 -38.208  0.00  0.00    -0.034 C 
ATOM      3  C   UNL     1      43.032 -19.825 -38.952  0.00  0.00    -0.045 C 
ATOM      4  C   UNL     1      43.784 -18.652 -38.257  0.00  0.00    -0.026 C 
ATOM      5  C   UNL     1      42.880 -17.395 -38.316  0.00  0.00    -0.059 C 
ATOM      6  C   UNL     1      44.063 -19.079 -36.787  0.00  0.00    -0.034 C 
ATOM      7  C   UNL     1      44.854 -18.007 -36.040  0.00  0.00    -0.049 C 
ATOM      8  C   UNL     1      46.219 -17.813 -36.686  0.00  0.00    -0.049 C 
ATOM      9  C   UNL     1      46.200 -17.527 -38.204  0.00  0.00    -0.034 C 
ATOM     10  C   UNL     1      45.172 -18.414 -38.969  0.00  0.00    -0.032 C 
ATOM     11  C   UNL     1      45.054 -18.034 -40.460  0.00  0.00    -0.049 C 
ATOM     12  C   UNL     1      46.097 -17.019 -40.916  0.00  0.00    -0.047 C 
ATOM     13  C   UNL     1      46.066 -15.712 -40.099  0.00  0.00    -0.025 C 
ATOM     14  C   UNL     1      44.773 -14.930 -40.423  0.00  0.00    -0.059 C 
ATOM     15  C   UNL     1      47.282 -14.756 -40.385  0.00  0.00    -0.020 C 
ATOM     16  C   UNL     1      48.299 -15.160 -39.326  0.00  0.00    -0.048 C 
ATOM     17  C   UNL     1      47.430 -15.284 -38.085  0.00  0.00    -0.049 C 
ATOM     18  C   UNL     1      46.149 -16.013 -38.554  0.00  0.00    -0.032 C 
ATOM     19  C   UNL     1      42.796 -19.486 -36.021  0.00  0.00    -0.031 C 
ENDROOT
BRANCH   1  22
ATOM     20  C   UNL     1      40.424 -22.231 -35.824  0.00  0.00    +0.237 C 
ATOM     21  O   UNL     1      41.091 -23.222 -36.078  0.00  0.00    -0.271 OA
ATOM     22  N   UNL     1      40.817 -20.932 -36.040  0.00  0.00    -0.309 N 
ATOM     23  H   UNL     1      40.249 -20.197 -35.714  0.00  0.00    +0.000 HD
BRANCH  20  26
ATOM     24  C   UNL     1      37.327 -22.085 -33.493  0.00  0.00    -0.043 C 
ATOM     25  C   UNL     1      38.776 -22.043 -33.919  0.00  0.00    -0.065 C 
ATOM     26  C   UNL     1      39.079 -22.303 -35.207  0.00  0.00    -0.001 C 
BRANCH  25  27
ATOM     27  C   UNL     1      39.741 -21.714 -32.783  0.00  0.00    -0.025 C 
ATOM     28  C   UNL     1      40.189 -20.252 -32.830  0.00  0.00    -0.059 C 
ATOM     29  C   UNL     1      40.941 -22.656 -32.637  0.00  0.00    -0.059 C 
ENDBRANCH  25  27
ENDBRANCH  20  26
ENDBRANCH   1  22
BRANCH  15  30
ATOM     30  C   UNL     1      47.806 -14.619 -41.850  0.00  0.00    +0.010 C 
ATOM     31  C   UNL     1      47.359 -13.271 -42.449  0.00  0.00    -0.049 C 
BRANCH  30  32
ATOM     32  N   UNL     1      49.249 -14.899 -42.020  0.00  0.00    -0.305 N 
ATOM     33  C   UNL     1      50.118 -13.721 -42.090  0.00  0.00    -0.013 C 
ATOM     34  C   UNL     1      49.495 -15.744 -43.193  0.00  0.00    -0.013 C 
ATOM     35  H   UNL     1      49.501 -15.387 -41.161  0.00  0.00    +0.000 HD
ENDBRANCH  30  32
ENDBRANCH  15  30
TORSDOF 5
ENDMDL
MODEL 12
REMARK VINA RESULT:    -6.742      3.376     10.345
REMARK INTER + INTRA:          -9.194
REMARK INTER:                  -8.236
REMARK INTRA:                  -0.958
REMARK UNBOUND:                -0.481
REMARK  Name = cpd194.pdb
REMARK  13 active torsions:
REMARK  status: ('A' for Active; 'I' for Inactive)
REMARK    1  A    between atoms: C_1  and  C_2
REMARK    2  A    between atoms: C_2  and  C_31
REMARK    3  A    between atoms: C_3  and  C_4
REMARK    4  A    between atoms: N_6  and  C_7
REMARK    5  A    between atoms: C_10  and  C_11
REMARK    6  A    between atoms: C_19  and  C_20
REMARK    7  A    between atoms: C_21  and  C_22
REMARK    8  A    between atoms: C_22  and  C_23
REMARK    9  A    between atoms: C_22  and  N_24
REMARK   10  A    between atoms: N_24  and  C_25
REMARK   11  A    between atoms: N_24  and  C_26
REMARK   12  A    between atoms: C_31  and  C_32
REMARK   13  A    between atoms: C_31  and  C_33
REMARK                            x       y       z     vdW  Elec       q    Type
REMARK                         _______ _______ _______ _____ _____    ______ ____
ROOT
ATOM      1  C   UNL     1      30.609 -30.799 -30.101  0.00  0.00    +0.024 C 
ATOM      2  C   UNL     1      29.797 -32.093 -30.227  0.00  0.00    -0.034 C 
ATOM      3  C   UNL     1      30.541 -33.302 -29.655  0.00  0.00    -0.045 C 
ATOM      4  C   UNL     1      31.966 -33.499 -30.252  0.00  0.00    -0.026 C 
ATOM      5  C   UNL     1      31.817 -33.859 -31.752  0.00  0.00    -0.059 C 
ATOM      6  C   UNL     1      32.741 -32.163 -30.066  0.00  0.00    -0.034 C 
ATOM      7  C   UNL     1      34.177 -32.281 -30.572  0.00  0.00    -0.049 C 
ATOM      8  C   UNL     1      34.938 -33.323 -29.763  0.00  0.00    -0.049 C 
ATOM      9  C   UNL     1      34.268 -34.712 -29.674  0.00  0.00    -0.034 C 
ATOM     10  C   UNL     1      32.728 -34.623 -29.449  0.00  0.00    -0.032 C 
ATOM     11  C   UNL     1      32.040 -36.003 -29.497  0.00  0.00    -0.049 C 
ATOM     12  C   UNL     1      33.019 -37.172 -29.554  0.00  0.00    -0.047 C 
ATOM     13  C   UNL     1      33.987 -37.091 -30.752  0.00  0.00    -0.025 C 
ATOM     14  C   UNL     1      33.208 -37.333 -32.064  0.00  0.00    -0.059 C 
ATOM     15  C   UNL     1      35.155 -38.143 -30.694  0.00  0.00    -0.020 C 
ATOM     16  C   UNL     1      36.274 -37.383 -29.995  0.00  0.00    -0.048 C 
ATOM     17  C   UNL     1      36.217 -36.030 -30.685  0.00  0.00    -0.049 C 
ATOM     18  C   UNL     1      34.711 -35.692 -30.797  0.00  0.00    -0.032 C 
ATOM     19  C   UNL     1      32.021 -30.952 -30.677  0.00  0.00    -0.031 C 
ENDROOT
BRANCH   1  22
ATOM     20  C   UNL     1      28.904 -29.012 -30.126  0.00  0.00    +0.237 C 
ATOM     21  O   UNL     1      28.559 -29.169 -28.965  0.00  0.00    -0.271 OA
ATOM     22  N   UNL     1      29.919 -29.694 -30.752  0.00  0.00    -0.309 N 
ATOM     23  H   UNL     1      30.186 -29.430 -31.662  0.00  0.00    +0.000 HD
BRANCH  20  26
ATOM     24  C   UNL     1      26.703 -27.097 -32.683  0.00  0.00    -0.043 C 
ATOM     25  C   UNL     1      27.284 -28.260 -31.912  0.00  0.00    -0.065 C 
ATOM     26  C   UNL     1      28.271 -28.019 -31.025  0.00  0.00    -0.001 C 
BRANCH  25  27
ATOM     27  C   UNL     1      26.660 -29.607 -32.269  0.00  0.00    -0.025 C 
ATOM     28  C   UNL     1      27.455 -30.325 -33.362  0.00  0.00    -0.059 C 
ATOM     29  C   UNL     1      25.164 -29.578 -32.601  0.00  0.00    -0.059 C 
ENDBRANCH  25  27
ENDBRANCH  20  26
ENDBRANCH   1  22
BRANCH  15  30
ATOM     30  C   UNL     1      34.850 -39.584 -30.175  0.00  0.00    +0.010 C 
ATOM     31  C   UNL     1      35.245 -40.627 -31.239  0.00  0.00    -0.049 C 
BRANCH  30  32
ATOM     32  N   UNL     1      35.375 -39.880 -28.824  0.00  0.00    -0.305 N 
ATOM     33  C   UNL     1      36.371 -40.951 -28.754  0.00  0.00    -0.013 C 
ATOM     34  C   UNL     1      34.291 -40.174 -27.881  0.00  0.00    -0.013 C 
ATOM     35  H   UNL     1      35.861 -39.022 -28.563  0.00  0.00    +0.000 HD
ENDBRANCH  30  32
ENDBRANCH  15  30
TORSDOF 5
ENDMDL
MODEL 13
REMARK VINA RESULT:    -6.700      2.442      3.218
REMARK INTER + INTRA:          -9.140
REMARK INTER:                  -8.281
REMARK INTRA:                  -0.859
REMARK UNBOUND:                -0.481
REMARK  Name = cpd194.pdb
REMARK  13 active torsions:
REMARK  status: ('A' for Active; 'I' for Inactive)
REMARK    1  A    between atoms: C_1  and  C_2
REMARK    2  A    between atoms: C_2  and  C_31
REMARK    3  A    between atoms: C_3  and  C_4
REMARK    4  A    between atoms: N_6  and  C_7
REMARK    5  A    between atoms: C_10  and  C_11
REMARK    6  A    between atoms: C_19  and  C_20
REMARK    7  A    between atoms: C_21  and  C_22
REMARK    8  A    between atoms: C_22  and  C_23
REMARK    9  A    between atoms: C_22  and  N_24
REMARK   10  A    between atoms: N_24  and  C_25
REMARK   11  A    between atoms: N_24  and  C_26
REMARK   12  A    between atoms: C_31  and  C_32
REMARK   13  A    between atoms: C_31  and  C_33
REMARK                            x       y       z     vdW  Elec       q    Type
REMARK                         _______ _______ _______ _____ _____    ______ ____
ROOT
ATOM      1  C   UNL     1      33.334 -35.466 -31.367  0.00  0.00    +0.024 C 
ATOM      2  C   UNL     1      31.981 -35.728 -32.038  0.00  0.00    -0.034 C 
ATOM      3  C   UNL     1      31.248 -34.433 -32.392  0.00  0.00    -0.045 C 
ATOM      4  C   UNL     1      31.072 -33.464 -31.186  0.00  0.00    -0.026 C 
ATOM      5  C   UNL     1      30.121 -34.134 -30.162  0.00  0.00    -0.059 C 
ATOM      6  C   UNL     1      32.481 -33.219 -30.573  0.00  0.00    -0.034 C 
ATOM      7  C   UNL     1      32.415 -32.228 -29.412  0.00  0.00    -0.049 C 
ATOM      8  C   UNL     1      31.930 -30.871 -29.904  0.00  0.00    -0.049 C 
ATOM      9  C   UNL     1      30.602 -30.887 -30.693  0.00  0.00    -0.034 C 
ATOM     10  C   UNL     1      30.512 -32.079 -31.693  0.00  0.00    -0.032 C 
ATOM     11  C   UNL     1      29.134 -32.175 -32.380  0.00  0.00    -0.049 C 
ATOM     12  C   UNL     1      28.225 -30.983 -32.094  0.00  0.00    -0.047 C 
ATOM     13  C   UNL     1      27.980 -30.759 -30.588  0.00  0.00    -0.025 C 
ATOM     14  C   UNL     1      27.104 -31.902 -30.029  0.00  0.00    -0.059 C 
ATOM     15  C   UNL     1      27.253 -29.402 -30.260  0.00  0.00    -0.020 C 
ATOM     16  C   UNL     1      28.408 -28.440 -30.014  0.00  0.00    -0.048 C 
ATOM     17  C   UNL     1      29.339 -29.277 -29.152  0.00  0.00    -0.049 C 
ATOM     18  C   UNL     1      29.344 -30.681 -29.803  0.00  0.00    -0.032 C 
ATOM     19  C   UNL     1      33.204 -34.513 -30.173  0.00  0.00    -0.031 C 
ENDROOT
BRANCH   1  22
ATOM     20  C   UNL     1      35.309 -36.906 -31.015  0.00  0.00    +0.237 C 
ATOM     21  O   UNL     1      36.128 -36.049 -31.311  0.00  0.00    -0.271 OA
ATOM     22  N   UNL     1      33.950 -36.716 -30.946  0.00  0.00    -0.309 N 
ATOM     23  H   UNL     1      33.380 -37.442 -30.606  0.00  0.00    +0.000 HD
BRANCH  20  26
ATOM     24  C   UNL     1      36.569 -40.152 -29.305  0.00  0.00    -0.043 C 
ATOM     25  C   UNL     1      36.346 -38.676 -29.541  0.00  0.00    -0.065 C 
ATOM     26  C   UNL     1      35.690 -38.292 -30.655  0.00  0.00    -0.001 C 
BRANCH  25  27
ATOM     27  C   UNL     1      36.929 -37.784 -28.448  0.00  0.00    -0.025 C 
ATOM     28  C   UNL     1      38.336 -38.232 -28.047  0.00  0.00    -0.059 C 
ATOM     29  C   UNL     1      36.042 -37.576 -27.216  0.00  0.00    -0.059 C 
ENDBRANCH  25  27
ENDBRANCH  20  26
ENDBRANCH   1  22
BRANCH  15  30
ATOM     30  C   UNL     1      26.113 -28.908 -31.206  0.00  0.00    +0.010 C 
ATOM     31  C   UNL     1      24.749 -29.020 -30.496  0.00  0.00    -0.049 C 
BRANCH  30  32
ATOM     32  N   UNL     1      26.355 -27.588 -31.831  0.00  0.00    -0.305 N 
ATOM     33  C   UNL     1      25.309 -26.586 -31.617  0.00  0.00    -0.013 C 
ATOM     34  C   UNL     1      26.606 -27.717 -33.270  0.00  0.00    -0.013 C 
ATOM     35  H   UNL     1      27.183 -27.243 -31.347  0.00  0.00    +0.000 HD
ENDBRANCH  30  32
ENDBRANCH  15  30
TORSDOF 5
ENDMDL
MODEL 14
REMARK VINA RESULT:    -6.676     18.477     20.310
REMARK INTER + INTRA:          -9.108
REMARK INTER:                  -8.682
REMARK INTRA:                  -0.427
REMARK UNBOUND:                -0.481
REMARK  Name = cpd194.pdb
REMARK  13 active torsions:
REMARK  status: ('A' for Active; 'I' for Inactive)
REMARK    1  A    between atoms: C_1  and  C_2
REMARK    2  A    between atoms: C_2  and  C_31
REMARK    3  A    between atoms: C_3  and  C_4
REMARK    4  A    between atoms: N_6  and  C_7
REMARK    5  A    between atoms: C_10  and  C_11
REMARK    6  A    between atoms: C_19  and  C_20
REMARK    7  A    between atoms: C_21  and  C_22
REMARK    8  A    between atoms: C_22  and  C_23
REMARK    9  A    between atoms: C_22  and  N_24
REMARK   10  A    between atoms: N_24  and  C_25
REMARK   11  A    between atoms: N_24  and  C_26
REMARK   12  A    between atoms: C_31  and  C_32
REMARK   13  A    between atoms: C_31  and  C_33
REMARK                            x       y       z     vdW  Elec       q    Type
REMARK                         _______ _______ _______ _____ _____    ______ ____
ROOT
ATOM      1  C   UNL     1      46.583 -18.242 -39.550  0.00  0.00    +0.024 C 
ATOM      2  C   UNL     1      46.357 -17.880 -38.077  0.00  0.00    -0.034 C 
ATOM      3  C   UNL     1      45.549 -18.948 -37.335  0.00  0.00    -0.045 C 
ATOM      4  C   UNL     1      44.194 -19.294 -38.020  0.00  0.00    -0.026 C 
ATOM      5  C   UNL     1      43.279 -18.047 -37.940  0.00  0.00    -0.059 C 
ATOM      6  C   UNL     1      44.499 -19.678 -39.496  0.00  0.00    -0.034 C 
ATOM      7  C   UNL     1      43.228 -20.092 -40.234  0.00  0.00    -0.049 C 
ATOM      8  C   UNL     1      42.628 -21.337 -39.594  0.00  0.00    -0.049 C 
ATOM      9  C   UNL     1      42.378 -21.244 -38.072  0.00  0.00    -0.034 C 
ATOM     10  C   UNL     1      43.546 -20.548 -37.312  0.00  0.00    -0.032 C 
ATOM     11  C   UNL     1      43.237 -20.332 -35.816  0.00  0.00    -0.049 C 
ATOM     12  C   UNL     1      41.955 -21.015 -35.353  0.00  0.00    -0.047 C 
ATOM     13  C   UNL     1      40.712 -20.573 -36.154  0.00  0.00    -0.025 C 
ATOM     14  C   UNL     1      40.371 -19.105 -35.812  0.00  0.00    -0.059 C 
ATOM     15  C   UNL     1      39.431 -21.437 -35.862  0.00  0.00    -0.020 C 
ATOM     16  C   UNL     1      39.490 -22.519 -36.932  0.00  0.00    -0.048 C 
ATOM     17  C   UNL     1      39.863 -21.720 -38.170  0.00  0.00    -0.049 C 
ATOM     18  C   UNL     1      40.957 -20.731 -37.702  0.00  0.00    -0.032 C 
ATOM     19  C   UNL     1      45.270 -18.592 -40.260  0.00  0.00    -0.031 C 
ENDROOT
BRANCH   1  22
ATOM     20  C   UNL     1      46.700 -15.904 -40.337  0.00  0.00    +0.237 C 
ATOM     21  O   UNL     1      45.681 -15.542 -39.769  0.00  0.00    -0.271 OA
ATOM     22  N   UNL     1      47.257 -17.157 -40.248  0.00  0.00    -0.309 N 
ATOM     23  H   UNL     1      48.132 -17.325 -40.666  0.00  0.00    +0.000 HD
BRANCH  20  26
ATOM     24  C   UNL     1      49.204 -13.336 -41.815  0.00  0.00    -0.043 C 
ATOM     25  C   UNL     1      48.418 -14.105 -40.778  0.00  0.00    -0.065 C 
ATOM     26  C   UNL     1      47.504 -15.004 -41.197  0.00  0.00    -0.001 C 
BRANCH  25  27
ATOM     27  C   UNL     1      48.770 -13.734 -39.340  0.00  0.00    -0.025 C 
ATOM     28  C   UNL     1      47.748 -12.765 -38.743  0.00  0.00    -0.059 C 
ATOM     29  C   UNL     1      50.201 -13.239 -39.113  0.00  0.00    -0.059 C 
ENDBRANCH  25  27
ENDBRANCH  20  26
ENDBRANCH   1  22
BRANCH  15  30
ATOM     30  C   UNL     1      39.153 -21.907 -34.399  0.00  0.00    +0.010 C 
ATOM     31  C   UNL     1      37.746 -21.459 -33.956  0.00  0.00    -0.049 C 
BRANCH  30  32
ATOM     32  N   UNL     1      39.432 -23.338 -34.144  0.00  0.00    -0.305 N 
ATOM     33  C   UNL     1      38.258 -24.175 -33.887  0.00  0.00    -0.013 C 
ATOM     34  C   UNL     1      40.390 -23.508 -33.046  0.00  0.00    -0.013 C 
ATOM     35  H   UNL     1      39.827 -23.665 -35.025  0.00  0.00    +0.000 HD
ENDBRANCH  30  32
ENDBRANCH  15  30
TORSDOF 5
ENDMDL
MODEL 15
REMARK VINA RESULT:    -6.531      3.617     10.527
REMARK INTER + INTRA:          -8.921
REMARK INTER:                  -8.126
REMARK INTRA:                  -0.795
REMARK UNBOUND:                -0.481
REMARK  Name = cpd194.pdb
REMARK  13 active torsions:
REMARK  status: ('A' for Active; 'I' for Inactive)
REMARK    1  A    between atoms: C_1  and  C_2
REMARK    2  A    between atoms: C_2  and  C_31
REMARK    3  A    between atoms: C_3  and  C_4
REMARK    4  A    between atoms: N_6  and  C_7
REMARK    5  A    between atoms: C_10  and  C_11
REMARK    6  A    between atoms: C_19  and  C_20
REMARK    7  A    between atoms: C_21  and  C_22
REMARK    8  A    between atoms: C_22  and  C_23
REMARK    9  A    between atoms: C_22  and  N_24
REMARK   10  A    between atoms: N_24  and  C_25
REMARK   11  A    between atoms: N_24  and  C_26
REMARK   12  A    between atoms: C_31  and  C_32
REMARK   13  A    between atoms: C_31  and  C_33
REMARK                            x       y       z     vdW  Elec       q    Type
REMARK                         _______ _______ _______ _____ _____    ______ ____
ROOT
ATOM      1  C   UNL     1      29.086 -30.640 -30.419  0.00  0.00    +0.024 C 
ATOM      2  C   UNL     1      29.946 -30.914 -31.657  0.00  0.00    -0.034 C 
ATOM      3  C   UNL     1      30.493 -32.343 -31.680  0.00  0.00    -0.045 C 
ATOM      4  C   UNL     1      31.267 -32.737 -30.388  0.00  0.00    -0.026 C 
ATOM      5  C   UNL     1      32.552 -31.873 -30.312  0.00  0.00    -0.059 C 
ATOM      6  C   UNL     1      30.329 -32.462 -29.177  0.00  0.00    -0.034 C 
ATOM      7  C   UNL     1      30.988 -32.876 -27.862  0.00  0.00    -0.049 C 
ATOM      8  C   UNL     1      31.253 -34.375 -27.855  0.00  0.00    -0.049 C 
ATOM      9  C   UNL     1      32.049 -34.914 -29.064  0.00  0.00    -0.034 C 
ATOM     10  C   UNL     1      31.594 -34.280 -30.413  0.00  0.00    -0.032 C 
ATOM     11  C   UNL     1      32.478 -34.713 -31.601  0.00  0.00    -0.049 C 
ATOM     12  C   UNL     1      33.476 -35.813 -31.250  0.00  0.00    -0.047 C 
ATOM     13  C   UNL     1      34.414 -35.429 -30.087  0.00  0.00    -0.025 C 
ATOM     14  C   UNL     1      35.388 -34.323 -30.551  0.00  0.00    -0.059 C 
ATOM     15  C   UNL     1      35.279 -36.627 -29.550  0.00  0.00    -0.020 C 
ATOM     16  C   UNL     1      34.430 -37.189 -28.417  0.00  0.00    -0.048 C 
ATOM     17  C   UNL     1      33.973 -35.925 -27.708  0.00  0.00    -0.049 C 
ATOM     18  C   UNL     1      33.588 -34.940 -28.838  0.00  0.00    -0.032 C 
ATOM     19  C   UNL     1      29.813 -31.017 -29.123  0.00  0.00    -0.031 C 
ENDROOT
BRANCH   1  22
ATOM     20  C   UNL     1      27.532 -28.851 -29.724  0.00  0.00    +0.237 C 
ATOM     21  O   UNL     1      26.825 -29.574 -29.040  0.00  0.00    -0.271 OA
ATOM     22  N   UNL     1      28.675 -29.244 -30.376  0.00  0.00    -0.309 N 
ATOM     23  H   UNL     1      29.230 -28.566 -30.825  0.00  0.00    +0.000 HD
BRANCH  20  26
ATOM     24  C   UNL     1      27.376 -24.978 -29.561  0.00  0.00    -0.043 C 
ATOM     25  C   UNL     1      27.691 -26.397 -29.147  0.00  0.00    -0.065 C 
ATOM     26  C   UNL     1      27.253 -27.409 -29.923  0.00  0.00    -0.001 C 
BRANCH  25  27
ATOM     27  C   UNL     1      28.483 -26.496 -27.845  0.00  0.00    -0.025 C 
ATOM     28  C   UNL     1      27.558 -26.622 -26.632  0.00  0.00    -0.059 C 
ATOM     29  C   UNL     1      29.538 -25.407 -27.625  0.00  0.00    -0.059 C 
ENDBRANCH  25  27
ENDBRANCH  20  26
ENDBRANCH   1  22
BRANCH  15  30
ATOM     30  C   UNL     1      35.863 -37.656 -30.570  0.00  0.00    +0.010 C 
ATOM     31  C   UNL     1      37.403 -37.590 -30.567  0.00  0.00    -0.049 C 
BRANCH  30  32
ATOM     32  N   UNL     1      35.323 -39.028 -30.445  0.00  0.00    -0.305 N 
ATOM     33  C   UNL     1      36.199 -39.993 -29.776  0.00  0.00    -0.013 C 
ATOM     34  C   UNL     1      34.926 -39.567 -31.749  0.00  0.00    -0.013 C 
ATOM     35  H   UNL     1      34.512 -38.911 -29.837  0.00  0.00    +0.000 HD
ENDBRANCH  30  32
ENDBRANCH  15  30
TORSDOF 5
ENDMDL
MODEL 16
REMARK VINA RESULT:    -6.499     19.651     22.286
REMARK INTER + INTRA:          -8.879
REMARK INTER:                  -7.958
REMARK INTRA:                  -0.921
REMARK UNBOUND:                -0.481
REMARK  Name = cpd194.pdb
REMARK  13 active torsions:
REMARK  status: ('A' for Active; 'I' for Inactive)
REMARK    1  A    between atoms: C_1  and  C_2
REMARK    2  A    between atoms: C_2  and  C_31
REMARK    3  A    between atoms: C_3  and  C_4
REMARK    4  A    between atoms: N_6  and  C_7
REMARK    5  A    between atoms: C_10  and  C_11
REMARK    6  A    between atoms: C_19  and  C_20
REMARK    7  A    between atoms: C_21  and  C_22
REMARK    8  A    between atoms: C_22  and  C_23
REMARK    9  A    between atoms: C_22  and  N_24
REMARK   10  A    between atoms: N_24  and  C_25
REMARK   11  A    between atoms: N_24  and  C_26
REMARK   12  A    between atoms: C_31  and  C_32
REMARK   13  A    between atoms: C_31  and  C_33
REMARK                            x       y       z     vdW  Elec       q    Type
REMARK                         _______ _______ _______ _____ _____    ______ ____
ROOT
ATOM      1  C   UNL     1      43.328 -19.294 -34.658  0.00  0.00    +0.024 C 
ATOM      2  C   UNL     1      44.828 -19.548 -34.844  0.00  0.00    -0.034 C 
ATOM      3  C   UNL     1      45.537 -18.369 -35.514  0.00  0.00    -0.045 C 
ATOM      4  C   UNL     1      44.891 -17.938 -36.865  0.00  0.00    -0.026 C 
ATOM      5  C   UNL     1      45.088 -19.089 -37.883  0.00  0.00    -0.059 C 
ATOM      6  C   UNL     1      43.382 -17.670 -36.598  0.00  0.00    -0.034 C 
ATOM      7  C   UNL     1      42.675 -17.183 -37.862  0.00  0.00    -0.049 C 
ATOM      8  C   UNL     1      43.263 -15.853 -38.315  0.00  0.00    -0.049 C 
ATOM      9  C   UNL     1      44.797 -15.835 -38.499  0.00  0.00    -0.034 C 
ATOM     10  C   UNL     1      45.548 -16.591 -37.362  0.00  0.00    -0.032 C 
ATOM     11  C   UNL     1      47.066 -16.691 -37.616  0.00  0.00    -0.049 C 
ATOM     12  C   UNL     1      47.541 -15.866 -38.808  0.00  0.00    -0.047 C 
ATOM     13  C   UNL     1      46.823 -16.236 -40.123  0.00  0.00    -0.025 C 
ATOM     14  C   UNL     1      47.269 -17.644 -40.577  0.00  0.00    -0.059 C 
ATOM     15  C   UNL     1      47.116 -15.242 -41.305  0.00  0.00    -0.020 C 
ATOM     16  C   UNL     1      45.979 -14.233 -41.201  0.00  0.00    -0.048 C 
ATOM     17  C   UNL     1      44.778 -15.134 -40.962  0.00  0.00    -0.049 C 
ATOM     18  C   UNL     1      45.258 -16.192 -39.940  0.00  0.00    -0.032 C 
ATOM     19  C   UNL     1      42.655 -18.865 -35.966  0.00  0.00    -0.031 C 
ENDROOT
BRANCH   1  22
ATOM     20  C   UNL     1      41.689 -20.379 -33.161  0.00  0.00    +0.237 C 
ATOM     21  O   UNL     1      41.198 -19.337 -32.757  0.00  0.00    -0.271 OA
ATOM     22  N   UNL     1      42.670 -20.476 -34.119  0.00  0.00    -0.309 N 
ATOM     23  H   UNL     1      42.934 -21.365 -34.448  0.00  0.00    +0.000 HD
BRANCH  20  26
ATOM     24  C   UNL     1      40.033 -23.844 -32.616  0.00  0.00    -0.043 C 
ATOM     25  C   UNL     1      40.269 -22.467 -33.193  0.00  0.00    -0.065 C 
ATOM     26  C   UNL     1      41.259 -21.711 -32.677  0.00  0.00    -0.001 C 
BRANCH  25  27
ATOM     27  C   UNL     1      39.304 -22.098 -34.317  0.00  0.00    -0.025 C 
ATOM     28  C   UNL     1      37.864 -21.988 -33.811  0.00  0.00    -0.059 C 
ATOM     29  C   UNL     1      39.383 -22.972 -35.573  0.00  0.00    -0.059 C 
ENDBRANCH  25  27
ENDBRANCH  20  26
ENDBRANCH   1  22
BRANCH  15  30
ATOM     30  C   UNL     1      48.557 -14.664 -41.468  0.00  0.00    +0.010 C 
ATOM     31  C   UNL     1      49.174 -15.144 -42.797  0.00  0.00    -0.049 C 
BRANCH  30  32
ATOM     32  N   UNL     1      48.669 -13.205 -41.250  0.00  0.00    -0.305 N 
ATOM     33  C   UNL     1      49.060 -12.419 -42.423  0.00  0.00    -0.013 C 
ATOM     34  C   UNL     1      49.581 -12.898 -40.144  0.00  0.00    -0.013 C 
ATOM     35  H   UNL     1      47.715 -12.923 -41.024  0.00  0.00    +0.000 HD
ENDBRANCH  30  32
ENDBRANCH  15  30
TORSDOF 5
ENDMDL
MODEL 17
REMARK VINA RESULT:    -6.404     19.336     21.135
REMARK INTER + INTRA:          -8.756
REMARK INTER:                  -7.973
REMARK INTRA:                  -0.784
REMARK UNBOUND:                -0.481
REMARK  Name = cpd194.pdb
REMARK  13 active torsions:
REMARK  status: ('A' for Active; 'I' for Inactive)
REMARK    1  A    between atoms: C_1  and  C_2
REMARK    2  A    between atoms: C_2  and  C_31
REMARK    3  A    between atoms: C_3  and  C_4
REMARK    4  A    between atoms: N_6  and  C_7
REMARK    5  A    between atoms: C_10  and  C_11
REMARK    6  A    between atoms: C_19  and  C_20
REMARK    7  A    between atoms: C_21  and  C_22
REMARK    8  A    between atoms: C_22  and  C_23
REMARK    9  A    between atoms: C_22  and  N_24
REMARK   10  A    between atoms: N_24  and  C_25
REMARK   11  A    between atoms: N_24  and  C_26
REMARK   12  A    between atoms: C_31  and  C_32
REMARK   13  A    between atoms: C_31  and  C_33
REMARK                            x       y       z     vdW  Elec       q    Type
REMARK                         _______ _______ _______ _____ _____    ______ ____
ROOT
ATOM      1  C   UNL     1      45.906 -16.591 -40.032  0.00  0.00    +0.024 C 
ATOM      2  C   UNL     1      45.218 -16.018 -38.788  0.00  0.00    -0.034 C 
ATOM      3  C   UNL     1      44.723 -17.114 -37.842  0.00  0.00    -0.045 C 
ATOM      4  C   UNL     1      43.804 -18.166 -38.530  0.00  0.00    -0.026 C 
ATOM      5  C   UNL     1      42.494 -17.457 -38.958  0.00  0.00    -0.059 C 
ATOM      6  C   UNL     1      44.572 -18.725 -39.762  0.00  0.00    -0.034 C 
ATOM      7  C   UNL     1      43.765 -19.812 -40.470  0.00  0.00    -0.049 C 
ATOM      8  C   UNL     1      43.547 -20.997 -39.539  0.00  0.00    -0.049 C 
ATOM      9  C   UNL     1      42.927 -20.656 -38.166  0.00  0.00    -0.034 C 
ATOM     10  C   UNL     1      43.530 -19.363 -37.539  0.00  0.00    -0.032 C 
ATOM     11  C   UNL     1      42.817 -18.946 -36.236  0.00  0.00    -0.049 C 
ATOM     12  C   UNL     1      41.818 -19.981 -35.729  0.00  0.00    -0.047 C 
ATOM     13  C   UNL     1      40.729 -20.327 -36.765  0.00  0.00    -0.025 C 
ATOM     14  C   UNL     1      39.788 -19.115 -36.952  0.00  0.00    -0.059 C 
ATOM     15  C   UNL     1      39.839 -21.560 -36.362  0.00  0.00    -0.020 C 
ATOM     16  C   UNL     1      40.555 -22.734 -37.017  0.00  0.00    -0.048 C 
ATOM     17  C   UNL     1      40.880 -22.178 -38.394  0.00  0.00    -0.049 C 
ATOM     18  C   UNL     1      41.374 -20.733 -38.144  0.00  0.00    -0.032 C 
ATOM     19  C   UNL     1      45.032 -17.634 -40.739  0.00  0.00    -0.031 C 
ENDROOT
BRANCH   1  22
ATOM     20  C   UNL     1      47.456 -14.851 -40.850  0.00  0.00    +0.237 C 
ATOM     21  O   UNL     1      48.359 -15.131 -40.076  0.00  0.00    -0.271 OA
ATOM     22  N   UNL     1      46.265 -15.527 -40.958  0.00  0.00    -0.309 N 
ATOM     23  H   UNL     1      45.638 -15.284 -41.678  0.00  0.00    +0.000 HD
BRANCH  20  26
ATOM     24  C   UNL     1      48.232 -12.483 -43.823  0.00  0.00    -0.043 C 
ATOM     25  C   UNL     1      48.346 -13.675 -42.901  0.00  0.00    -0.065 C 
ATOM     26  C   UNL     1      47.545 -13.732 -41.817  0.00  0.00    -0.001 C 
BRANCH  25  27
ATOM     27  C   UNL     1      49.407 -14.686 -43.330  0.00  0.00    -0.025 C 
ATOM     28  C   UNL     1      50.767 -14.376 -42.701  0.00  0.00    -0.059 C 
ATOM     29  C   UNL     1      49.534 -14.913 -44.840  0.00  0.00    -0.059 C 
ENDBRANCH  25  27
ENDBRANCH  20  26
ENDBRANCH   1  22
BRANCH  15  30
ATOM     30  C   UNL     1      39.422 -21.734 -34.867  0.00  0.00    +0.010 C 
ATOM     31  C   UNL     1      37.979 -21.231 -34.658  0.00  0.00    -0.049 C 
BRANCH  30  32
ATOM     32  N   UNL     1      39.673 -23.080 -34.306  0.00  0.00    -0.305 N 
ATOM     33  C   UNL     1      38.479 -23.874 -34.008  0.00  0.00    -0.013 C 
ATOM     34  C   UNL     1      40.512 -23.010 -33.105  0.00  0.00    -0.013 C 
ATOM     35  H   UNL     1      40.157 -23.567 -35.060  0.00  0.00    +0.000 HD
ENDBRANCH  30  32
ENDBRANCH  15  30
TORSDOF 5
ENDMDL
MODEL 18
REMARK VINA RESULT:    -6.331     19.563     21.605
REMARK INTER + INTRA:          -8.663
REMARK INTER:                  -8.074
REMARK INTRA:                  -0.588
REMARK UNBOUND:                -0.481
REMARK  Name = cpd194.pdb
REMARK  13 active torsions:
REMARK  status: ('A' for Active; 'I' for Inactive)
REMARK    1  A    between atoms: C_1  and  C_2
REMARK    2  A    between atoms: C_2  and  C_31
REMARK    3  A    between atoms: C_3  and  C_4
REMARK    4  A    between atoms: N_6  and  C_7
REMARK    5  A    between atoms: C_10  and  C_11
REMARK    6  A    between atoms: C_19  and  C_20
REMARK    7  A    between atoms: C_21  and  C_22
REMARK    8  A    between atoms: C_22  and  C_23
REMARK    9  A    between atoms: C_22  and  N_24
REMARK   10  A    between atoms: N_24  and  C_25
REMARK   11  A    between atoms: N_24  and  C_26
REMARK   12  A    between atoms: C_31  and  C_32
REMARK   13  A    between atoms: C_31  and  C_33
REMARK                            x       y       z     vdW  Elec       q    Type
REMARK                         _______ _______ _______ _____ _____    ______ ____
ROOT
ATOM      1  C   UNL     1      47.023 -16.374 -39.161  0.00  0.00    +0.024 C 
ATOM      2  C   UNL     1      46.977 -16.187 -37.640  0.00  0.00    -0.034 C 
ATOM      3  C   UNL     1      46.481 -17.441 -36.916  0.00  0.00    -0.045 C 
ATOM      4  C   UNL     1      45.109 -17.962 -37.438  0.00  0.00    -0.026 C 
ATOM      5  C   UNL     1      44.028 -16.908 -37.090  0.00  0.00    -0.059 C 
ATOM      6  C   UNL     1      45.235 -18.156 -38.976  0.00  0.00    -0.034 C 
ATOM      7  C   UNL     1      43.948 -18.724 -39.570  0.00  0.00    -0.049 C 
ATOM      8  C   UNL     1      43.666 -20.105 -38.995  0.00  0.00    -0.049 C 
ATOM      9  C   UNL     1      43.647 -20.191 -37.452  0.00  0.00    -0.034 C 
ATOM     10  C   UNL     1      44.793 -19.367 -36.791  0.00  0.00    -0.032 C 
ATOM     11  C   UNL     1      44.693 -19.339 -35.252  0.00  0.00    -0.049 C 
ATOM     12  C   UNL     1      43.627 -20.276 -34.693  0.00  0.00    -0.047 C 
ATOM     13  C   UNL     1      42.219 -19.994 -35.256  0.00  0.00    -0.025 C 
ATOM     14  C   UNL     1      41.702 -18.645 -34.708  0.00  0.00    -0.059 C 
ATOM     15  C   UNL     1      41.157 -21.093 -34.886  0.00  0.00    -0.020 C 
ATOM     16  C   UNL     1      41.221 -22.051 -36.068  0.00  0.00    -0.048 C 
ATOM     17  C   UNL     1      41.259 -21.095 -37.249  0.00  0.00    -0.049 C 
ATOM     18  C   UNL     1      42.239 -19.971 -36.832  0.00  0.00    -0.032 C 
ATOM     19  C   UNL     1      45.690 -16.889 -39.714  0.00  0.00    -0.031 C 
ENDROOT
BRANCH   1  22
ATOM     20  C   UNL     1      47.962 -15.122 -41.071  0.00  0.00    +0.237 C 
ATOM     21  O   UNL     1      48.107 -16.100 -41.788  0.00  0.00    -0.271 OA
ATOM     22  N   UNL     1      47.394 -15.131 -39.820  0.00  0.00    -0.309 N 
ATOM     23  H   UNL     1      47.234 -14.276 -39.359  0.00  0.00    +0.000 HD
BRANCH  20  26
ATOM     24  C   UNL     1      48.162 -11.477 -42.382  0.00  0.00    -0.043 C 
ATOM     25  C   UNL     1      47.598 -12.855 -42.124  0.00  0.00    -0.065 C 
ATOM     26  C   UNL     1      48.368 -13.757 -41.482  0.00  0.00    -0.001 C 
BRANCH  25  27
ATOM     27  C   UNL     1      46.183 -13.051 -42.661  0.00  0.00    -0.025 C 
ATOM     28  C   UNL     1      46.027 -12.464 -44.066  0.00  0.00    -0.059 C 
ATOM     29  C   UNL     1      45.052 -12.586 -41.738  0.00  0.00    -0.059 C 
ENDBRANCH  25  27
ENDBRANCH  20  26
ENDBRANCH   1  22
BRANCH  15  30
ATOM     30  C   UNL     1      41.193 -21.730 -33.461  0.00  0.00    +0.010 C 
ATOM     31  C   UNL     1      40.318 -20.911 -32.491  0.00  0.00    -0.049 C 
BRANCH  30  32
ATOM     32  N   UNL     1      40.924 -23.185 -33.424  0.00  0.00    -0.305 N 
ATOM     33  C   UNL     1      39.511 -23.568 -33.466  0.00  0.00    -0.013 C 
ATOM     34  C   UNL     1      41.557 -23.816 -32.261  0.00  0.00    -0.013 C 
ATOM     35  H   UNL     1      41.337 -23.526 -34.292  0.00  0.00    +0.000 HD
ENDBRANCH  30  32
ENDBRANCH  15  30
TORSDOF 5
ENDMDL
MODEL 19
REMARK VINA RESULT:    -6.241     15.952     17.496
REMARK INTER + INTRA:          -8.546
REMARK INTER:                  -7.790
REMARK INTRA:                  -0.757
REMARK UNBOUND:                -0.481
REMARK  Name = cpd194.pdb
REMARK  13 active torsions:
REMARK  status: ('A' for Active; 'I' for Inactive)
REMARK    1  A    between atoms: C_1  and  C_2
REMARK    2  A    between atoms: C_2  and  C_31
REMARK    3  A    between atoms: C_3  and  C_4
REMARK    4  A    between atoms: N_6  and  C_7
REMARK    5  A    between atoms: C_10  and  C_11
REMARK    6  A    between atoms: C_19  and  C_20
REMARK    7  A    between atoms: C_21  and  C_22
REMARK    8  A    between atoms: C_22  and  C_23
REMARK    9  A    between atoms: C_22  and  N_24
REMARK   10  A    between atoms: N_24  and  C_25
REMARK   11  A    between atoms: N_24  and  C_26
REMARK   12  A    between atoms: C_31  and  C_32
REMARK   13  A    between atoms: C_31  and  C_33
REMARK                            x       y       z     vdW  Elec       q    Type
REMARK                         _______ _______ _______ _____ _____    ______ ____
ROOT
ATOM      1  C   UNL     1      43.834 -19.805 -37.161  0.00  0.00    +0.024 C 
ATOM      2  C   UNL     1      42.979 -18.694 -37.781  0.00  0.00    -0.034 C 
ATOM      3  C   UNL     1      41.924 -18.162 -36.809  0.00  0.00    -0.045 C 
ATOM      4  C   UNL     1      41.012 -19.273 -36.208  0.00  0.00    -0.026 C 
ATOM      5  C   UNL     1      40.159 -19.871 -37.355  0.00  0.00    -0.059 C 
ATOM      6  C   UNL     1      41.939 -20.348 -35.573  0.00  0.00    -0.034 C 
ATOM      7  C   UNL     1      41.126 -21.454 -34.903  0.00  0.00    -0.049 C 
ATOM      8  C   UNL     1      40.301 -20.883 -33.758  0.00  0.00    -0.049 C 
ATOM      9  C   UNL     1      39.402 -19.680 -34.124  0.00  0.00    -0.034 C 
ATOM     10  C   UNL     1      40.114 -18.661 -35.063  0.00  0.00    -0.032 C 
ATOM     11  C   UNL     1      39.174 -17.534 -35.539  0.00  0.00    -0.049 C 
ATOM     12  C   UNL     1      37.817 -17.536 -34.842  0.00  0.00    -0.047 C 
ATOM     13  C   UNL     1      37.060 -18.871 -34.998  0.00  0.00    -0.025 C 
ATOM     14  C   UNL     1      36.607 -19.041 -36.466  0.00  0.00    -0.059 C 
ATOM     15  C   UNL     1      35.780 -18.983 -34.091  0.00  0.00    -0.020 C 
ATOM     16  C   UNL     1      36.305 -19.657 -32.830  0.00  0.00    -0.048 C 
ATOM     17  C   UNL     1      37.190 -20.752 -33.402  0.00  0.00    -0.049 C 
ATOM     18  C   UNL     1      37.966 -20.085 -34.563  0.00  0.00    -0.032 C 
ATOM     19  C   UNL     1      42.972 -20.919 -36.555  0.00  0.00    -0.031 C 
ENDROOT
BRANCH   1  22
ATOM     20  C   UNL     1      46.060 -19.952 -38.219  0.00  0.00    +0.237 C 
ATOM     21  O   UNL     1      46.611 -19.200 -37.430  0.00  0.00    -0.271 OA
ATOM     22  N   UNL     1      44.750 -20.360 -38.146  0.00  0.00    -0.309 N 
ATOM     23  H   UNL     1      44.424 -21.043 -38.776  0.00  0.00    +0.000 HD
BRANCH  20  26
ATOM     24  C   UNL     1      47.267 -21.112 -41.719  0.00  0.00    -0.043 C 
ATOM     25  C   UNL     1      46.370 -20.506 -40.664  0.00  0.00    -0.065 C 
ATOM     26  C   UNL     1      46.762 -20.558 -39.375  0.00  0.00    -0.001 C 
BRANCH  25  27
ATOM     27  C   UNL     1      45.083 -19.906 -41.223  0.00  0.00    -0.025 C 
ATOM     28  C   UNL     1      44.698 -20.544 -42.560  0.00  0.00    -0.059 C 
ATOM     29  C   UNL     1      45.045 -18.377 -41.309  0.00  0.00    -0.059 C 
ENDBRANCH  25  27
ENDBRANCH  20  26
ENDBRANCH   1  22
BRANCH  15  30
ATOM     30  C   UNL     1      34.881 -17.722 -33.893  0.00  0.00    +0.010 C 
ATOM     31  C   UNL     1      33.478 -17.973 -34.481  0.00  0.00    -0.049 C 
BRANCH  30  32
ATOM     32  N   UNL     1      34.864 -17.182 -32.516  0.00  0.00    -0.305 N 
ATOM     33  C   UNL     1      33.553 -17.154 -31.864  0.00  0.00    -0.013 C 
ATOM     34  C   UNL     1      35.454 -15.841 -32.460  0.00  0.00    -0.013 C 
ATOM     35  H   UNL     1      35.428 -17.849 -31.990  0.00  0.00    +0.000 HD
ENDBRANCH  30  32
ENDBRANCH  15  30
TORSDOF 5
ENDMDL
MODEL 20
REMARK VINA RESULT:    -6.152     20.485     22.341
REMARK INTER + INTRA:          -8.431
REMARK INTER:                  -7.563
REMARK INTRA:                  -0.867
REMARK UNBOUND:                -0.481
REMARK  Name = cpd194.pdb
REMARK  13 active torsions:
REMARK  status: ('A' for Active; 'I' for Inactive)
REMARK    1  A    between atoms: C_1  and  C_2
REMARK    2  A    between atoms: C_2  and  C_31
REMARK    3  A    between atoms: C_3  and  C_4
REMARK    4  A    between atoms: N_6  and  C_7
REMARK    5  A    between atoms: C_10  and  C_11
REMARK    6  A    between atoms: C_19  and  C_20
REMARK    7  A    between atoms: C_21  and  C_22
REMARK    8  A    between atoms: C_22  and  C_23
REMARK    9  A    between atoms: C_22  and  N_24
REMARK   10  A    between atoms: N_24  and  C_25
REMARK   11  A    between atoms: N_24  and  C_26
REMARK   12  A    between atoms: C_31  and  C_32
REMARK   13  A    between atoms: C_31  and  C_33
REMARK                            x       y       z     vdW  Elec       q    Type
REMARK                         _______ _______ _______ _____ _____    ______ ____
ROOT
ATOM      1  C   UNL     1      46.749 -15.781 -40.246  0.00  0.00    +0.024 C 
ATOM      2  C   UNL     1      45.399 -16.302 -40.754  0.00  0.00    -0.034 C 
ATOM      3  C   UNL     1      44.412 -16.565 -39.614  0.00  0.00    -0.045 C 
ATOM      4  C   UNL     1      44.972 -17.508 -38.508  0.00  0.00    -0.026 C 
ATOM      5  C   UNL     1      45.173 -18.914 -39.128  0.00  0.00    -0.059 C 
ATOM      6  C   UNL     1      46.321 -16.907 -38.020  0.00  0.00    -0.034 C 
ATOM      7  C   UNL     1      46.919 -17.739 -36.886  0.00  0.00    -0.049 C 
ATOM      8  C   UNL     1      45.993 -17.726 -35.678  0.00  0.00    -0.049 C 
ATOM      9  C   UNL     1      44.532 -18.143 -35.958  0.00  0.00    -0.034 C 
ATOM     10  C   UNL     1      43.978 -17.539 -37.283  0.00  0.00    -0.032 C 
ATOM     11  C   UNL     1      42.570 -18.065 -37.633  0.00  0.00    -0.049 C 
ATOM     12  C   UNL     1      41.937 -18.899 -36.523  0.00  0.00    -0.047 C 
ATOM     13  C   UNL     1      42.798 -20.111 -36.114  0.00  0.00    -0.025 C 
ATOM     14  C   UNL     1      42.807 -21.151 -37.257  0.00  0.00    -0.059 C 
ATOM     15  C   UNL     1      42.289 -20.839 -34.816  0.00  0.00    -0.020 C 
ATOM     16  C   UNL     1      43.074 -20.158 -33.703  0.00  0.00    -0.048 C 
ATOM     17  C   UNL     1      44.472 -20.092 -34.297  0.00  0.00    -0.049 C 
ATOM     18  C   UNL     1      44.270 -19.665 -35.770  0.00  0.00    -0.032 C 
ATOM     19  C   UNL     1      47.333 -16.682 -39.153  0.00  0.00    -0.031 C 
ENDROOT
BRANCH   1  22
ATOM     20  C   UNL     1      48.391 -14.482 -41.555  0.00  0.00    +0.237 C 
ATOM     21  O   UNL     1      48.385 -13.512 -40.812  0.00  0.00    -0.271 OA
ATOM     22  N   UNL     1      47.694 -15.647 -41.344  0.00  0.00    -0.309 N 
ATOM     23  H   UNL     1      47.837 -16.409 -41.951  0.00  0.00    +0.000 HD
BRANCH  20  26
ATOM     24  C   UNL     1      49.958 -13.951 -45.063  0.00  0.00    -0.043 C 
ATOM     25  C   UNL     1      48.975 -13.823 -43.922  0.00  0.00    -0.065 C 
ATOM     26  C   UNL     1      49.194 -14.537 -42.799  0.00  0.00    -0.001 C 
BRANCH  25  27
ATOM     27  C   UNL     1      47.813 -12.878 -44.215  0.00  0.00    -0.025 C 
ATOM     28  C   UNL     1      47.436 -12.890 -45.698  0.00  0.00    -0.059 C 
ATOM     29  C   UNL     1      47.976 -11.445 -43.697  0.00  0.00    -0.059 C 
ENDBRANCH  25  27
ENDBRANCH  20  26
ENDBRANCH   1  22
BRANCH  15  30
ATOM     30  C   UNL     1      40.752 -21.003 -34.595  0.00  0.00    +0.010 C 
ATOM     31  C   UNL     1      40.341 -22.476 -34.796  0.00  0.00    -0.049 C 
BRANCH  30  32
ATOM     32  N   UNL     1      40.238 -20.406 -33.342  0.00  0.00    -0.305 N 
ATOM     33  C   UNL     1      39.450 -21.300 -32.492  0.00  0.00    -0.013 C 
ATOM     34  C   UNL     1      39.459 -19.192 -33.609  0.00  0.00    -0.013 C 
ATOM     35  H   UNL     1      41.084 -20.187 -32.817  0.00  0.00    +0.000 HD
ENDBRANCH  30  32
ENDBRANCH  15  30
TORSDOF 5
ENDMDL
