REMARK  Name = cpd194.pdb
REMARK  13 active torsions:
REMARK  status: ('A' for Active; 'I' for Inactive)
REMARK    1  A    between atoms: C_1  and  C_2
REMARK    2  A    between atoms: C_2  and  C_31
REMARK    3  A    between atoms: C_3  and  C_4
REMARK    4  A    between atoms: N_6  and  C_7
REMARK    5  A    between atoms: C_10  and  C_11
REMARK    6  A    between atoms: C_19  and  C_20
REMARK    7  A    between atoms: C_21  and  C_22
REMARK    8  A    between atoms: C_22  and  C_23
REMARK    9  A    between atoms: C_22  and  N_24
REMARK   10  A    between atoms: N_24  and  C_25
REMARK   11  A    between atoms: N_24  and  C_26
REMARK   12  A    between atoms: C_31  and  C_32
REMARK   13  A    between atoms: C_31  and  C_33
REMARK                            x       y       z     vdW  Elec       q    Type
REMARK                         _______ _______ _______ _____ _____    ______ ____
ROOT
ATOM      1  C   UNL     1      -1.883  -0.541   0.664  0.00  0.00    +0.024 C 
ATOM      2  C   UNL     1      -1.862  -1.952   0.065  0.00  0.00    -0.034 C 
ATOM      3  C   UNL     1      -0.609  -2.734   0.466  0.00  0.00    -0.045 C 
ATOM      4  C   UNL     1       0.721  -1.991   0.143  0.00  0.00    -0.026 C 
ATOM      5  C   UNL     1       0.854  -1.885  -1.397  0.00  0.00    -0.059 C 
ATOM      6  C   UNL     1       0.644  -0.584   0.802  0.00  0.00    -0.034 C 
ATOM      7  C   UNL     1       1.937   0.200   0.586  0.00  0.00    -0.049 C 
ATOM      8  C   UNL     1       3.104  -0.513   1.256  0.00  0.00    -0.049 C 
ATOM      9  C   UNL     1       3.286  -1.997   0.867  0.00  0.00    -0.034 C 
ATOM     10  C   UNL     1       1.934  -2.768   0.788  0.00  0.00    -0.032 C 
ATOM     11  C   UNL     1       2.102  -4.210   0.267  0.00  0.00    -0.049 C 
ATOM     12  C   UNL     1       3.558  -4.644   0.130  0.00  0.00    -0.047 C 
ATOM     13  C   UNL     1       4.380  -3.718  -0.790  0.00  0.00    -0.025 C 
ATOM     14  C   UNL     1       3.911  -3.891  -2.252  0.00  0.00    -0.059 C 
ATOM     15  C   UNL     1       5.927  -3.999  -0.752  0.00  0.00    -0.020 C 
ATOM     16  C   UNL     1       6.428  -3.045   0.324  0.00  0.00    -0.048 C 
ATOM     17  C   UNL     1       5.680  -1.766  -0.014  0.00  0.00    -0.049 C 
ATOM     18  C   UNL     1       4.236  -2.213  -0.345  0.00  0.00    -0.032 C 
ATOM     19  C   UNL     1      -0.588   0.224   0.369  0.00  0.00    -0.031 C 
ENDROOT
BRANCH   1  22
ATOM     20  C   UNL     1      -4.270   0.086   0.755  0.00  0.00    +0.237 C 
ATOM     21  O   UNL     1      -4.514  -0.544   1.772  0.00  0.00    -0.271 OA
ATOM     22  N   UNL     1      -3.031   0.208   0.174  0.00  0.00    -0.309 N 
ATOM     23  H   UNL     1      -2.917   0.816  -0.592  0.00  0.00    +0.000 HD
BRANCH  20  26
ATOM     24  C   UNL     1      -7.461   1.322  -1.072  0.00  0.00    -0.043 C 
ATOM     25  C   UNL     1      -6.498   0.370  -0.401  0.00  0.00    -0.065 C 
ATOM     26  C   UNL     1      -5.304   0.843   0.011  0.00  0.00    -0.001 C 
BRANCH  25  27
ATOM     27  C   UNL     1      -7.023  -1.059  -0.290  0.00  0.00    -0.025 C 
ATOM     28  C   UNL     1      -7.713  -1.303   1.054  0.00  0.00    -0.059 C 
ATOM     29  C   UNL     1      -6.009  -2.165  -0.600  0.00  0.00    -0.059 C 
ENDBRANCH  25  27
ENDBRANCH  20  26
ENDBRANCH   1  22
BRANCH  15  30
ATOM     30  C   UNL     1       6.425  -5.477  -0.671  0.00  0.00    +0.010 C 
ATOM     31  C   UNL     1       7.881  -5.574  -1.168  0.00  0.00    -0.049 C 
BRANCH  30  32
ATOM     32  N   UNL     1       6.193  -6.139   0.632  0.00  0.00    -0.305 N 
ATOM     33  C   UNL     1       7.284  -6.025   1.602  0.00  0.00    -0.013 C 
ATOM     34  C   UNL     1       5.853  -7.555   0.459  0.00  0.00    -0.013 C 
ATOM     35  H   UNL     1       5.407  -5.622   1.026  0.00  0.00    +0.000 HD
ENDBRANCH  30  32
ENDBRANCH  15  30
TORSDOF 5
