MODEL 1
REMARK VINA RESULT:    -6.051      0.000      0.000
REMARK INTER + INTRA:         -12.491
REMARK INTER:                 -10.118
REMARK INTRA:                  -2.373
REMARK UNBOUND:                -2.373
REMARK  Name = cpd294.pdb
REMARK  16 active torsions:
REMARK  status: ('A' for Active; 'I' for Inactive)
REMARK    1  A    between atoms: C_1  and  C_2
REMARK    2  A    between atoms: C_2  and  C_3
REMARK    3  A    between atoms: C_2  and  C_20
REMARK    4  A    between atoms: C_3  and  C_4
REMARK    5  A    between atoms: C_4  and  C_5
REMARK    6  A    between atoms: C_6  and  C_7
REMARK    7  A    between atoms: C_7  and  O_8
REMARK    8  A    between atoms: C_12  and  C_13
REMARK    9  A    between atoms: C_12  and  C_14
REMARK   10  A    between atoms: C_18  and  C_19
REMARK   11  A    between atoms: C_20  and  C_21
REMARK   12  A    between atoms: C_21  and  O_23
REMARK   13  A    between atoms: O_23  and  C_24
REMARK   14  A    between atoms: C_24  and  C_25
REMARK   15  A    between atoms: C_25  and  C_26
REMARK   16  A    between atoms: C_26  and  N_27
REMARK                            x       y       z     vdW  Elec       q    Type
REMARK                         _______ _______ _______ _____ _____    ______ ____
ROOT
ATOM      1  C   UNL     1      36.082 -34.564 -31.523  0.00  0.00    -0.046 C 
ENDROOT
BRANCH   1   2
ATOM      2  C   UNL     1      36.685 -35.850 -30.774  0.00  0.00    -0.012 C 
ATOM      3  C   UNL     1      38.132 -36.074 -31.274  0.00  0.00    -0.045 C 
ATOM      4  C   UNL     1      38.767 -37.034 -30.597  0.00  0.00    -0.082 C 
ATOM      5  C   UNL     1      37.910 -37.848 -29.699  0.00  0.00    -0.031 C 
ATOM      6  C   UNL     1      36.443 -38.027 -30.324  0.00  0.00    -0.027 C 
ATOM      7  C   UNL     1      35.959 -39.632 -29.910  0.00  0.00    -0.031 C 
ATOM      8  C   UNL     1      36.064 -40.544 -31.158  0.00  0.00    -0.060 C 
ATOM      9  C   UNL     1      36.782 -40.308 -28.780  0.00  0.00    -0.060 C 
ATOM     10  C   UNL     1      34.481 -39.655 -29.446  0.00  0.00    -0.048 C 
ATOM     11  C   UNL     1      34.262 -38.532 -28.458  0.00  0.00    -0.052 C 
ATOM     12  C   UNL     1      35.157 -37.348 -28.844  0.00  0.00    -0.047 C 
ATOM     13  C   UNL     1      35.670 -37.445 -30.575  0.00  0.00    -0.022 C 
ATOM     14  C   UNL     1      34.897 -36.862 -30.826  0.00  0.00    -0.059 C 
BRANCH   3  15
ATOM     15  C   UNL     1      38.756 -35.277 -32.388  0.00  0.00    +0.066 C 
BRANCH  15  16
ATOM     16  O   UNL     1      40.062 -35.739 -32.708  0.00  0.00    -0.391 OA
ATOM     17  H   UNL     1      40.239 -36.565 -32.231  0.00  0.00    +0.000 HD
ENDBRANCH  15  16
ENDBRANCH   3  15
ENDBRANCH   1   2
BRANCH   1  18
ATOM     18  C   UNL     1      36.028 -33.226 -30.746  0.00  0.00    -0.049 C 
BRANCH  18  20
ATOM     19  C   UNL     1      34.116 -33.750 -29.172  0.00  0.00    -0.062 C 
ATOM     20  C   UNL     1      34.591 -32.848 -30.317  0.00  0.00    -0.034 C 
BRANCH  20  21
ATOM     21  C   UNL     1      33.605 -32.943 -31.491  0.00  0.00    +0.048 C 
BRANCH  21  22
ATOM     22  C   UNL     1      32.337 -32.166 -31.227  0.00  0.00    +0.307 C 
ATOM     23  O   UNL     1      32.317 -31.010 -30.828  0.00  0.00    -0.251 OA
BRANCH  22  24
ATOM     24  O   UNL     1      31.241 -32.934 -31.486  0.00  0.00    -0.465 OA
BRANCH  24  25
ATOM     25  C   UNL     1      30.635 -33.563 -30.343  0.00  0.00    +0.094 C 
BRANCH  25  26
ATOM     26  C   UNL     1      30.143 -34.960 -30.701  0.00  0.00    -0.006 C 
BRANCH  26  27
ATOM     27  C   UNL     1      31.248 -35.808 -31.348  0.00  0.00    +0.002 C 
BRANCH  27  28
ATOM     28  N   UNL     1      31.106 -35.851 -32.805  0.00  0.00    -0.302 N 
ATOM     29  C   UNL     1      32.277 -36.451 -33.458  0.00  0.00    -0.001 C 
ATOM     30  C   UNL     1      31.768 -36.845 -34.838  0.00  0.00    -0.039 C 
ATOM     31  C   UNL     1      30.249 -36.863 -34.715  0.00  0.00    -0.039 C 
ATOM     32  C   UNL     1      29.976 -36.680 -33.232  0.00  0.00    -0.001 C 
ATOM     33  H   UNL     1      30.978 -34.875 -33.072  0.00  0.00    +0.000 HD
ENDBRANCH  27  28
ENDBRANCH  26  27
ENDBRANCH  25  26
ENDBRANCH  24  25
ENDBRANCH  22  24
ENDBRANCH  21  22
ENDBRANCH  20  21
ENDBRANCH  18  20
ENDBRANCH   1  18
TORSDOF 12
ENDMDL
MODEL 2
REMARK VINA RESULT:    -6.043     15.982     19.183
REMARK INTER + INTRA:         -12.478
REMARK INTER:                 -10.474
REMARK INTRA:                  -2.004
REMARK UNBOUND:                -2.373
REMARK  Name = cpd294.pdb
REMARK  16 active torsions:
REMARK  status: ('A' for Active; 'I' for Inactive)
REMARK    1  A    between atoms: C_1  and  C_2
REMARK    2  A    between atoms: C_2  and  C_3
REMARK    3  A    between atoms: C_2  and  C_20
REMARK    4  A    between atoms: C_3  and  C_4
REMARK    5  A    between atoms: C_4  and  C_5
REMARK    6  A    between atoms: C_6  and  C_7
REMARK    7  A    between atoms: C_7  and  O_8
REMARK    8  A    between atoms: C_12  and  C_13
REMARK    9  A    between atoms: C_12  and  C_14
REMARK   10  A    between atoms: C_18  and  C_19
REMARK   11  A    between atoms: C_20  and  C_21
REMARK   12  A    between atoms: C_21  and  O_23
REMARK   13  A    between atoms: O_23  and  C_24
REMARK   14  A    between atoms: C_24  and  C_25
REMARK   15  A    between atoms: C_25  and  C_26
REMARK   16  A    between atoms: C_26  and  N_27
REMARK                            x       y       z     vdW  Elec       q    Type
REMARK                         _______ _______ _______ _____ _____    ______ ____
ROOT
ATOM      1  C   UNL     1      39.374 -19.883 -38.552  0.00  0.00    -0.046 C 
ENDROOT
BRANCH   1   2
ATOM      2  C   UNL     1      39.962 -20.724 -37.317  0.00  0.00    -0.012 C 
ATOM      3  C   UNL     1      40.544 -22.050 -37.861  0.00  0.00    -0.045 C 
ATOM      4  C   UNL     1      41.190 -22.750 -36.926  0.00  0.00    -0.082 C 
ATOM      5  C   UNL     1      41.012 -22.263 -35.534  0.00  0.00    -0.031 C 
ATOM      6  C   UNL     1      39.539 -21.659 -35.330  0.00  0.00    -0.027 C 
ATOM      7  C   UNL     1      39.077 -22.105 -33.728  0.00  0.00    -0.031 C 
ATOM      8  C   UNL     1      38.054 -23.268 -33.788  0.00  0.00    -0.060 C 
ATOM      9  C   UNL     1      40.235 -22.565 -32.801  0.00  0.00    -0.060 C 
ATOM     10  C   UNL     1      38.385 -20.922 -33.007  0.00  0.00    -0.048 C 
ATOM     11  C   UNL     1      39.207 -19.672 -33.225  0.00  0.00    -0.052 C 
ATOM     12  C   UNL     1      39.858 -19.738 -34.611  0.00  0.00    -0.047 C 
ATOM     13  C   UNL     1      38.994 -20.902 -35.691  0.00  0.00    -0.022 C 
ATOM     14  C   UNL     1      38.448 -20.146 -36.052  0.00  0.00    -0.059 C 
BRANCH   3  15
ATOM     15  C   UNL     1      40.412 -22.485 -39.296  0.00  0.00    +0.066 C 
BRANCH  15  16
ATOM     16  O   UNL     1      40.302 -23.898 -39.418  0.00  0.00    -0.391 OA
ATOM     17  H   UNL     1      39.658 -24.229 -38.772  0.00  0.00    +0.000 HD
ENDBRANCH  15  16
ENDBRANCH   3  15
ENDBRANCH   1   2
BRANCH   1  18
ATOM     18  C   UNL     1      40.114 -18.589 -38.971  0.00  0.00    -0.049 C 
BRANCH  18  20
ATOM     19  C   UNL     1      41.267 -17.029 -37.345  0.00  0.00    -0.062 C 
ATOM     20  C   UNL     1      41.390 -18.338 -38.132  0.00  0.00    -0.034 C 
BRANCH  20  21
ATOM     21  C   UNL     1      42.648 -18.294 -39.013  0.00  0.00    +0.048 C 
BRANCH  21  22
ATOM     22  C   UNL     1      43.435 -19.581 -38.936  0.00  0.00    +0.307 C 
ATOM     23  O   UNL     1      44.276 -19.815 -38.080  0.00  0.00    -0.251 OA
BRANCH  22  24
ATOM     24  O   UNL     1      43.079 -20.422 -39.949  0.00  0.00    -0.465 OA
BRANCH  24  25
ATOM     25  C   UNL     1      44.117 -21.296 -40.428  0.00  0.00    +0.094 C 
BRANCH  25  26
ATOM     26  C   UNL     1      44.882 -20.641 -41.570  0.00  0.00    -0.006 C 
BRANCH  26  27
ATOM     27  C   UNL     1      45.260 -21.653 -42.662  0.00  0.00    +0.002 C 
BRANCH  27  28
ATOM     28  N   UNL     1      46.669 -22.042 -42.568  0.00  0.00    -0.302 N 
ATOM     29  C   UNL     1      47.440 -21.124 -41.718  0.00  0.00    -0.001 C 
ATOM     30  C   UNL     1      48.688 -21.919 -41.355  0.00  0.00    -0.039 C 
ATOM     31  C   UNL     1      48.332 -23.374 -41.637  0.00  0.00    -0.039 C 
ATOM     32  C   UNL     1      46.846 -23.357 -41.950  0.00  0.00    -0.001 C 
ATOM     33  H   UNL     1      46.996 -22.033 -43.534  0.00  0.00    +0.000 HD
ENDBRANCH  27  28
ENDBRANCH  26  27
ENDBRANCH  25  26
ENDBRANCH  24  25
ENDBRANCH  22  24
ENDBRANCH  21  22
ENDBRANCH  20  21
ENDBRANCH  18  20
ENDBRANCH   1  18
TORSDOF 12
ENDMDL
MODEL 3
REMARK VINA RESULT:    -6.039      3.496      5.330
REMARK INTER + INTRA:         -12.472
REMARK INTER:                 -10.589
REMARK INTRA:                  -1.884
REMARK UNBOUND:                -2.373
REMARK  Name = cpd294.pdb
REMARK  16 active torsions:
REMARK  status: ('A' for Active; 'I' for Inactive)
REMARK    1  A    between atoms: C_1  and  C_2
REMARK    2  A    between atoms: C_2  and  C_3
REMARK    3  A    between atoms: C_2  and  C_20
REMARK    4  A    between atoms: C_3  and  C_4
REMARK    5  A    between atoms: C_4  and  C_5
REMARK    6  A    between atoms: C_6  and  C_7
REMARK    7  A    between atoms: C_7  and  O_8
REMARK    8  A    between atoms: C_12  and  C_13
REMARK    9  A    between atoms: C_12  and  C_14
REMARK   10  A    between atoms: C_18  and  C_19
REMARK   11  A    between atoms: C_20  and  C_21
REMARK   12  A    between atoms: C_21  and  O_23
REMARK   13  A    between atoms: O_23  and  C_24
REMARK   14  A    between atoms: C_24  and  C_25
REMARK   15  A    between atoms: C_25  and  C_26
REMARK   16  A    between atoms: C_26  and  N_27
REMARK                            x       y       z     vdW  Elec       q    Type
REMARK                         _______ _______ _______ _____ _____    ______ ____
ROOT
ATOM      1  C   UNL     1      35.729 -34.689 -31.096  0.00  0.00    -0.046 C 
ENDROOT
BRANCH   1   2
ATOM      2  C   UNL     1      36.479 -35.963 -30.468  0.00  0.00    -0.012 C 
ATOM      3  C   UNL     1      37.873 -36.084 -31.128  0.00  0.00    -0.045 C 
ATOM      4  C   UNL     1      38.629 -37.027 -30.561  0.00  0.00    -0.082 C 
ATOM      5  C   UNL     1      37.920 -37.921 -29.610  0.00  0.00    -0.031 C 
ATOM      6  C   UNL     1      36.406 -38.164 -30.083  0.00  0.00    -0.027 C 
ATOM      7  C   UNL     1      36.058 -39.808 -29.684  0.00  0.00    -0.031 C 
ATOM      8  C   UNL     1      36.077 -40.669 -30.972  0.00  0.00    -0.060 C 
ATOM      9  C   UNL     1      37.035 -40.472 -28.676  0.00  0.00    -0.060 C 
ATOM     10  C   UNL     1      34.643 -39.933 -29.067  0.00  0.00    -0.048 C 
ATOM     11  C   UNL     1      34.472 -38.859 -28.017  0.00  0.00    -0.052 C 
ATOM     12  C   UNL     1      35.253 -37.612 -28.448  0.00  0.00    -0.047 C 
ATOM     13  C   UNL     1      35.580 -37.620 -30.226  0.00  0.00    -0.022 C 
ATOM     14  C   UNL     1      34.753 -37.075 -30.370  0.00  0.00    -0.059 C 
BRANCH   3  15
ATOM     15  C   UNL     1      38.328 -35.214 -32.269  0.00  0.00    +0.066 C 
BRANCH  15  16
ATOM     16  O   UNL     1      39.165 -34.152 -31.829  0.00  0.00    -0.391 OA
ATOM     17  H   UNL     1      39.884 -34.021 -32.467  0.00  0.00    +0.000 HD
ENDBRANCH  15  16
ENDBRANCH   3  15
ENDBRANCH   1   2
BRANCH   1  18
ATOM     18  C   UNL     1      35.267 -33.567 -30.134  0.00  0.00    -0.049 C 
BRANCH  18  20
ATOM     19  C   UNL     1      33.338 -32.020 -30.678  0.00  0.00    -0.062 C 
ATOM     20  C   UNL     1      33.729 -33.394 -30.121  0.00  0.00    -0.034 C 
BRANCH  20  21
ATOM     21  C   UNL     1      33.153 -33.561 -28.707  0.00  0.00    +0.048 C 
BRANCH  21  22
ATOM     22  C   UNL     1      32.435 -34.881 -28.544  0.00  0.00    +0.307 C 
ATOM     23  O   UNL     1      31.735 -35.387 -29.409  0.00  0.00    -0.251 OA
BRANCH  22  24
ATOM     24  O   UNL     1      32.674 -35.406 -27.308  0.00  0.00    -0.465 OA
BRANCH  24  25
ATOM     25  C   UNL     1      31.815 -36.490 -26.915  0.00  0.00    +0.094 C 
BRANCH  25  26
ATOM     26  C   UNL     1      32.157 -36.958 -25.505  0.00  0.00    -0.006 C 
BRANCH  26  27
ATOM     27  C   UNL     1      32.447 -35.778 -24.565  0.00  0.00    +0.002 C 
BRANCH  27  28
ATOM     28  N   UNL     1      32.565 -36.219 -23.174  0.00  0.00    -0.302 N 
ATOM     29  C   UNL     1      31.441 -37.071 -22.765  0.00  0.00    -0.001 C 
ATOM     30  C   UNL     1      31.957 -37.796 -21.530  0.00  0.00    -0.039 C 
ATOM     31  C   UNL     1      33.473 -37.657 -21.588  0.00  0.00    -0.039 C 
ATOM     32  C   UNL     1      33.756 -37.041 -22.947  0.00  0.00    -0.001 C 
ATOM     33  H   UNL     1      32.601 -35.351 -22.639  0.00  0.00    +0.000 HD
ENDBRANCH  27  28
ENDBRANCH  26  27
ENDBRANCH  25  26
ENDBRANCH  24  25
ENDBRANCH  22  24
ENDBRANCH  21  22
ENDBRANCH  20  21
ENDBRANCH  18  20
ENDBRANCH   1  18
TORSDOF 12
ENDMDL
MODEL 4
REMARK VINA RESULT:    -6.034     16.597     19.853
REMARK INTER + INTRA:         -12.463
REMARK INTER:                  -9.973
REMARK INTRA:                  -2.490
REMARK UNBOUND:                -2.373
REMARK  Name = cpd294.pdb
REMARK  16 active torsions:
REMARK  status: ('A' for Active; 'I' for Inactive)
REMARK    1  A    between atoms: C_1  and  C_2
REMARK    2  A    between atoms: C_2  and  C_3
REMARK    3  A    between atoms: C_2  and  C_20
REMARK    4  A    between atoms: C_3  and  C_4
REMARK    5  A    between atoms: C_4  and  C_5
REMARK    6  A    between atoms: C_6  and  C_7
REMARK    7  A    between atoms: C_7  and  O_8
REMARK    8  A    between atoms: C_12  and  C_13
REMARK    9  A    between atoms: C_12  and  C_14
REMARK   10  A    between atoms: C_18  and  C_19
REMARK   11  A    between atoms: C_20  and  C_21
REMARK   12  A    between atoms: C_21  and  O_23
REMARK   13  A    between atoms: O_23  and  C_24
REMARK   14  A    between atoms: C_24  and  C_25
REMARK   15  A    between atoms: C_25  and  C_26
REMARK   16  A    between atoms: C_26  and  N_27
REMARK                            x       y       z     vdW  Elec       q    Type
REMARK                         _______ _______ _______ _____ _____    ______ ____
ROOT
ATOM      1  C   UNL     1      43.430 -19.910 -36.788  0.00  0.00    -0.046 C 
ENDROOT
BRANCH   1   2
ATOM      2  C   UNL     1      42.598 -19.950 -35.415  0.00  0.00    -0.012 C 
ATOM      3  C   UNL     1      43.598 -19.931 -34.235  0.00  0.00    -0.045 C 
ATOM      4  C   UNL     1      42.994 -19.811 -33.051  0.00  0.00    -0.082 C 
ATOM      5  C   UNL     1      41.519 -19.974 -33.073  0.00  0.00    -0.031 C 
ATOM      6  C   UNL     1      41.084 -21.045 -34.186  0.00  0.00    -0.027 C 
ATOM      7  C   UNL     1      39.748 -21.900 -33.504  0.00  0.00    -0.031 C 
ATOM      8  C   UNL     1      40.213 -23.305 -33.044  0.00  0.00    -0.060 C 
ATOM      9  C   UNL     1      39.072 -21.221 -32.282  0.00  0.00    -0.060 C 
ATOM     10  C   UNL     1      38.634 -22.108 -34.560  0.00  0.00    -0.048 C 
ATOM     11  C   UNL     1      38.393 -20.799 -35.277  0.00  0.00    -0.052 C 
ATOM     12  C   UNL     1      39.718 -20.034 -35.378  0.00  0.00    -0.047 C 
ATOM     13  C   UNL     1      41.134 -21.140 -35.180  0.00  0.00    -0.022 C 
ATOM     14  C   UNL     1      41.185 -21.235 -36.174  0.00  0.00    -0.059 C 
BRANCH   3  15
ATOM     15  C   UNL     1      45.091 -20.014 -34.414  0.00  0.00    +0.066 C 
BRANCH  15  16
ATOM     16  O   UNL     1      45.642 -21.160 -33.776  0.00  0.00    -0.391 OA
ATOM     17  H   UNL     1      45.161 -21.952 -34.064  0.00  0.00    +0.000 HD
ENDBRANCH  15  16
ENDBRANCH   3  15
ENDBRANCH   1   2
BRANCH   1  18
ATOM     18  C   UNL     1      43.462 -18.581 -37.582  0.00  0.00    -0.049 C 
BRANCH  18  20
ATOM     19  C   UNL     1      42.944 -17.496 -39.809  0.00  0.00    -0.062 C 
ATOM     20  C   UNL     1      43.341 -18.800 -39.109  0.00  0.00    -0.034 C 
BRANCH  20  21
ATOM     21  C   UNL     1      42.319 -19.897 -39.444  0.00  0.00    +0.048 C 
BRANCH  21  22
ATOM     22  C   UNL     1      42.891 -20.929 -40.388  0.00  0.00    +0.307 C 
ATOM     23  O   UNL     1      42.227 -21.807 -40.921  0.00  0.00    -0.251 OA
BRANCH  22  24
ATOM     24  O   UNL     1      44.232 -20.743 -40.547  0.00  0.00    -0.465 OA
BRANCH  24  25
ATOM     25  C   UNL     1      45.020 -21.942 -40.653  0.00  0.00    +0.094 C 
BRANCH  25  26
ATOM     26  C   UNL     1      46.469 -21.664 -40.273  0.00  0.00    -0.006 C 
BRANCH  26  27
ATOM     27  C   UNL     1      46.902 -20.243 -40.666  0.00  0.00    +0.002 C 
BRANCH  27  28
ATOM     28  N   UNL     1      46.547 -19.270 -39.632  0.00  0.00    -0.302 N 
ATOM     29  C   UNL     1      47.175 -19.579 -38.341  0.00  0.00    -0.001 C 
ATOM     30  C   UNL     1      47.102 -18.268 -37.571  0.00  0.00    -0.039 C 
ATOM     31  C   UNL     1      46.859 -17.196 -38.627  0.00  0.00    -0.039 C 
ATOM     32  C   UNL     1      47.007 -17.918 -39.955  0.00  0.00    -0.001 C 
ATOM     33  H   UNL     1      45.529 -19.318 -39.582  0.00  0.00    +0.000 HD
ENDBRANCH  27  28
ENDBRANCH  26  27
ENDBRANCH  25  26
ENDBRANCH  24  25
ENDBRANCH  22  24
ENDBRANCH  21  22
ENDBRANCH  20  21
ENDBRANCH  18  20
ENDBRANCH   1  18
TORSDOF 12
ENDMDL
MODEL 5
REMARK VINA RESULT:    -5.983      1.982      2.827
REMARK INTER + INTRA:         -12.377
REMARK INTER:                 -10.063
REMARK INTRA:                  -2.314
REMARK UNBOUND:                -2.373
REMARK  Name = cpd294.pdb
REMARK  16 active torsions:
REMARK  status: ('A' for Active; 'I' for Inactive)
REMARK    1  A    between atoms: C_1  and  C_2
REMARK    2  A    between atoms: C_2  and  C_3
REMARK    3  A    between atoms: C_2  and  C_20
REMARK    4  A    between atoms: C_3  and  C_4
REMARK    5  A    between atoms: C_4  and  C_5
REMARK    6  A    between atoms: C_6  and  C_7
REMARK    7  A    between atoms: C_7  and  O_8
REMARK    8  A    between atoms: C_12  and  C_13
REMARK    9  A    between atoms: C_12  and  C_14
REMARK   10  A    between atoms: C_18  and  C_19
REMARK   11  A    between atoms: C_20  and  C_21
REMARK   12  A    between atoms: C_21  and  O_23
REMARK   13  A    between atoms: O_23  and  C_24
REMARK   14  A    between atoms: C_24  and  C_25
REMARK   15  A    between atoms: C_25  and  C_26
REMARK   16  A    between atoms: C_26  and  N_27
REMARK                            x       y       z     vdW  Elec       q    Type
REMARK                         _______ _______ _______ _____ _____    ______ ____
ROOT
ATOM      1  C   UNL     1      35.750 -34.610 -30.764  0.00  0.00    -0.046 C 
ENDROOT
BRANCH   1   2
ATOM      2  C   UNL     1      36.464 -35.946 -30.230  0.00  0.00    -0.012 C 
ATOM      3  C   UNL     1      37.864 -36.046 -30.881  0.00  0.00    -0.045 C 
ATOM      4  C   UNL     1      38.592 -37.047 -30.381  0.00  0.00    -0.082 C 
ATOM      5  C   UNL     1      37.851 -37.997 -29.513  0.00  0.00    -0.031 C 
ATOM      6  C   UNL     1      36.339 -38.168 -30.021  0.00  0.00    -0.027 C 
ATOM      7  C   UNL     1      35.950 -39.830 -29.757  0.00  0.00    -0.031 C 
ATOM      8  C   UNL     1      35.968 -40.588 -31.109  0.00  0.00    -0.060 C 
ATOM      9  C   UNL     1      36.899 -40.594 -28.794  0.00  0.00    -0.060 C 
ATOM     10  C   UNL     1      34.525 -39.972 -29.169  0.00  0.00    -0.048 C 
ATOM     11  C   UNL     1      34.363 -38.980 -28.039  0.00  0.00    -0.052 C 
ATOM     12  C   UNL     1      35.176 -37.721 -28.361  0.00  0.00    -0.047 C 
ATOM     13  C   UNL     1      35.526 -37.596 -30.130  0.00  0.00    -0.022 C 
ATOM     14  C   UNL     1      34.714 -37.023 -30.240  0.00  0.00    -0.059 C 
BRANCH   3  15
ATOM     15  C   UNL     1      38.353 -35.099 -31.944  0.00  0.00    +0.066 C 
BRANCH  15  16
ATOM     16  O   UNL     1      39.617 -35.489 -32.465  0.00  0.00    -0.391 OA
ATOM     17  H   UNL     1      39.523 -35.722 -33.403  0.00  0.00    +0.000 HD
ENDBRANCH  15  16
ENDBRANCH   3  15
ENDBRANCH   1   2
BRANCH   1  18
ATOM     18  C   UNL     1      34.933 -33.766 -29.755  0.00  0.00    -0.049 C 
BRANCH  18  20
ATOM     19  C   UNL     1      33.403 -33.797 -31.772  0.00  0.00    -0.062 C 
ATOM     20  C   UNL     1      33.605 -33.246 -30.356  0.00  0.00    -0.034 C 
BRANCH  20  21
ATOM     21  C   UNL     1      33.560 -31.711 -30.388  0.00  0.00    +0.048 C 
BRANCH  21  22
ATOM     22  C   UNL     1      32.187 -31.181 -30.050  0.00  0.00    +0.307 C 
ATOM     23  O   UNL     1      31.713 -30.160 -30.530  0.00  0.00    -0.251 OA
BRANCH  22  24
ATOM     24  O   UNL     1      31.571 -31.989 -29.141  0.00  0.00    -0.465 OA
BRANCH  24  25
ATOM     25  C   UNL     1      30.151 -32.148 -29.307  0.00  0.00    +0.094 C 
BRANCH  25  26
ATOM     26  C   UNL     1      29.853 -33.146 -30.419  0.00  0.00    -0.006 C 
BRANCH  26  27
ATOM     27  C   UNL     1      29.650 -34.568 -29.874  0.00  0.00    +0.002 C 
BRANCH  27  28
ATOM     28  N   UNL     1      30.461 -34.803 -28.678  0.00  0.00    -0.302 N 
ATOM     29  C   UNL     1      29.679 -35.399 -27.587  0.00  0.00    -0.001 C 
ATOM     30  C   UNL     1      30.731 -35.997 -26.662  0.00  0.00    -0.039 C 
ATOM     31  C   UNL     1      31.994 -36.104 -27.509  0.00  0.00    -0.039 C 
ATOM     32  C   UNL     1      31.548 -35.754 -28.918  0.00  0.00    -0.001 C 
ATOM     33  H   UNL     1      30.817 -33.880 -28.431  0.00  0.00    +0.000 HD
ENDBRANCH  27  28
ENDBRANCH  26  27
ENDBRANCH  25  26
ENDBRANCH  24  25
ENDBRANCH  22  24
ENDBRANCH  21  22
ENDBRANCH  20  21
ENDBRANCH  18  20
ENDBRANCH   1  18
TORSDOF 12
ENDMDL
MODEL 6
REMARK VINA RESULT:    -5.929     16.880     20.076
REMARK INTER + INTRA:         -12.288
REMARK INTER:                 -10.107
REMARK INTRA:                  -2.180
REMARK UNBOUND:                -2.373
REMARK  Name = cpd294.pdb
REMARK  16 active torsions:
REMARK  status: ('A' for Active; 'I' for Inactive)
REMARK    1  A    between atoms: C_1  and  C_2
REMARK    2  A    between atoms: C_2  and  C_3
REMARK    3  A    between atoms: C_2  and  C_20
REMARK    4  A    between atoms: C_3  and  C_4
REMARK    5  A    between atoms: C_4  and  C_5
REMARK    6  A    between atoms: C_6  and  C_7
REMARK    7  A    between atoms: C_7  and  O_8
REMARK    8  A    between atoms: C_12  and  C_13
REMARK    9  A    between atoms: C_12  and  C_14
REMARK   10  A    between atoms: C_18  and  C_19
REMARK   11  A    between atoms: C_20  and  C_21
REMARK   12  A    between atoms: C_21  and  O_23
REMARK   13  A    between atoms: O_23  and  C_24
REMARK   14  A    between atoms: C_24  and  C_25
REMARK   15  A    between atoms: C_25  and  C_26
REMARK   16  A    between atoms: C_26  and  N_27
REMARK                            x       y       z     vdW  Elec       q    Type
REMARK                         _______ _______ _______ _____ _____    ______ ____
ROOT
ATOM      1  C   UNL     1      41.744 -20.795 -37.314  0.00  0.00    -0.046 C 
ENDROOT
BRANCH   1   2
ATOM      2  C   UNL     1      42.251 -20.872 -38.836  0.00  0.00    -0.012 C 
ATOM      3  C   UNL     1      41.504 -22.027 -39.543  0.00  0.00    -0.045 C 
ATOM      4  C   UNL     1      41.750 -22.072 -40.855  0.00  0.00    -0.082 C 
ATOM      5  C   UNL     1      42.855 -21.197 -41.321  0.00  0.00    -0.031 C 
ATOM      6  C   UNL     1      44.004 -21.092 -40.206  0.00  0.00    -0.027 C 
ATOM      7  C   UNL     1      45.492 -21.043 -41.082  0.00  0.00    -0.031 C 
ATOM      8  C   UNL     1      46.201 -22.417 -40.975  0.00  0.00    -0.060 C 
ATOM      9  C   UNL     1      45.367 -20.711 -42.593  0.00  0.00    -0.060 C 
ATOM     10  C   UNL     1      46.448 -19.984 -40.479  0.00  0.00    -0.048 C 
ATOM     11  C   UNL     1      45.675 -18.705 -40.251  0.00  0.00    -0.052 C 
ATOM     12  C   UNL     1      44.230 -19.055 -39.878  0.00  0.00    -0.047 C 
ATOM     13  C   UNL     1      44.098 -20.752 -39.270  0.00  0.00    -0.022 C 
ATOM     14  C   UNL     1      44.191 -20.413 -38.334  0.00  0.00    -0.059 C 
BRANCH   3  15
ATOM     15  C   UNL     1      40.581 -22.978 -38.827  0.00  0.00    +0.066 C 
BRANCH  15  16
ATOM     16  O   UNL     1      40.155 -24.043 -39.668  0.00  0.00    -0.391 OA
ATOM     17  H   UNL     1      39.569 -23.695 -40.359  0.00  0.00    +0.000 HD
ENDBRANCH  15  16
ENDBRANCH   3  15
ENDBRANCH   1   2
BRANCH   1  18
ATOM     18  C   UNL     1      40.745 -19.676 -36.934  0.00  0.00    -0.049 C 
BRANCH  18  20
ATOM     19  C   UNL     1      38.336 -19.560 -36.164  0.00  0.00    -0.062 C 
ATOM     20  C   UNL     1      39.727 -20.129 -35.860  0.00  0.00    -0.034 C 
BRANCH  20  21
ATOM     21  C   UNL     1      40.162 -19.704 -34.450  0.00  0.00    +0.048 C 
BRANCH  21  22
ATOM     22  C   UNL     1      40.741 -20.859 -33.667  0.00  0.00    +0.307 C 
ATOM     23  O   UNL     1      40.162 -21.921 -33.492  0.00  0.00    -0.251 OA
BRANCH  22  24
ATOM     24  O   UNL     1      41.977 -20.540 -33.186  0.00  0.00    -0.465 OA
BRANCH  24  25
ATOM     25  C   UNL     1      42.523 -19.292 -33.645  0.00  0.00    +0.094 C 
BRANCH  25  26
ATOM     26  C   UNL     1      44.016 -19.220 -33.348  0.00  0.00    -0.006 C 
BRANCH  26  27
ATOM     27  C   UNL     1      44.842 -20.015 -34.370  0.00  0.00    +0.002 C 
BRANCH  27  28
ATOM     28  N   UNL     1      45.892 -19.188 -34.968  0.00  0.00    -0.302 N 
ATOM     29  C   UNL     1      46.832 -19.983 -35.771  0.00  0.00    -0.001 C 
ATOM     30  C   UNL     1      47.513 -18.956 -36.665  0.00  0.00    -0.039 C 
ATOM     31  C   UNL     1      46.603 -17.734 -36.638  0.00  0.00    -0.039 C 
ATOM     32  C   UNL     1      45.357 -18.193 -35.900  0.00  0.00    -0.001 C 
ATOM     33  H   UNL     1      46.350 -18.748 -34.170  0.00  0.00    +0.000 HD
ENDBRANCH  27  28
ENDBRANCH  26  27
ENDBRANCH  25  26
ENDBRANCH  24  25
ENDBRANCH  22  24
ENDBRANCH  21  22
ENDBRANCH  20  21
ENDBRANCH  18  20
ENDBRANCH   1  18
TORSDOF 12
ENDMDL
MODEL 7
REMARK VINA RESULT:    -5.854     16.072     19.252
REMARK INTER + INTRA:         -12.162
REMARK INTER:                  -9.768
REMARK INTRA:                  -2.394
REMARK UNBOUND:                -2.373
REMARK  Name = cpd294.pdb
REMARK  16 active torsions:
REMARK  status: ('A' for Active; 'I' for Inactive)
REMARK    1  A    between atoms: C_1  and  C_2
REMARK    2  A    between atoms: C_2  and  C_3
REMARK    3  A    between atoms: C_2  and  C_20
REMARK    4  A    between atoms: C_3  and  C_4
REMARK    5  A    between atoms: C_4  and  C_5
REMARK    6  A    between atoms: C_6  and  C_7
REMARK    7  A    between atoms: C_7  and  O_8
REMARK    8  A    between atoms: C_12  and  C_13
REMARK    9  A    between atoms: C_12  and  C_14
REMARK   10  A    between atoms: C_18  and  C_19
REMARK   11  A    between atoms: C_20  and  C_21
REMARK   12  A    between atoms: C_21  and  O_23
REMARK   13  A    between atoms: O_23  and  C_24
REMARK   14  A    between atoms: C_24  and  C_25
REMARK   15  A    between atoms: C_25  and  C_26
REMARK   16  A    between atoms: C_26  and  N_27
REMARK                            x       y       z     vdW  Elec       q    Type
REMARK                         _______ _______ _______ _____ _____    ______ ____
ROOT
ATOM      1  C   UNL     1      42.380 -19.076 -36.938  0.00  0.00    -0.046 C 
ENDROOT
BRANCH   1   2
ATOM      2  C   UNL     1      43.687 -19.764 -37.571  0.00  0.00    -0.012 C 
ATOM      3  C   UNL     1      44.839 -19.661 -36.544  0.00  0.00    -0.045 C 
ATOM      4  C   UNL     1      45.926 -20.338 -36.921  0.00  0.00    -0.082 C 
ATOM      5  C   UNL     1      45.911 -20.829 -38.323  0.00  0.00    -0.031 C 
ATOM      6  C   UNL     1      45.133 -19.798 -39.275  0.00  0.00    -0.027 C 
ATOM      7  C   UNL     1      45.993 -19.817 -40.773  0.00  0.00    -0.031 C 
ATOM      8  C   UNL     1      46.842 -18.526 -40.899  0.00  0.00    -0.060 C 
ATOM      9  C   UNL     1      46.956 -21.018 -40.975  0.00  0.00    -0.060 C 
ATOM     10  C   UNL     1      45.009 -19.839 -41.969  0.00  0.00    -0.048 C 
ATOM     11  C   UNL     1      43.947 -20.882 -41.706  0.00  0.00    -0.052 C 
ATOM     12  C   UNL     1      43.670 -20.943 -40.200  0.00  0.00    -0.047 C 
ATOM     13  C   UNL     1      44.208 -19.431 -39.368  0.00  0.00    -0.022 C 
ATOM     14  C   UNL     1      43.282 -19.064 -39.460  0.00  0.00    -0.059 C 
BRANCH   3  15
ATOM     15  C   UNL     1      44.730 -18.898 -35.250  0.00  0.00    +0.066 C 
BRANCH  15  16
ATOM     16  O   UNL     1      45.453 -19.526 -34.198  0.00  0.00    -0.391 OA
ATOM     17  H   UNL     1      44.975 -19.408 -33.362  0.00  0.00    +0.000 HD
ENDBRANCH  15  16
ENDBRANCH   3  15
ENDBRANCH   1   2
BRANCH   1  18
ATOM     18  C   UNL     1      41.137 -19.965 -36.689  0.00  0.00    -0.049 C 
BRANCH  18  20
ATOM     19  C   UNL     1      40.554 -21.783 -38.352  0.00  0.00    -0.062 C 
ATOM     20  C   UNL     1      41.370 -21.439 -37.100  0.00  0.00    -0.034 C 
BRANCH  20  21
ATOM     21  C   UNL     1      41.008 -22.408 -35.965  0.00  0.00    +0.048 C 
BRANCH  21  22
ATOM     22  C   UNL     1      39.568 -22.858 -36.047  0.00  0.00    +0.307 C 
ATOM     23  O   UNL     1      39.206 -23.888 -36.600  0.00  0.00    -0.251 OA
BRANCH  22  24
ATOM     24  O   UNL     1      38.749 -21.958 -35.433  0.00  0.00    -0.465 OA
BRANCH  24  25
ATOM     25  C   UNL     1      38.140 -22.401 -34.208  0.00  0.00    +0.094 C 
BRANCH  25  26
ATOM     26  C   UNL     1      37.383 -21.258 -33.543  0.00  0.00    -0.006 C 
BRANCH  26  27
ATOM     27  C   UNL     1      38.267 -20.487 -32.551  0.00  0.00    +0.002 C 
BRANCH  27  28
ATOM     28  N   UNL     1      39.591 -20.213 -33.115  0.00  0.00    -0.302 N 
ATOM     29  C   UNL     1      39.995 -18.814 -32.923  0.00  0.00    -0.001 C 
ATOM     30  C   UNL     1      41.506 -18.837 -33.113  0.00  0.00    -0.039 C 
ATOM     31  C   UNL     1      41.908 -20.297 -32.944  0.00  0.00    -0.039 C 
ATOM     32  C   UNL     1      40.646 -20.997 -32.470  0.00  0.00    -0.001 C 
ATOM     33  H   UNL     1      39.496 -20.450 -34.102  0.00  0.00    +0.000 HD
ENDBRANCH  27  28
ENDBRANCH  26  27
ENDBRANCH  25  26
ENDBRANCH  24  25
ENDBRANCH  22  24
ENDBRANCH  21  22
ENDBRANCH  20  21
ENDBRANCH  18  20
ENDBRANCH   1  18
TORSDOF 12
ENDMDL
MODEL 8
REMARK VINA RESULT:    -5.850     16.005     19.073
REMARK INTER + INTRA:         -12.155
REMARK INTER:                  -8.953
REMARK INTRA:                  -3.203
REMARK UNBOUND:                -2.373
REMARK  Name = cpd294.pdb
REMARK  16 active torsions:
REMARK  status: ('A' for Active; 'I' for Inactive)
REMARK    1  A    between atoms: C_1  and  C_2
REMARK    2  A    between atoms: C_2  and  C_3
REMARK    3  A    between atoms: C_2  and  C_20
REMARK    4  A    between atoms: C_3  and  C_4
REMARK    5  A    between atoms: C_4  and  C_5
REMARK    6  A    between atoms: C_6  and  C_7
REMARK    7  A    between atoms: C_7  and  O_8
REMARK    8  A    between atoms: C_12  and  C_13
REMARK    9  A    between atoms: C_12  and  C_14
REMARK   10  A    between atoms: C_18  and  C_19
REMARK   11  A    between atoms: C_20  and  C_21
REMARK   12  A    between atoms: C_21  and  O_23
REMARK   13  A    between atoms: O_23  and  C_24
REMARK   14  A    between atoms: C_24  and  C_25
REMARK   15  A    between atoms: C_25  and  C_26
REMARK   16  A    between atoms: C_26  and  N_27
REMARK                            x       y       z     vdW  Elec       q    Type
REMARK                         _______ _______ _______ _____ _____    ______ ____
ROOT
ATOM      1  C   UNL     1      42.484 -20.940 -36.990  0.00  0.00    -0.046 C 
ENDROOT
BRANCH   1   2
ATOM      2  C   UNL     1      42.721 -20.881 -38.577  0.00  0.00    -0.012 C 
ATOM      3  C   UNL     1      41.756 -21.883 -39.254  0.00  0.00    -0.045 C 
ATOM      4  C   UNL     1      41.775 -21.796 -40.586  0.00  0.00    -0.082 C 
ATOM      5  C   UNL     1      42.869 -20.964 -41.150  0.00  0.00    -0.031 C 
ATOM      6  C   UNL     1      44.192 -21.082 -40.249  0.00  0.00    -0.027 C 
ATOM      7  C   UNL     1      45.510 -21.053 -41.363  0.00  0.00    -0.031 C 
ATOM      8  C   UNL     1      46.088 -22.482 -41.521  0.00  0.00    -0.060 C 
ATOM      9  C   UNL     1      45.170 -20.539 -42.789  0.00  0.00    -0.060 C 
ATOM     10  C   UNL     1      46.653 -20.150 -40.835  0.00  0.00    -0.048 C 
ATOM     11  C   UNL     1      46.060 -18.848 -40.348  0.00  0.00    -0.052 C 
ATOM     12  C   UNL     1      44.669 -19.121 -39.764  0.00  0.00    -0.047 C 
ATOM     13  C   UNL     1      44.472 -20.861 -39.315  0.00  0.00    -0.022 C 
ATOM     14  C   UNL     1      44.753 -20.641 -38.381  0.00  0.00    -0.059 C 
BRANCH   3  15
ATOM     15  C   UNL     1      40.875 -22.832 -38.485  0.00  0.00    +0.066 C 
BRANCH  15  16
ATOM     16  O   UNL     1      39.501 -22.474 -38.571  0.00  0.00    -0.391 OA
ATOM     17  H   UNL     1      38.963 -23.277 -38.659  0.00  0.00    +0.000 HD
ENDBRANCH  15  16
ENDBRANCH   3  15
ENDBRANCH   1   2
BRANCH   1  18
ATOM     18  C   UNL     1      41.833 -19.714 -36.304  0.00  0.00    -0.049 C 
BRANCH  18  20
ATOM     19  C   UNL     1      42.323 -17.358 -37.088  0.00  0.00    -0.062 C 
ATOM     20  C   UNL     1      41.456 -18.602 -37.311  0.00  0.00    -0.034 C 
BRANCH  20  21
ATOM     21  C   UNL     1      39.972 -18.222 -37.207  0.00  0.00    +0.048 C 
BRANCH  21  22
ATOM     22  C   UNL     1      39.086 -19.202 -37.941  0.00  0.00    +0.307 C 
ATOM     23  O   UNL     1      39.249 -19.525 -39.109  0.00  0.00    -0.251 OA
BRANCH  22  24
ATOM     24  O   UNL     1      38.094 -19.657 -37.124  0.00  0.00    -0.465 OA
BRANCH  24  25
ATOM     25  C   UNL     1      37.983 -18.998 -35.850  0.00  0.00    +0.094 C 
BRANCH  25  26
ATOM     26  C   UNL     1      36.842 -19.596 -35.036  0.00  0.00    -0.006 C 
BRANCH  26  27
ATOM     27  C   UNL     1      37.344 -20.647 -34.035  0.00  0.00    +0.002 C 
BRANCH  27  28
ATOM     28  N   UNL     1      38.696 -21.100 -34.366  0.00  0.00    -0.302 N 
ATOM     29  C   UNL     1      39.585 -21.092 -33.196  0.00  0.00    -0.001 C 
ATOM     30  C   UNL     1      40.732 -22.010 -33.597  0.00  0.00    -0.039 C 
ATOM     31  C   UNL     1      40.199 -22.829 -34.766  0.00  0.00    -0.039 C 
ATOM     32  C   UNL     1      38.722 -22.485 -34.842  0.00  0.00    -0.001 C 
ATOM     33  H   UNL     1      39.009 -20.449 -35.086  0.00  0.00    +0.000 HD
ENDBRANCH  27  28
ENDBRANCH  26  27
ENDBRANCH  25  26
ENDBRANCH  24  25
ENDBRANCH  22  24
ENDBRANCH  21  22
ENDBRANCH  20  21
ENDBRANCH  18  20
ENDBRANCH   1  18
TORSDOF 12
ENDMDL
MODEL 9
REMARK VINA RESULT:    -5.824     16.725     19.827
REMARK INTER + INTRA:         -12.112
REMARK INTER:                  -9.607
REMARK INTRA:                  -2.505
REMARK UNBOUND:                -2.373
REMARK  Name = cpd294.pdb
REMARK  16 active torsions:
REMARK  status: ('A' for Active; 'I' for Inactive)
REMARK    1  A    between atoms: C_1  and  C_2
REMARK    2  A    between atoms: C_2  and  C_3
REMARK    3  A    between atoms: C_2  and  C_20
REMARK    4  A    between atoms: C_3  and  C_4
REMARK    5  A    between atoms: C_4  and  C_5
REMARK    6  A    between atoms: C_6  and  C_7
REMARK    7  A    between atoms: C_7  and  O_8
REMARK    8  A    between atoms: C_12  and  C_13
REMARK    9  A    between atoms: C_12  and  C_14
REMARK   10  A    between atoms: C_18  and  C_19
REMARK   11  A    between atoms: C_20  and  C_21
REMARK   12  A    between atoms: C_21  and  O_23
REMARK   13  A    between atoms: O_23  and  C_24
REMARK   14  A    between atoms: C_24  and  C_25
REMARK   15  A    between atoms: C_25  and  C_26
REMARK   16  A    between atoms: C_26  and  N_27
REMARK                            x       y       z     vdW  Elec       q    Type
REMARK                         _______ _______ _______ _____ _____    ______ ____
ROOT
ATOM      1  C   UNL     1      43.474 -17.814 -38.918  0.00  0.00    -0.046 C 
ENDROOT
BRANCH   1   2
ATOM      2  C   UNL     1      44.400 -19.125 -38.977  0.00  0.00    -0.012 C 
ATOM      3  C   UNL     1      45.477 -19.014 -37.871  0.00  0.00    -0.045 C 
ATOM      4  C   UNL     1      46.201 -20.128 -37.746  0.00  0.00    -0.082 C 
ATOM      5  C   UNL     1      46.014 -21.131 -38.825  0.00  0.00    -0.031 C 
ATOM      6  C   UNL     1      45.738 -20.406 -40.230  0.00  0.00    -0.027 C 
ATOM      7  C   UNL     1      46.542 -21.373 -41.412  0.00  0.00    -0.031 C 
ATOM      8  C   UNL     1      47.844 -20.664 -41.864  0.00  0.00    -0.060 C 
ATOM      9  C   UNL     1      46.938 -22.802 -40.950  0.00  0.00    -0.060 C 
ATOM     10  C   UNL     1      45.656 -21.551 -42.669  0.00  0.00    -0.048 C 
ATOM     11  C   UNL     1      44.257 -21.921 -42.230  0.00  0.00    -0.052 C 
ATOM     12  C   UNL     1      43.952 -21.225 -40.899  0.00  0.00    -0.047 C 
ATOM     13  C   UNL     1      45.043 -19.808 -40.630  0.00  0.00    -0.022 C 
ATOM     14  C   UNL     1      44.348 -19.211 -41.029  0.00  0.00    -0.059 C 
BRANCH   3  15
ATOM     15  C   UNL     1      45.664 -17.788 -37.018  0.00  0.00    +0.066 C 
BRANCH  15  16
ATOM     16  O   UNL     1      46.775 -17.914 -36.139  0.00  0.00    -0.391 OA
ATOM     17  H   UNL     1      47.481 -17.311 -36.421  0.00  0.00    +0.000 HD
ENDBRANCH  15  16
ENDBRANCH   3  15
ENDBRANCH   1   2
BRANCH   1  18
ATOM     18  C   UNL     1      42.006 -17.979 -38.454  0.00  0.00    -0.049 C 
BRANCH  18  20
ATOM     19  C   UNL     1      40.368 -19.753 -39.214  0.00  0.00    -0.062 C 
ATOM     20  C   UNL     1      41.587 -19.463 -38.330  0.00  0.00    -0.034 C 
BRANCH  20  21
ATOM     21  C   UNL     1      41.272 -19.844 -36.876  0.00  0.00    +0.048 C 
BRANCH  21  22
ATOM     22  C   UNL     1      42.085 -21.031 -36.416  0.00  0.00    +0.307 C 
ATOM     23  O   UNL     1      43.266 -20.969 -36.105  0.00  0.00    -0.251 OA
BRANCH  22  24
ATOM     24  O   UNL     1      41.321 -22.161 -36.409  0.00  0.00    -0.465 OA
BRANCH  24  25
ATOM     25  C   UNL     1      39.931 -21.973 -36.094  0.00  0.00    +0.094 C 
BRANCH  25  26
ATOM     26  C   UNL     1      39.444 -23.066 -35.150  0.00  0.00    -0.006 C 
BRANCH  26  27
ATOM     27  C   UNL     1      39.710 -22.713 -33.679  0.00  0.00    +0.002 C 
BRANCH  27  28
ATOM     28  N   UNL     1      40.132 -21.318 -33.531  0.00  0.00    -0.302 N 
ATOM     29  C   UNL     1      39.168 -20.529 -32.752  0.00  0.00    -0.001 C 
ATOM     30  C   UNL     1      39.966 -19.312 -32.304  0.00  0.00    -0.039 C 
ATOM     31  C   UNL     1      41.428 -19.709 -32.465  0.00  0.00    -0.039 C 
ATOM     32  C   UNL     1      41.394 -21.190 -32.801  0.00  0.00    -0.001 C 
ATOM     33  H   UNL     1      40.216 -20.980 -34.490  0.00  0.00    +0.000 HD
ENDBRANCH  27  28
ENDBRANCH  26  27
ENDBRANCH  25  26
ENDBRANCH  24  25
ENDBRANCH  22  24
ENDBRANCH  21  22
ENDBRANCH  20  21
ENDBRANCH  18  20
ENDBRANCH   1  18
TORSDOF 12
ENDMDL
MODEL 10
REMARK VINA RESULT:    -5.817      2.480      3.886
REMARK INTER + INTRA:         -12.100
REMARK INTER:                 -10.217
REMARK INTRA:                  -1.883
REMARK UNBOUND:                -2.373
REMARK  Name = cpd294.pdb
REMARK  16 active torsions:
REMARK  status: ('A' for Active; 'I' for Inactive)
REMARK    1  A    between atoms: C_1  and  C_2
REMARK    2  A    between atoms: C_2  and  C_3
REMARK    3  A    between atoms: C_2  and  C_20
REMARK    4  A    between atoms: C_3  and  C_4
REMARK    5  A    between atoms: C_4  and  C_5
REMARK    6  A    between atoms: C_6  and  C_7
REMARK    7  A    between atoms: C_7  and  O_8
REMARK    8  A    between atoms: C_12  and  C_13
REMARK    9  A    between atoms: C_12  and  C_14
REMARK   10  A    between atoms: C_18  and  C_19
REMARK   11  A    between atoms: C_20  and  C_21
REMARK   12  A    between atoms: C_21  and  O_23
REMARK   13  A    between atoms: O_23  and  C_24
REMARK   14  A    between atoms: C_24  and  C_25
REMARK   15  A    between atoms: C_25  and  C_26
REMARK   16  A    between atoms: C_26  and  N_27
REMARK                            x       y       z     vdW  Elec       q    Type
REMARK                         _______ _______ _______ _____ _____    ______ ____
ROOT
ATOM      1  C   UNL     1      35.492 -34.533 -31.043  0.00  0.00    -0.046 C 
ENDROOT
BRANCH   1   2
ATOM      2  C   UNL     1      36.165 -35.881 -30.487  0.00  0.00    -0.012 C 
ATOM      3  C   UNL     1      37.615 -35.960 -31.021  0.00  0.00    -0.045 C 
ATOM      4  C   UNL     1      38.303 -36.973 -30.491  0.00  0.00    -0.082 C 
ATOM      5  C   UNL     1      37.497 -37.949 -29.713  0.00  0.00    -0.031 C 
ATOM      6  C   UNL     1      36.033 -38.109 -30.350  0.00  0.00    -0.027 C 
ATOM      7  C   UNL     1      35.632 -39.778 -30.166  0.00  0.00    -0.031 C 
ATOM      8  C   UNL     1      35.765 -40.498 -31.531  0.00  0.00    -0.060 C 
ATOM      9  C   UNL     1      36.501 -40.566 -29.148  0.00  0.00    -0.060 C 
ATOM     10  C   UNL     1      34.162 -39.940 -29.703  0.00  0.00    -0.048 C 
ATOM     11  C   UNL     1      33.903 -38.980 -28.564  0.00  0.00    -0.052 C 
ATOM     12  C   UNL     1      34.734 -37.710 -28.782  0.00  0.00    -0.047 C 
ATOM     13  C   UNL     1      35.230 -37.535 -30.512  0.00  0.00    -0.022 C 
ATOM     14  C   UNL     1      34.427 -36.962 -30.673  0.00  0.00    -0.059 C 
BRANCH   3  15
ATOM     15  C   UNL     1      38.186 -34.983 -32.014  0.00  0.00    +0.066 C 
BRANCH  15  16
ATOM     16  O   UNL     1      39.319 -35.512 -32.693  0.00  0.00    -0.391 OA
ATOM     17  H   UNL     1      39.167 -36.449 -32.894  0.00  0.00    +0.000 HD
ENDBRANCH  15  16
ENDBRANCH   3  15
ENDBRANCH   1   2
BRANCH   1  18
ATOM     18  C   UNL     1      35.416 -33.312 -30.094  0.00  0.00    -0.049 C 
BRANCH  18  20
ATOM     19  C   UNL     1      33.142 -33.905 -29.152  0.00  0.00    -0.062 C 
ATOM     20  C   UNL     1      33.964 -32.827 -29.868  0.00  0.00    -0.034 C 
BRANCH  20  21
ATOM     21  C   UNL     1      33.280 -32.450 -31.190  0.00  0.00    +0.048 C 
BRANCH  21  22
ATOM     22  C   UNL     1      32.055 -31.594 -30.967  0.00  0.00    +0.307 C 
ATOM     23  O   UNL     1      32.045 -30.586 -30.274  0.00  0.00    -0.251 OA
BRANCH  22  24
ATOM     24  O   UNL     1      30.982 -32.110 -31.631  0.00  0.00    -0.465 OA
BRANCH  24  25
ATOM     25  C   UNL     1      30.032 -32.827 -30.823  0.00  0.00    +0.094 C 
BRANCH  25  26
ATOM     26  C   UNL     1      28.632 -32.256 -31.012  0.00  0.00    -0.006 C 
BRANCH  26  27
ATOM     27  C   UNL     1      28.665 -30.861 -31.655  0.00  0.00    +0.002 C 
BRANCH  27  28
ATOM     28  N   UNL     1      28.972 -29.823 -30.669  0.00  0.00    -0.302 N 
ATOM     29  C   UNL     1      28.655 -28.477 -31.165  0.00  0.00    -0.001 C 
ATOM     30  C   UNL     1      28.574 -27.629 -29.903  0.00  0.00    -0.039 C 
ATOM     31  C   UNL     1      28.395 -28.624 -28.762  0.00  0.00    -0.039 C 
ATOM     32  C   UNL     1      28.181 -29.964 -29.444  0.00  0.00    -0.001 C 
ATOM     33  H   UNL     1      29.969 -29.938 -30.488  0.00  0.00    +0.000 HD
ENDBRANCH  27  28
ENDBRANCH  26  27
ENDBRANCH  25  26
ENDBRANCH  24  25
ENDBRANCH  22  24
ENDBRANCH  21  22
ENDBRANCH  20  21
ENDBRANCH  18  20
ENDBRANCH   1  18
TORSDOF 12
ENDMDL
MODEL 11
REMARK VINA RESULT:    -5.813     16.346     19.478
REMARK INTER + INTRA:         -12.094
REMARK INTER:                  -9.281
REMARK INTRA:                  -2.813
REMARK UNBOUND:                -2.373
REMARK  Name = cpd294.pdb
REMARK  16 active torsions:
REMARK  status: ('A' for Active; 'I' for Inactive)
REMARK    1  A    between atoms: C_1  and  C_2
REMARK    2  A    between atoms: C_2  and  C_3
REMARK    3  A    between atoms: C_2  and  C_20
REMARK    4  A    between atoms: C_3  and  C_4
REMARK    5  A    between atoms: C_4  and  C_5
REMARK    6  A    between atoms: C_6  and  C_7
REMARK    7  A    between atoms: C_7  and  O_8
REMARK    8  A    between atoms: C_12  and  C_13
REMARK    9  A    between atoms: C_12  and  C_14
REMARK   10  A    between atoms: C_18  and  C_19
REMARK   11  A    between atoms: C_20  and  C_21
REMARK   12  A    between atoms: C_21  and  O_23
REMARK   13  A    between atoms: O_23  and  C_24
REMARK   14  A    between atoms: C_24  and  C_25
REMARK   15  A    between atoms: C_25  and  C_26
REMARK   16  A    between atoms: C_26  and  N_27
REMARK                            x       y       z     vdW  Elec       q    Type
REMARK                         _______ _______ _______ _____ _____    ______ ____
ROOT
ATOM      1  C   UNL     1      42.480 -20.628 -36.451  0.00  0.00    -0.046 C 
ENDROOT
BRANCH   1   2
ATOM      2  C   UNL     1      43.859 -20.620 -37.274  0.00  0.00    -0.012 C 
ATOM      3  C   UNL     1      45.010 -20.282 -36.297  0.00  0.00    -0.045 C 
ATOM      4  C   UNL     1      46.214 -20.400 -36.861  0.00  0.00    -0.082 C 
ATOM      5  C   UNL     1      46.208 -20.574 -38.335  0.00  0.00    -0.031 C 
ATOM      6  C   UNL     1      44.995 -19.760 -38.997  0.00  0.00    -0.027 C 
ATOM      7  C   UNL     1      45.609 -19.153 -40.492  0.00  0.00    -0.031 C 
ATOM      8  C   UNL     1      45.901 -17.637 -40.356  0.00  0.00    -0.060 C 
ATOM      9  C   UNL     1      46.914 -19.824 -41.001  0.00  0.00    -0.060 C 
ATOM     10  C   UNL     1      44.564 -19.319 -41.622  0.00  0.00    -0.048 C 
ATOM     11  C   UNL     1      44.001 -20.721 -41.562  0.00  0.00    -0.052 C 
ATOM     12  C   UNL     1      43.953 -21.177 -40.099  0.00  0.00    -0.047 C 
ATOM     13  C   UNL     1      43.995 -19.768 -38.967  0.00  0.00    -0.022 C 
ATOM     14  C   UNL     1      42.996 -19.776 -38.937  0.00  0.00    -0.059 C 
BRANCH   3  15
ATOM     15  C   UNL     1      44.788 -19.889 -34.860  0.00  0.00    +0.066 C 
BRANCH  15  16
ATOM     16  O   UNL     1      45.168 -20.921 -33.959  0.00  0.00    -0.391 OA
ATOM     17  H   UNL     1      46.133 -20.921 -33.855  0.00  0.00    +0.000 HD
ENDBRANCH  15  16
ENDBRANCH   3  15
ENDBRANCH   1   2
BRANCH   1  18
ATOM     18  C   UNL     1      41.629 -21.921 -36.466  0.00  0.00    -0.049 C 
BRANCH  18  20
ATOM     19  C   UNL     1      39.334 -22.912 -36.070  0.00  0.00    -0.062 C 
ATOM     20  C   UNL     1      40.110 -21.633 -36.401  0.00  0.00    -0.034 C 
BRANCH  20  21
ATOM     21  C   UNL     1      39.589 -21.039 -37.718  0.00  0.00    +0.048 C 
BRANCH  21  22
ATOM     22  C   UNL     1      39.237 -19.576 -37.576  0.00  0.00    +0.307 C 
ATOM     23  O   UNL     1      39.168 -18.798 -38.516  0.00  0.00    -0.251 OA
BRANCH  22  24
ATOM     24  O   UNL     1      39.021 -19.260 -36.267  0.00  0.00    -0.465 OA
BRANCH  24  25
ATOM     25  C   UNL     1      39.259 -17.887 -35.909  0.00  0.00    +0.094 C 
BRANCH  25  26
ATOM     26  C   UNL     1      40.544 -17.761 -35.101  0.00  0.00    -0.006 C 
BRANCH  26  27
ATOM     27  C   UNL     1      40.359 -18.239 -33.652  0.00  0.00    +0.002 C 
BRANCH  27  28
ATOM     28  N   UNL     1      40.361 -19.701 -33.566  0.00  0.00    -0.302 N 
ATOM     29  C   UNL     1      41.568 -20.214 -32.905  0.00  0.00    -0.001 C 
ATOM     30  C   UNL     1      41.185 -21.626 -32.483  0.00  0.00    -0.039 C 
ATOM     31  C   UNL     1      39.661 -21.657 -32.521  0.00  0.00    -0.039 C 
ATOM     32  C   UNL     1      39.249 -20.215 -32.763  0.00  0.00    -0.001 C 
ATOM     33  H   UNL     1      40.298 -20.008 -34.537  0.00  0.00    +0.000 HD
ENDBRANCH  27  28
ENDBRANCH  26  27
ENDBRANCH  25  26
ENDBRANCH  24  25
ENDBRANCH  22  24
ENDBRANCH  21  22
ENDBRANCH  20  21
ENDBRANCH  18  20
ENDBRANCH   1  18
TORSDOF 12
ENDMDL
MODEL 12
REMARK VINA RESULT:    -5.803     16.100     19.228
REMARK INTER + INTRA:         -12.078
REMARK INTER:                 -10.021
REMARK INTRA:                  -2.056
REMARK UNBOUND:                -2.373
REMARK  Name = cpd294.pdb
REMARK  16 active torsions:
REMARK  status: ('A' for Active; 'I' for Inactive)
REMARK    1  A    between atoms: C_1  and  C_2
REMARK    2  A    between atoms: C_2  and  C_3
REMARK    3  A    between atoms: C_2  and  C_20
REMARK    4  A    between atoms: C_3  and  C_4
REMARK    5  A    between atoms: C_4  and  C_5
REMARK    6  A    between atoms: C_6  and  C_7
REMARK    7  A    between atoms: C_7  and  O_8
REMARK    8  A    between atoms: C_12  and  C_13
REMARK    9  A    between atoms: C_12  and  C_14
REMARK   10  A    between atoms: C_18  and  C_19
REMARK   11  A    between atoms: C_20  and  C_21
REMARK   12  A    between atoms: C_21  and  O_23
REMARK   13  A    between atoms: O_23  and  C_24
REMARK   14  A    between atoms: C_24  and  C_25
REMARK   15  A    between atoms: C_25  and  C_26
REMARK   16  A    between atoms: C_26  and  N_27
REMARK                            x       y       z     vdW  Elec       q    Type
REMARK                         _______ _______ _______ _____ _____    ______ ____
ROOT
ATOM      1  C   UNL     1      41.460 -20.471 -37.688  0.00  0.00    -0.046 C 
ENDROOT
BRANCH   1   2
ATOM      2  C   UNL     1      41.976 -20.684 -39.194  0.00  0.00    -0.012 C 
ATOM      3  C   UNL     1      41.302 -21.953 -39.767  0.00  0.00    -0.045 C 
ATOM      4  C   UNL     1      41.556 -22.128 -41.066  0.00  0.00    -0.082 C 
ATOM      5  C   UNL     1      42.608 -21.245 -41.630  0.00  0.00    -0.031 C 
ATOM      6  C   UNL     1      43.745 -20.948 -40.537  0.00  0.00    -0.027 C 
ATOM      7  C   UNL     1      45.230 -20.907 -41.417  0.00  0.00    -0.031 C 
ATOM      8  C   UNL     1      46.020 -22.216 -41.161  0.00  0.00    -0.060 C 
ATOM      9  C   UNL     1      45.091 -20.752 -42.955  0.00  0.00    -0.060 C 
ATOM     10  C   UNL     1      46.118 -19.732 -40.937  0.00  0.00    -0.048 C 
ATOM     11  C   UNL     1      45.269 -18.485 -40.849  0.00  0.00    -0.052 C 
ATOM     12  C   UNL     1      43.846 -18.878 -40.436  0.00  0.00    -0.047 C 
ATOM     13  C   UNL     1      43.814 -20.503 -39.644  0.00  0.00    -0.022 C 
ATOM     14  C   UNL     1      43.883 -20.057 -38.752  0.00  0.00    -0.059 C 
BRANCH   3  15
ATOM     15  C   UNL     1      40.436 -22.873 -38.948  0.00  0.00    +0.066 C 
BRANCH  15  16
ATOM     16  O   UNL     1      40.161 -24.092 -39.627  0.00  0.00    -0.391 OA
ATOM     17  H   UNL     1      39.738 -23.900 -40.478  0.00  0.00    +0.000 HD
ENDBRANCH  15  16
ENDBRANCH   3  15
ENDBRANCH   1   2
BRANCH   1  18
ATOM     18  C   UNL     1      40.355 -19.415 -37.439  0.00  0.00    -0.049 C 
BRANCH  18  20
ATOM     19  C   UNL     1      38.759 -18.877 -35.550  0.00  0.00    -0.062 C 
ATOM     20  C   UNL     1      40.232 -19.028 -35.945  0.00  0.00    -0.034 C 
BRANCH  20  21
ATOM     21  C   UNL     1      40.987 -17.728 -35.633  0.00  0.00    +0.048 C 
BRANCH  21  22
ATOM     22  C   UNL     1      42.297 -17.993 -34.928  0.00  0.00    +0.307 C 
ATOM     23  O   UNL     1      43.338 -18.269 -35.507  0.00  0.00    -0.251 OA
BRANCH  22  24
ATOM     24  O   UNL     1      42.144 -17.888 -33.577  0.00  0.00    -0.465 OA
BRANCH  24  25
ATOM     25  C   UNL     1      42.543 -19.040 -32.813  0.00  0.00    +0.094 C 
BRANCH  25  26
ATOM     26  C   UNL     1      41.359 -19.975 -32.599  0.00  0.00    -0.006 C 
BRANCH  26  27
ATOM     27  C   UNL     1      41.634 -21.382 -33.149  0.00  0.00    +0.002 C 
BRANCH  27  28
ATOM     28  N   UNL     1      40.411 -22.185 -33.202  0.00  0.00    -0.302 N 
ATOM     29  C   UNL     1      39.235 -21.433 -32.744  0.00  0.00    -0.001 C 
ATOM     30  C   UNL     1      38.056 -22.214 -33.307  0.00  0.00    -0.039 C 
ATOM     31  C   UNL     1      38.641 -23.080 -34.416  0.00  0.00    -0.039 C 
ATOM     32  C   UNL     1      40.076 -22.605 -34.564  0.00  0.00    -0.001 C 
ATOM     33  H   UNL     1      40.611 -22.985 -32.601  0.00  0.00    +0.000 HD
ENDBRANCH  27  28
ENDBRANCH  26  27
ENDBRANCH  25  26
ENDBRANCH  24  25
ENDBRANCH  22  24
ENDBRANCH  21  22
ENDBRANCH  20  21
ENDBRANCH  18  20
ENDBRANCH   1  18
TORSDOF 12
ENDMDL
MODEL 13
REMARK VINA RESULT:    -5.803     17.700     20.617
REMARK INTER + INTRA:         -12.077
REMARK INTER:                  -8.831
REMARK INTRA:                  -3.246
REMARK UNBOUND:                -2.373
REMARK  Name = cpd294.pdb
REMARK  16 active torsions:
REMARK  status: ('A' for Active; 'I' for Inactive)
REMARK    1  A    between atoms: C_1  and  C_2
REMARK    2  A    between atoms: C_2  and  C_3
REMARK    3  A    between atoms: C_2  and  C_20
REMARK    4  A    between atoms: C_3  and  C_4
REMARK    5  A    between atoms: C_4  and  C_5
REMARK    6  A    between atoms: C_6  and  C_7
REMARK    7  A    between atoms: C_7  and  O_8
REMARK    8  A    between atoms: C_12  and  C_13
REMARK    9  A    between atoms: C_12  and  C_14
REMARK   10  A    between atoms: C_18  and  C_19
REMARK   11  A    between atoms: C_20  and  C_21
REMARK   12  A    between atoms: C_21  and  O_23
REMARK   13  A    between atoms: O_23  and  C_24
REMARK   14  A    between atoms: C_24  and  C_25
REMARK   15  A    between atoms: C_25  and  C_26
REMARK   16  A    between atoms: C_26  and  N_27
REMARK                            x       y       z     vdW  Elec       q    Type
REMARK                         _______ _______ _______ _____ _____    ______ ____
ROOT
ATOM      1  C   UNL     1      45.171 -16.739 -39.159  0.00  0.00    -0.046 C 
ENDROOT
BRANCH   1   2
ATOM      2  C   UNL     1      45.537 -18.301 -39.084  0.00  0.00    -0.012 C 
ATOM      3  C   UNL     1      46.589 -18.503 -37.968  0.00  0.00    -0.045 C 
ATOM      4  C   UNL     1      46.844 -19.792 -37.731  0.00  0.00    -0.082 C 
ATOM      5  C   UNL     1      46.282 -20.742 -38.724  0.00  0.00    -0.031 C 
ATOM      6  C   UNL     1      46.283 -20.094 -40.192  0.00  0.00    -0.027 C 
ATOM      7  C   UNL     1      46.652 -21.393 -41.268  0.00  0.00    -0.031 C 
ATOM      8  C   UNL     1      48.120 -21.266 -41.749  0.00  0.00    -0.060 C 
ATOM      9  C   UNL     1      46.489 -22.819 -40.675  0.00  0.00    -0.060 C 
ATOM     10  C   UNL     1      45.749 -21.336 -42.525  0.00  0.00    -0.048 C 
ATOM     11  C   UNL     1      44.319 -21.115 -42.087  0.00  0.00    -0.052 C 
ATOM     12  C   UNL     1      44.313 -20.241 -40.828  0.00  0.00    -0.047 C 
ATOM     13  C   UNL     1      45.858 -19.318 -40.657  0.00  0.00    -0.022 C 
ATOM     14  C   UNL     1      45.433 -18.541 -41.123  0.00  0.00    -0.059 C 
BRANCH   3  15
ATOM     15  C   UNL     1      47.232 -17.366 -37.220  0.00  0.00    +0.066 C 
BRANCH  15  16
ATOM     16  O   UNL     1      47.150 -17.540 -35.811  0.00  0.00    -0.391 OA
ATOM     17  H   UNL     1      47.879 -17.064 -35.383  0.00  0.00    +0.000 HD
ENDBRANCH  15  16
ENDBRANCH   3  15
ENDBRANCH   1   2
BRANCH   1  18
ATOM     18  C   UNL     1      43.827 -16.275 -38.547  0.00  0.00    -0.049 C 
BRANCH  18  20
ATOM     19  C   UNL     1      41.648 -17.390 -39.191  0.00  0.00    -0.062 C 
ATOM     20  C   UNL     1      42.866 -17.454 -38.263  0.00  0.00    -0.034 C 
BRANCH  20  21
ATOM     21  C   UNL     1      42.400 -17.467 -36.800  0.00  0.00    +0.048 C 
BRANCH  21  22
ATOM     22  C   UNL     1      43.199 -18.437 -35.962  0.00  0.00    +0.307 C 
ATOM     23  O   UNL     1      44.275 -18.167 -35.446  0.00  0.00    -0.251 OA
BRANCH  22  24
ATOM     24  O   UNL     1      42.559 -19.638 -35.879  0.00  0.00    -0.465 OA
BRANCH  24  25
ATOM     25  C   UNL     1      43.187 -20.730 -36.574  0.00  0.00    +0.094 C 
BRANCH  25  26
ATOM     26  C   UNL     1      42.354 -21.144 -37.781  0.00  0.00    -0.006 C 
BRANCH  26  27
ATOM     27  C   UNL     1      40.868 -20.802 -37.595  0.00  0.00    +0.002 C 
BRANCH  27  28
ATOM     28  N   UNL     1      40.300 -21.493 -36.436  0.00  0.00    -0.302 N 
ATOM     29  C   UNL     1      39.227 -20.717 -35.800  0.00  0.00    -0.001 C 
ATOM     30  C   UNL     1      38.467 -21.746 -34.974  0.00  0.00    -0.039 C 
ATOM     31  C   UNL     1      38.870 -23.098 -35.550  0.00  0.00    -0.039 C 
ATOM     32  C   UNL     1      39.674 -22.767 -36.795  0.00  0.00    -0.001 C 
ATOM     33  H   UNL     1      41.095 -21.628 -35.811  0.00  0.00    +0.000 HD
ENDBRANCH  27  28
ENDBRANCH  26  27
ENDBRANCH  25  26
ENDBRANCH  24  25
ENDBRANCH  22  24
ENDBRANCH  21  22
ENDBRANCH  20  21
ENDBRANCH  18  20
ENDBRANCH   1  18
TORSDOF 12
ENDMDL
MODEL 14
REMARK VINA RESULT:    -5.784     15.602     18.771
REMARK INTER + INTRA:         -12.046
REMARK INTER:                 -10.146
REMARK INTRA:                  -1.899
REMARK UNBOUND:                -2.373
REMARK  Name = cpd294.pdb
REMARK  16 active torsions:
REMARK  status: ('A' for Active; 'I' for Inactive)
REMARK    1  A    between atoms: C_1  and  C_2
REMARK    2  A    between atoms: C_2  and  C_3
REMARK    3  A    between atoms: C_2  and  C_20
REMARK    4  A    between atoms: C_3  and  C_4
REMARK    5  A    between atoms: C_4  and  C_5
REMARK    6  A    between atoms: C_6  and  C_7
REMARK    7  A    between atoms: C_7  and  O_8
REMARK    8  A    between atoms: C_12  and  C_13
REMARK    9  A    between atoms: C_12  and  C_14
REMARK   10  A    between atoms: C_18  and  C_19
REMARK   11  A    between atoms: C_20  and  C_21
REMARK   12  A    between atoms: C_21  and  O_23
REMARK   13  A    between atoms: O_23  and  C_24
REMARK   14  A    between atoms: C_24  and  C_25
REMARK   15  A    between atoms: C_25  and  C_26
REMARK   16  A    between atoms: C_26  and  N_27
REMARK                            x       y       z     vdW  Elec       q    Type
REMARK                         _______ _______ _______ _____ _____    ______ ____
ROOT
ATOM      1  C   UNL     1      42.225 -21.134 -37.199  0.00  0.00    -0.046 C 
ENDROOT
BRANCH   1   2
ATOM      2  C   UNL     1      42.482 -20.981 -38.778  0.00  0.00    -0.012 C 
ATOM      3  C   UNL     1      41.575 -21.991 -39.521  0.00  0.00    -0.045 C 
ATOM      4  C   UNL     1      41.610 -21.834 -40.846  0.00  0.00    -0.082 C 
ATOM      5  C   UNL     1      42.670 -20.924 -41.348  0.00  0.00    -0.031 C 
ATOM      6  C   UNL     1      43.984 -21.026 -40.433  0.00  0.00    -0.027 C 
ATOM      7  C   UNL     1      45.316 -20.877 -41.522  0.00  0.00    -0.031 C 
ATOM      8  C   UNL     1      45.963 -22.267 -41.743  0.00  0.00    -0.060 C 
ATOM      9  C   UNL     1      44.972 -20.306 -42.925  0.00  0.00    -0.060 C 
ATOM     10  C   UNL     1      46.407 -19.951 -40.929  0.00  0.00    -0.048 C 
ATOM     11  C   UNL     1      45.745 -18.705 -40.386  0.00  0.00    -0.052 C 
ATOM     12  C   UNL     1      44.361 -19.073 -39.840  0.00  0.00    -0.047 C 
ATOM     13  C   UNL     1      44.241 -20.841 -39.484  0.00  0.00    -0.022 C 
ATOM     14  C   UNL     1      44.497 -20.657 -38.535  0.00  0.00    -0.059 C 
BRANCH   3  15
ATOM     15  C   UNL     1      40.730 -23.020 -38.817  0.00  0.00    +0.066 C 
BRANCH  15  16
ATOM     16  O   UNL     1      40.159 -23.953 -39.725  0.00  0.00    -0.391 OA
ATOM     17  H   UNL     1      40.638 -23.918 -40.569  0.00  0.00    +0.000 HD
ENDBRANCH  15  16
ENDBRANCH   3  15
ENDBRANCH   1   2
BRANCH   1  18
ATOM     18  C   UNL     1      41.129 -20.255 -36.551  0.00  0.00    -0.049 C 
BRANCH  18  20
ATOM     19  C   UNL     1      41.346 -19.931 -34.050  0.00  0.00    -0.062 C 
ATOM     20  C   UNL     1      40.701 -20.773 -35.157  0.00  0.00    -0.034 C 
BRANCH  20  21
ATOM     21  C   UNL     1      41.071 -22.251 -34.963  0.00  0.00    +0.048 C 
BRANCH  21  22
ATOM     22  C   UNL     1      39.847 -23.134 -34.893  0.00  0.00    +0.307 C 
ATOM     23  O   UNL     1      39.429 -23.795 -35.833  0.00  0.00    -0.251 OA
BRANCH  22  24
ATOM     24  O   UNL     1      39.285 -23.075 -33.652  0.00  0.00    -0.465 OA
BRANCH  24  25
ATOM     25  C   UNL     1      37.880 -22.767 -33.617  0.00  0.00    +0.094 C 
BRANCH  25  26
ATOM     26  C   UNL     1      37.646 -21.418 -32.948  0.00  0.00    -0.006 C 
BRANCH  26  27
ATOM     27  C   UNL     1      36.789 -20.488 -33.819  0.00  0.00    +0.002 C 
BRANCH  27  28
ATOM     28  N   UNL     1      37.168 -19.085 -33.639  0.00  0.00    -0.302 N 
ATOM     29  C   UNL     1      38.124 -18.907 -32.538  0.00  0.00    -0.001 C 
ATOM     30  C   UNL     1      38.747 -17.544 -32.807  0.00  0.00    -0.039 C 
ATOM     31  C   UNL     1      38.444 -17.247 -34.271  0.00  0.00    -0.039 C 
ATOM     32  C   UNL     1      37.846 -18.533 -34.813  0.00  0.00    -0.001 C 
ATOM     33  H   UNL     1      36.284 -18.609 -33.457  0.00  0.00    +0.000 HD
ENDBRANCH  27  28
ENDBRANCH  26  27
ENDBRANCH  25  26
ENDBRANCH  24  25
ENDBRANCH  22  24
ENDBRANCH  21  22
ENDBRANCH  20  21
ENDBRANCH  18  20
ENDBRANCH   1  18
TORSDOF 12
ENDMDL
MODEL 15
REMARK VINA RESULT:    -5.738     18.400     21.333
REMARK INTER + INTRA:         -11.968
REMARK INTER:                  -8.713
REMARK INTRA:                  -3.255
REMARK UNBOUND:                -2.373
REMARK  Name = cpd294.pdb
REMARK  16 active torsions:
REMARK  status: ('A' for Active; 'I' for Inactive)
REMARK    1  A    between atoms: C_1  and  C_2
REMARK    2  A    between atoms: C_2  and  C_3
REMARK    3  A    between atoms: C_2  and  C_20
REMARK    4  A    between atoms: C_3  and  C_4
REMARK    5  A    between atoms: C_4  and  C_5
REMARK    6  A    between atoms: C_6  and  C_7
REMARK    7  A    between atoms: C_7  and  O_8
REMARK    8  A    between atoms: C_12  and  C_13
REMARK    9  A    between atoms: C_12  and  C_14
REMARK   10  A    between atoms: C_18  and  C_19
REMARK   11  A    between atoms: C_20  and  C_21
REMARK   12  A    between atoms: C_21  and  O_23
REMARK   13  A    between atoms: O_23  and  C_24
REMARK   14  A    between atoms: C_24  and  C_25
REMARK   15  A    between atoms: C_25  and  C_26
REMARK   16  A    between atoms: C_26  and  N_27
REMARK                            x       y       z     vdW  Elec       q    Type
REMARK                         _______ _______ _______ _____ _____    ______ ____
ROOT
ATOM      1  C   UNL     1      47.136 -16.850 -38.028  0.00  0.00    -0.046 C 
ENDROOT
BRANCH   1   2
ATOM      2  C   UNL     1      46.435 -18.251 -38.380  0.00  0.00    -0.012 C 
ATOM      3  C   UNL     1      46.902 -19.305 -37.348  0.00  0.00    -0.045 C 
ATOM      4  C   UNL     1      46.254 -20.466 -37.471  0.00  0.00    -0.082 C 
ATOM      5  C   UNL     1      45.425 -20.602 -38.694  0.00  0.00    -0.031 C 
ATOM      6  C   UNL     1      46.102 -19.830 -39.927  0.00  0.00    -0.027 C 
ATOM      7  C   UNL     1      45.783 -20.809 -41.314  0.00  0.00    -0.031 C 
ATOM      8  C   UNL     1      47.072 -21.567 -41.721  0.00  0.00    -0.060 C 
ATOM      9  C   UNL     1      44.664 -21.872 -41.139  0.00  0.00    -0.060 C 
ATOM     10  C   UNL     1      45.366 -19.930 -42.520  0.00  0.00    -0.048 C 
ATOM     11  C   UNL     1      44.330 -18.931 -42.058  0.00  0.00    -0.052 C 
ATOM     12  C   UNL     1      44.629 -18.536 -40.607  0.00  0.00    -0.047 C 
ATOM     13  C   UNL     1      46.346 -18.891 -40.167  0.00  0.00    -0.022 C 
ATOM     14  C   UNL     1      46.591 -17.951 -40.407  0.00  0.00    -0.059 C 
BRANCH   3  15
ATOM     15  C   UNL     1      47.955 -19.034 -36.307  0.00  0.00    +0.066 C 
BRANCH  15  16
ATOM     16  O   UNL     1      47.668 -19.686 -35.076  0.00  0.00    -0.391 OA
ATOM     17  H   UNL     1      48.157 -20.524 -35.032  0.00  0.00    +0.000 HD
ENDBRANCH  15  16
ENDBRANCH   3  15
ENDBRANCH   1   2
BRANCH   1  18
ATOM     18  C   UNL     1      46.321 -15.808 -37.224  0.00  0.00    -0.049 C 
BRANCH  18  20
ATOM     19  C   UNL     1      44.019 -15.148 -38.045  0.00  0.00    -0.062 C 
ATOM     20  C   UNL     1      44.810 -16.140 -37.185  0.00  0.00    -0.034 C 
BRANCH  20  21
ATOM     21  C   UNL     1      44.264 -16.128 -35.750  0.00  0.00    +0.048 C 
BRANCH  21  22
ATOM     22  C   UNL     1      44.558 -17.421 -35.024  0.00  0.00    +0.307 C 
ATOM     23  O   UNL     1      45.265 -17.498 -34.029  0.00  0.00    -0.251 OA
BRANCH  22  24
ATOM     24  O   UNL     1      43.938 -18.468 -35.639  0.00  0.00    -0.465 OA
BRANCH  24  25
ATOM     25  C   UNL     1      43.885 -19.692 -34.886  0.00  0.00    +0.094 C 
BRANCH  25  26
ATOM     26  C   UNL     1      43.023 -20.723 -35.603  0.00  0.00    -0.006 C 
BRANCH  26  27
ATOM     27  C   UNL     1      41.688 -20.126 -36.074  0.00  0.00    +0.002 C 
BRANCH  27  28
ATOM     28  N   UNL     1      41.289 -20.666 -37.376  0.00  0.00    -0.302 N 
ATOM     29  C   UNL     1      41.905 -19.933 -38.490  0.00  0.00    -0.001 C 
ATOM     30  C   UNL     1      41.783 -20.887 -39.671  0.00  0.00    -0.039 C 
ATOM     31  C   UNL     1      41.528 -22.257 -39.054  0.00  0.00    -0.039 C 
ATOM     32  C   UNL     1      41.718 -22.053 -37.561  0.00  0.00    -0.001 C 
ATOM     33  H   UNL     1      40.273 -20.583 -37.380  0.00  0.00    +0.000 HD
ENDBRANCH  27  28
ENDBRANCH  26  27
ENDBRANCH  25  26
ENDBRANCH  24  25
ENDBRANCH  22  24
ENDBRANCH  21  22
ENDBRANCH  20  21
ENDBRANCH  18  20
ENDBRANCH   1  18
TORSDOF 12
ENDMDL
MODEL 16
REMARK VINA RESULT:    -5.673     16.489     19.613
REMARK INTER + INTRA:         -11.859
REMARK INTER:                 -10.173
REMARK INTRA:                  -1.687
REMARK UNBOUND:                -2.373
REMARK  Name = cpd294.pdb
REMARK  16 active torsions:
REMARK  status: ('A' for Active; 'I' for Inactive)
REMARK    1  A    between atoms: C_1  and  C_2
REMARK    2  A    between atoms: C_2  and  C_3
REMARK    3  A    between atoms: C_2  and  C_20
REMARK    4  A    between atoms: C_3  and  C_4
REMARK    5  A    between atoms: C_4  and  C_5
REMARK    6  A    between atoms: C_6  and  C_7
REMARK    7  A    between atoms: C_7  and  O_8
REMARK    8  A    between atoms: C_12  and  C_13
REMARK    9  A    between atoms: C_12  and  C_14
REMARK   10  A    between atoms: C_18  and  C_19
REMARK   11  A    between atoms: C_20  and  C_21
REMARK   12  A    between atoms: C_21  and  O_23
REMARK   13  A    between atoms: O_23  and  C_24
REMARK   14  A    between atoms: C_24  and  C_25
REMARK   15  A    between atoms: C_25  and  C_26
REMARK   16  A    between atoms: C_26  and  N_27
REMARK                            x       y       z     vdW  Elec       q    Type
REMARK                         _______ _______ _______ _____ _____    ______ ____
ROOT
ATOM      1  C   UNL     1      43.653 -19.373 -36.900  0.00  0.00    -0.046 C 
ENDROOT
BRANCH   1   2
ATOM      2  C   UNL     1      43.588 -20.079 -38.342  0.00  0.00    -0.012 C 
ATOM      3  C   UNL     1      42.604 -21.271 -38.258  0.00  0.00    -0.045 C 
ATOM      4  C   UNL     1      42.371 -21.828 -39.449  0.00  0.00    -0.082 C 
ATOM      5  C   UNL     1      43.265 -21.379 -40.545  0.00  0.00    -0.031 C 
ATOM      6  C   UNL     1      44.737 -21.069 -39.985  0.00  0.00    -0.027 C 
ATOM      7  C   UNL     1      45.820 -21.590 -41.224  0.00  0.00    -0.031 C 
ATOM      8  C   UNL     1      46.480 -22.929 -40.808  0.00  0.00    -0.060 C 
ATOM      9  C   UNL     1      45.180 -21.812 -42.621  0.00  0.00    -0.060 C 
ATOM     10  C   UNL     1      46.959 -20.559 -41.425  0.00  0.00    -0.048 C 
ATOM     11  C   UNL     1      46.355 -19.174 -41.495  0.00  0.00    -0.052 C 
ATOM     12  C   UNL     1      45.124 -19.120 -40.582  0.00  0.00    -0.047 C 
ATOM     13  C   UNL     1      45.165 -20.434 -39.341  0.00  0.00    -0.022 C 
ATOM     14  C   UNL     1      45.592 -19.799 -38.698  0.00  0.00    -0.059 C 
BRANCH   3  15
ATOM     15  C   UNL     1      41.966 -21.730 -36.974  0.00  0.00    +0.066 C 
BRANCH  15  16
ATOM     16  O   UNL     1      41.148 -22.878 -37.165  0.00  0.00    -0.391 OA
ATOM     17  H   UNL     1      41.428 -23.344 -37.969  0.00  0.00    +0.000 HD
ENDBRANCH  15  16
ENDBRANCH   3  15
ENDBRANCH   1   2
BRANCH   1  18
ATOM     18  C   UNL     1      43.218 -17.891 -36.795  0.00  0.00    -0.049 C 
BRANCH  18  20
ATOM     19  C   UNL     1      44.311 -15.915 -35.650  0.00  0.00    -0.062 C 
ATOM     20  C   UNL     1      43.601 -17.257 -35.436  0.00  0.00    -0.034 C 
BRANCH  20  21
ATOM     21  C   UNL     1      44.498 -18.189 -34.608  0.00  0.00    +0.048 C 
BRANCH  21  22
ATOM     22  C   UNL     1      44.133 -18.167 -33.142  0.00  0.00    +0.307 C 
ATOM     23  O   UNL     1      44.560 -17.343 -32.346  0.00  0.00    -0.251 OA
BRANCH  22  24
ATOM     24  O   UNL     1      43.280 -19.188 -32.845  0.00  0.00    -0.465 OA
BRANCH  24  25
ATOM     25  C   UNL     1      41.887 -18.838 -32.771  0.00  0.00    +0.094 C 
BRANCH  25  26
ATOM     26  C   UNL     1      41.054 -19.777 -33.634  0.00  0.00    -0.006 C 
BRANCH  26  27
ATOM     27  C   UNL     1      41.357 -21.252 -33.332  0.00  0.00    +0.002 C 
BRANCH  27  28
ATOM     28  N   UNL     1      40.134 -22.000 -33.030  0.00  0.00    -0.302 N 
ATOM     29  C   UNL     1      38.932 -21.164 -33.145  0.00  0.00    -0.001 C 
ATOM     30  C   UNL     1      37.796 -22.168 -33.279  0.00  0.00    -0.039 C 
ATOM     31  C   UNL     1      38.463 -23.476 -33.689  0.00  0.00    -0.039 C 
ATOM     32  C   UNL     1      39.910 -23.105 -33.964  0.00  0.00    -0.001 C 
ATOM     33  H   UNL     1      40.276 -22.336 -32.078  0.00  0.00    +0.000 HD
ENDBRANCH  27  28
ENDBRANCH  26  27
ENDBRANCH  25  26
ENDBRANCH  24  25
ENDBRANCH  22  24
ENDBRANCH  21  22
ENDBRANCH  20  21
ENDBRANCH  18  20
ENDBRANCH   1  18
TORSDOF 12
ENDMDL
MODEL 17
REMARK VINA RESULT:    -5.628     16.664     19.643
REMARK INTER + INTRA:         -11.785
REMARK INTER:                  -9.011
REMARK INTRA:                  -2.774
REMARK UNBOUND:                -2.373
REMARK  Name = cpd294.pdb
REMARK  16 active torsions:
REMARK  status: ('A' for Active; 'I' for Inactive)
REMARK    1  A    between atoms: C_1  and  C_2
REMARK    2  A    between atoms: C_2  and  C_3
REMARK    3  A    between atoms: C_2  and  C_20
REMARK    4  A    between atoms: C_3  and  C_4
REMARK    5  A    between atoms: C_4  and  C_5
REMARK    6  A    between atoms: C_6  and  C_7
REMARK    7  A    between atoms: C_7  and  O_8
REMARK    8  A    between atoms: C_12  and  C_13
REMARK    9  A    between atoms: C_12  and  C_14
REMARK   10  A    between atoms: C_18  and  C_19
REMARK   11  A    between atoms: C_20  and  C_21
REMARK   12  A    between atoms: C_21  and  O_23
REMARK   13  A    between atoms: O_23  and  C_24
REMARK   14  A    between atoms: C_24  and  C_25
REMARK   15  A    between atoms: C_25  and  C_26
REMARK   16  A    between atoms: C_26  and  N_27
REMARK                            x       y       z     vdW  Elec       q    Type
REMARK                         _______ _______ _______ _____ _____    ______ ____
ROOT
ATOM      1  C   UNL     1      43.562 -18.045 -37.457  0.00  0.00    -0.046 C 
ENDROOT
BRANCH   1   2
ATOM      2  C   UNL     1      44.412 -19.251 -38.090  0.00  0.00    -0.012 C 
ATOM      3  C   UNL     1      45.686 -19.452 -37.236  0.00  0.00    -0.045 C 
ATOM      4  C   UNL     1      46.383 -20.532 -37.598  0.00  0.00    -0.082 C 
ATOM      5  C   UNL     1      45.955 -21.164 -38.871  0.00  0.00    -0.031 C 
ATOM      6  C   UNL     1      45.437 -20.054 -39.908  0.00  0.00    -0.027 C 
ATOM      7  C   UNL     1      45.963 -20.595 -41.462  0.00  0.00    -0.031 C 
ATOM      8  C   UNL     1      47.176 -19.748 -41.922  0.00  0.00    -0.060 C 
ATOM      9  C   UNL     1      46.391 -22.085 -41.541  0.00  0.00    -0.060 C 
ATOM     10  C   UNL     1      44.843 -20.406 -42.515  0.00  0.00    -0.048 C 
ATOM     11  C   UNL     1      43.544 -20.928 -41.944  0.00  0.00    -0.052 C 
ATOM     12  C   UNL     1      43.528 -20.678 -40.432  0.00  0.00    -0.047 C 
ATOM     13  C   UNL     1      44.699 -19.382 -39.965  0.00  0.00    -0.022 C 
ATOM     14  C   UNL     1      43.960 -18.710 -40.021  0.00  0.00    -0.059 C 
BRANCH   3  15
ATOM     15  C   UNL     1      46.078 -18.538 -36.105  0.00  0.00    +0.066 C 
BRANCH  15  16
ATOM     16  O   UNL     1      46.068 -19.208 -34.850  0.00  0.00    -0.391 OA
ATOM     17  H   UNL     1      45.693 -20.096 -34.960  0.00  0.00    +0.000 HD
ENDBRANCH  15  16
ENDBRANCH   3  15
ENDBRANCH   1   2
BRANCH   1  18
ATOM     18  C   UNL     1      42.186 -18.375 -36.827  0.00  0.00    -0.049 C 
BRANCH  18  20
ATOM     19  C   UNL     1      43.096 -17.052 -34.870  0.00  0.00    -0.062 C 
ATOM     20  C   UNL     1      42.185 -18.211 -35.288  0.00  0.00    -0.034 C 
BRANCH  20  21
ATOM     21  C   UNL     1      42.631 -19.499 -34.581  0.00  0.00    +0.048 C 
BRANCH  21  22
ATOM     22  C   UNL     1      41.731 -19.844 -33.417  0.00  0.00    +0.307 C 
ATOM     23  O   UNL     1      41.028 -19.030 -32.836  0.00  0.00    -0.251 OA
BRANCH  22  24
ATOM     24  O   UNL     1      41.827 -21.170 -33.114  0.00  0.00    -0.465 OA
BRANCH  24  25
ATOM     25  C   UNL     1      40.613 -21.797 -32.665  0.00  0.00    +0.094 C 
BRANCH  25  26
ATOM     26  C   UNL     1      40.213 -22.925 -33.608  0.00  0.00    -0.006 C 
BRANCH  26  27
ATOM     27  C   UNL     1      39.308 -22.427 -34.745  0.00  0.00    +0.002 C 
BRANCH  27  28
ATOM     28  N   UNL     1      40.081 -21.741 -35.783  0.00  0.00    -0.302 N 
ATOM     29  C   UNL     1      41.202 -22.557 -36.268  0.00  0.00    -0.001 C 
ATOM     30  C   UNL     1      41.563 -21.928 -37.607  0.00  0.00    -0.039 C 
ATOM     31  C   UNL     1      40.347 -21.099 -38.002  0.00  0.00    -0.039 C 
ATOM     32  C   UNL     1      39.284 -21.456 -36.977  0.00  0.00    -0.001 C 
ATOM     33  H   UNL     1      40.401 -20.884 -35.331  0.00  0.00    +0.000 HD
ENDBRANCH  27  28
ENDBRANCH  26  27
ENDBRANCH  25  26
ENDBRANCH  24  25
ENDBRANCH  22  24
ENDBRANCH  21  22
ENDBRANCH  20  21
ENDBRANCH  18  20
ENDBRANCH   1  18
TORSDOF 12
ENDMDL
MODEL 18
REMARK VINA RESULT:    -5.416     18.241     21.552
REMARK INTER + INTRA:         -11.429
REMARK INTER:                  -8.828
REMARK INTRA:                  -2.602
REMARK UNBOUND:                -2.373
REMARK  Name = cpd294.pdb
REMARK  16 active torsions:
REMARK  status: ('A' for Active; 'I' for Inactive)
REMARK    1  A    between atoms: C_1  and  C_2
REMARK    2  A    between atoms: C_2  and  C_3
REMARK    3  A    between atoms: C_2  and  C_20
REMARK    4  A    between atoms: C_3  and  C_4
REMARK    5  A    between atoms: C_4  and  C_5
REMARK    6  A    between atoms: C_6  and  C_7
REMARK    7  A    between atoms: C_7  and  O_8
REMARK    8  A    between atoms: C_12  and  C_13
REMARK    9  A    between atoms: C_12  and  C_14
REMARK   10  A    between atoms: C_18  and  C_19
REMARK   11  A    between atoms: C_20  and  C_21
REMARK   12  A    between atoms: C_21  and  O_23
REMARK   13  A    between atoms: O_23  and  C_24
REMARK   14  A    between atoms: C_24  and  C_25
REMARK   15  A    between atoms: C_25  and  C_26
REMARK   16  A    between atoms: C_26  and  N_27
REMARK                            x       y       z     vdW  Elec       q    Type
REMARK                         _______ _______ _______ _____ _____    ______ ____
ROOT
ATOM      1  C   UNL     1      44.109 -21.123 -39.199  0.00  0.00    -0.046 C 
ENDROOT
BRANCH   1   2
ATOM      2  C   UNL     1      45.004 -19.982 -39.888  0.00  0.00    -0.012 C 
ATOM      3  C   UNL     1      46.368 -20.599 -40.278  0.00  0.00    -0.045 C 
ATOM      4  C   UNL     1      47.124 -19.764 -40.993  0.00  0.00    -0.082 C 
ATOM      5  C   UNL     1      46.637 -18.363 -41.055  0.00  0.00    -0.031 C 
ATOM      6  C   UNL     1      45.919 -17.952 -39.679  0.00  0.00    -0.027 C 
ATOM      7  C   UNL     1      46.341 -16.299 -39.416  0.00  0.00    -0.031 C 
ATOM      8  C   UNL     1      47.418 -16.209 -38.306  0.00  0.00    -0.060 C 
ATOM      9  C   UNL     1      46.898 -15.546 -40.654  0.00  0.00    -0.060 C 
ATOM     10  C   UNL     1      45.112 -15.491 -38.930  0.00  0.00    -0.048 C 
ATOM     11  C   UNL     1      43.929 -15.828 -39.810  0.00  0.00    -0.052 C 
ATOM     12  C   UNL     1      44.036 -17.292 -40.249  0.00  0.00    -0.047 C 
ATOM     13  C   UNL     1      45.119 -18.234 -39.150  0.00  0.00    -0.022 C 
ATOM     14  C   UNL     1      44.319 -18.517 -38.621  0.00  0.00    -0.059 C 
BRANCH   3  15
ATOM     15  C   UNL     1      46.779 -22.000 -39.909  0.00  0.00    +0.066 C 
BRANCH  15  16
ATOM     16  O   UNL     1      47.774 -22.513 -40.786  0.00  0.00    -0.391 OA
ATOM     17  H   UNL     1      48.243 -21.777 -41.209  0.00  0.00    +0.000 HD
ENDBRANCH  15  16
ENDBRANCH   3  15
ENDBRANCH   1   2
BRANCH   1  18
ATOM     18  C   UNL     1      42.709 -21.411 -39.794  0.00  0.00    -0.049 C 
BRANCH  18  20
ATOM     19  C   UNL     1      40.694 -20.109 -38.987  0.00  0.00    -0.062 C 
ATOM     20  C   UNL     1      41.585 -21.330 -38.733  0.00  0.00    -0.034 C 
BRANCH  20  21
ATOM     21  C   UNL     1      42.155 -21.266 -37.309  0.00  0.00    +0.048 C 
BRANCH  21  22
ATOM     22  C   UNL     1      41.350 -22.103 -36.342  0.00  0.00    +0.307 C 
ATOM     23  O   UNL     1      40.868 -23.192 -36.621  0.00  0.00    -0.251 OA
BRANCH  22  24
ATOM     24  O   UNL     1      41.235 -21.470 -35.140  0.00  0.00    -0.465 OA
BRANCH  24  25
ATOM     25  C   UNL     1      41.352 -20.037 -35.175  0.00  0.00    +0.094 C 
BRANCH  25  26
ATOM     26  C   UNL     1      42.265 -19.548 -34.057  0.00  0.00    -0.006 C 
BRANCH  26  27
ATOM     27  C   UNL     1      43.695 -20.089 -34.208  0.00  0.00    +0.002 C 
BRANCH  27  28
ATOM     28  N   UNL     1      44.675 -19.003 -34.263  0.00  0.00    -0.302 N 
ATOM     29  C   UNL     1      45.892 -19.391 -34.989  0.00  0.00    -0.001 C 
ATOM     30  C   UNL     1      46.543 -18.064 -35.354  0.00  0.00    -0.039 C 
ATOM     31  C   UNL     1      45.437 -17.024 -35.217  0.00  0.00    -0.039 C 
ATOM     32  C   UNL     1      44.172 -17.831 -34.980  0.00  0.00    -0.001 C 
ATOM     33  H   UNL     1      44.867 -18.791 -33.284  0.00  0.00    +0.000 HD
ENDBRANCH  27  28
ENDBRANCH  26  27
ENDBRANCH  25  26
ENDBRANCH  24  25
ENDBRANCH  22  24
ENDBRANCH  21  22
ENDBRANCH  20  21
ENDBRANCH  18  20
ENDBRANCH   1  18
TORSDOF 12
ENDMDL
MODEL 19
REMARK VINA RESULT:    -5.350     17.289     20.333
REMARK INTER + INTRA:         -11.320
REMARK INTER:                  -8.344
REMARK INTRA:                  -2.976
REMARK UNBOUND:                -2.373
REMARK  Name = cpd294.pdb
REMARK  16 active torsions:
REMARK  status: ('A' for Active; 'I' for Inactive)
REMARK    1  A    between atoms: C_1  and  C_2
REMARK    2  A    between atoms: C_2  and  C_3
REMARK    3  A    between atoms: C_2  and  C_20
REMARK    4  A    between atoms: C_3  and  C_4
REMARK    5  A    between atoms: C_4  and  C_5
REMARK    6  A    between atoms: C_6  and  C_7
REMARK    7  A    between atoms: C_7  and  O_8
REMARK    8  A    between atoms: C_12  and  C_13
REMARK    9  A    between atoms: C_12  and  C_14
REMARK   10  A    between atoms: C_18  and  C_19
REMARK   11  A    between atoms: C_20  and  C_21
REMARK   12  A    between atoms: C_21  and  O_23
REMARK   13  A    between atoms: O_23  and  C_24
REMARK   14  A    between atoms: C_24  and  C_25
REMARK   15  A    between atoms: C_25  and  C_26
REMARK   16  A    between atoms: C_26  and  N_27
REMARK                            x       y       z     vdW  Elec       q    Type
REMARK                         _______ _______ _______ _____ _____    ______ ____
ROOT
ATOM      1  C   UNL     1      43.546 -18.011 -37.085  0.00  0.00    -0.046 C 
ENDROOT
BRANCH   1   2
ATOM      2  C   UNL     1      43.887 -18.149 -38.648  0.00  0.00    -0.012 C 
ATOM      3  C   UNL     1      42.920 -17.239 -39.442  0.00  0.00    -0.045 C 
ATOM      4  C   UNL     1      43.225 -17.174 -40.740  0.00  0.00    -0.082 C 
ATOM      5  C   UNL     1      44.240 -18.154 -41.202  0.00  0.00    -0.031 C 
ATOM      6  C   UNL     1      44.106 -19.533 -40.391  0.00  0.00    -0.027 C 
ATOM      7  C   UNL     1      44.445 -20.777 -41.539  0.00  0.00    -0.031 C 
ATOM      8  C   UNL     1      43.124 -21.469 -41.960  0.00  0.00    -0.060 C 
ATOM      9  C   UNL     1      45.150 -20.310 -42.842  0.00  0.00    -0.060 C 
ATOM     10  C   UNL     1      45.356 -21.864 -40.916  0.00  0.00    -0.048 C 
ATOM     11  C   UNL     1      46.497 -21.186 -40.192  0.00  0.00    -0.052 C 
ATOM     12  C   UNL     1      45.998 -19.861 -39.604  0.00  0.00    -0.047 C 
ATOM     13  C   UNL     1      44.197 -19.846 -39.446  0.00  0.00    -0.022 C 
ATOM     14  C   UNL     1      44.288 -20.160 -38.501  0.00  0.00    -0.059 C 
BRANCH   3  15
ATOM     15  C   UNL     1      41.776 -16.493 -38.808  0.00  0.00    +0.066 C 
BRANCH  15  16
ATOM     16  O   UNL     1      41.959 -15.084 -38.868  0.00  0.00    -0.391 OA
ATOM     17  H   UNL     1      41.105 -14.641 -38.743  0.00  0.00    +0.000 HD
ENDBRANCH  15  16
ENDBRANCH   3  15
ENDBRANCH   1   2
BRANCH   1  18
ATOM     18  C   UNL     1      44.700 -17.657 -36.115  0.00  0.00    -0.049 C 
BRANCH  18  20
ATOM     19  C   UNL     1      46.294 -19.459 -35.331  0.00  0.00    -0.062 C 
ATOM     20  C   UNL     1      44.954 -18.765 -35.066  0.00  0.00    -0.034 C 
BRANCH  20  21
ATOM     21  C   UNL     1      43.826 -19.808 -35.058  0.00  0.00    +0.048 C 
BRANCH  21  22
ATOM     22  C   UNL     1      43.107 -19.850 -33.730  0.00  0.00    +0.307 C 
ATOM     23  O   UNL     1      43.229 -18.998 -32.861  0.00  0.00    -0.251 OA
BRANCH  22  24
ATOM     24  O   UNL     1      42.325 -20.964 -33.644  0.00  0.00    -0.465 OA
BRANCH  24  25
ATOM     25  C   UNL     1      41.040 -20.778 -33.024  0.00  0.00    +0.094 C 
BRANCH  25  26
ATOM     26  C   UNL     1      39.946 -21.437 -33.856  0.00  0.00    -0.006 C 
BRANCH  26  27
ATOM     27  C   UNL     1      39.455 -20.520 -34.986  0.00  0.00    +0.002 C 
BRANCH  27  28
ATOM     28  N   UNL     1      40.353 -20.566 -36.141  0.00  0.00    -0.302 N 
ATOM     29  C   UNL     1      40.516 -21.930 -36.662  0.00  0.00    -0.001 C 
ATOM     30  C   UNL     1      41.048 -21.725 -38.073  0.00  0.00    -0.039 C 
ATOM     31  C   UNL     1      40.719 -20.278 -38.420  0.00  0.00    -0.039 C 
ATOM     32  C   UNL     1      39.844 -19.793 -37.277  0.00  0.00    -0.001 C 
ATOM     33  H   UNL     1      41.232 -20.184 -35.791  0.00  0.00    +0.000 HD
ENDBRANCH  27  28
ENDBRANCH  26  27
ENDBRANCH  25  26
ENDBRANCH  24  25
ENDBRANCH  22  24
ENDBRANCH  21  22
ENDBRANCH  20  21
ENDBRANCH  18  20
ENDBRANCH   1  18
TORSDOF 12
ENDMDL
MODEL 20
REMARK VINA RESULT:    -5.309     17.756     20.799
REMARK INTER + INTRA:         -11.251
REMARK INTER:                  -8.752
REMARK INTRA:                  -2.500
REMARK UNBOUND:                -2.373
REMARK  Name = cpd294.pdb
REMARK  16 active torsions:
REMARK  status: ('A' for Active; 'I' for Inactive)
REMARK    1  A    between atoms: C_1  and  C_2
REMARK    2  A    between atoms: C_2  and  C_3
REMARK    3  A    between atoms: C_2  and  C_20
REMARK    4  A    between atoms: C_3  and  C_4
REMARK    5  A    between atoms: C_4  and  C_5
REMARK    6  A    between atoms: C_6  and  C_7
REMARK    7  A    between atoms: C_7  and  O_8
REMARK    8  A    between atoms: C_12  and  C_13
REMARK    9  A    between atoms: C_12  and  C_14
REMARK   10  A    between atoms: C_18  and  C_19
REMARK   11  A    between atoms: C_20  and  C_21
REMARK   12  A    between atoms: C_21  and  O_23
REMARK   13  A    between atoms: O_23  and  C_24
REMARK   14  A    between atoms: C_24  and  C_25
REMARK   15  A    between atoms: C_25  and  C_26
REMARK   16  A    between atoms: C_26  and  N_27
REMARK                            x       y       z     vdW  Elec       q    Type
REMARK                         _______ _______ _______ _____ _____    ______ ____
ROOT
ATOM      1  C   UNL     1      45.351 -16.800 -39.366  0.00  0.00    -0.046 C 
ENDROOT
BRANCH   1   2
ATOM      2  C   UNL     1      45.628 -18.378 -39.247  0.00  0.00    -0.012 C 
ATOM      3  C   UNL     1      46.564 -18.621 -38.039  0.00  0.00    -0.045 C 
ATOM      4  C   UNL     1      46.730 -19.918 -37.770  0.00  0.00    -0.082 C 
ATOM      5  C   UNL     1      46.212 -20.850 -38.804  0.00  0.00    -0.031 C 
ATOM      6  C   UNL     1      46.379 -20.219 -40.270  0.00  0.00    -0.027 C 
ATOM      7  C   UNL     1      46.777 -21.547 -41.299  0.00  0.00    -0.031 C 
ATOM      8  C   UNL     1      48.287 -21.500 -41.646  0.00  0.00    -0.060 C 
ATOM      9  C   UNL     1      46.488 -22.957 -40.714  0.00  0.00    -0.060 C 
ATOM     10  C   UNL     1      45.995 -21.459 -42.633  0.00  0.00    -0.048 C 
ATOM     11  C   UNL     1      44.545 -21.161 -42.329  0.00  0.00    -0.052 C 
ATOM     12  C   UNL     1      44.469 -20.273 -41.082  0.00  0.00    -0.047 C 
ATOM     13  C   UNL     1      46.038 -19.428 -40.777  0.00  0.00    -0.022 C 
ATOM     14  C   UNL     1      45.698 -18.636 -41.285  0.00  0.00    -0.059 C 
BRANCH   3  15
ATOM     15  C   UNL     1      47.194 -17.509 -37.243  0.00  0.00    +0.066 C 
BRANCH  15  16
ATOM     16  O   UNL     1      46.498 -17.262 -36.027  0.00  0.00    -0.391 OA
ATOM     17  H   UNL     1      46.797 -17.891 -35.350  0.00  0.00    +0.000 HD
ENDBRANCH  15  16
ENDBRANCH   3  15
ENDBRANCH   1   2
BRANCH   1  18
ATOM     18  C   UNL     1      43.978 -16.264 -38.892  0.00  0.00    -0.049 C 
BRANCH  18  20
ATOM     19  C   UNL     1      41.661 -16.902 -39.687  0.00  0.00    -0.062 C 
ATOM     20  C   UNL     1      42.885 -17.359 -38.885  0.00  0.00    -0.034 C 
BRANCH  20  21
ATOM     21  C   UNL     1      42.458 -17.724 -37.456  0.00  0.00    +0.048 C 
BRANCH  21  22
ATOM     22  C   UNL     1      43.084 -19.019 -36.994  0.00  0.00    +0.307 C 
ATOM     23  O   UNL     1      42.961 -20.084 -37.583  0.00  0.00    -0.251 OA
BRANCH  22  24
ATOM     24  O   UNL     1      43.785 -18.828 -35.840  0.00  0.00    -0.465 OA
BRANCH  24  25
ATOM     25  C   UNL     1      44.133 -20.021 -35.116  0.00  0.00    +0.094 C 
BRANCH  25  26
ATOM     26  C   UNL     1      43.372 -20.088 -33.798  0.00  0.00    -0.006 C 
BRANCH  26  27
ATOM     27  C   UNL     1      41.928 -19.584 -33.945  0.00  0.00    +0.002 C 
BRANCH  27  28
ATOM     28  N   UNL     1      40.963 -20.674 -33.787  0.00  0.00    -0.302 N 
ATOM     29  C   UNL     1      40.780 -21.436 -35.029  0.00  0.00    -0.001 C 
ATOM     30  C   UNL     1      40.163 -22.750 -34.569  0.00  0.00    -0.039 C 
ATOM     31  C   UNL     1      40.458 -22.830 -33.076  0.00  0.00    -0.039 C 
ATOM     32  C   UNL     1      41.396 -21.667 -32.802  0.00  0.00    -0.001 C 
ATOM     33  H   UNL     1      40.104 -20.206 -33.497  0.00  0.00    +0.000 HD
ENDBRANCH  27  28
ENDBRANCH  26  27
ENDBRANCH  25  26
ENDBRANCH  24  25
ENDBRANCH  22  24
ENDBRANCH  21  22
ENDBRANCH  20  21
ENDBRANCH  18  20
ENDBRANCH   1  18
TORSDOF 12
ENDMDL
