MODEL 1
REMARK VINA RESULT:    -8.461      0.000      0.000
REMARK INTER + INTRA:         -12.374
REMARK INTER:                 -10.439
REMARK INTRA:                  -1.935
REMARK UNBOUND:                -1.935
REMARK  Name = cpd345.pdb
REMARK  5 active torsions:
REMARK  status: ('A' for Active; 'I' for Inactive)
REMARK    1  A    between atoms: C_1  and  C_2
REMARK    2  A    between atoms: C_7  and  C_8
REMARK    3  A    between atoms: C_8  and  N_9
REMARK    4  A    between atoms: C_13  and  C_14
REMARK    5  A    between atoms: C_14  and  N_15
REMARK                            x       y       z     vdW  Elec       q    Type
REMARK                         _______ _______ _______ _____ _____    ______ ____
ROOT
ATOM      1  N   UNL A   1      33.228 -37.454 -32.622  0.00  0.00    -0.349 N 
ATOM      2  C   UNL A   1      32.175 -36.811 -33.180  0.00  0.00    +0.005 A 
ATOM      3  C   UNL A   1      32.056 -35.432 -33.081  0.00  0.00    -0.045 A 
ATOM      4  C   UNL A   1      33.043 -34.706 -32.427  0.00  0.00    -0.054 A 
ATOM      5  C   UNL A   1      34.149 -35.367 -31.888  0.00  0.00    -0.012 A 
ATOM      6  C   UNL A   1      34.203 -36.762 -31.989  0.00  0.00    +0.010 A 
ENDROOT
BRANCH   1   7
ATOM      7  C   UNL A   1      33.345 -38.934 -32.750  0.00  0.00    +0.048 C 
BRANCH   7  14
ATOM      8  C   UNL A   1      31.906 -39.335 -30.113  0.00  0.00    -0.039 C 
ATOM      9  C   UNL A   1      33.350 -39.715 -30.310  0.00  0.00    -0.046 A 
ATOM     10  C   UNL A   1      34.047 -40.263 -29.222  0.00  0.00    -0.059 A 
ATOM     11  C   UNL A   1      35.381 -40.650 -29.346  0.00  0.00    -0.061 A 
ATOM     12  C   UNL A   1      36.037 -40.503 -30.562  0.00  0.00    -0.061 A 
ATOM     13  C   UNL A   1      35.362 -39.959 -31.653  0.00  0.00    -0.057 A 
ATOM     14  C   UNL A   1      34.020 -39.546 -31.543  0.00  0.00    -0.025 A 
ENDBRANCH   7  14
ENDBRANCH   1   7
BRANCH   5  15
ATOM     15  C   UNL A   1      35.246 -34.580 -31.202  0.00  0.00    +0.050 C 
BRANCH  15  16
ATOM     16  N   UNL A   1      36.132 -35.455 -30.441  0.00  0.00    -0.339 N 
ATOM     17  C   UNL A   1      37.406 -35.807 -30.812  0.00  0.00    +0.023 A 
ATOM     18  C   UNL A   1      37.894 -36.701 -29.879  0.00  0.00    -0.019 A 
ATOM     19  C   UNL A   1      36.880 -36.906 -28.905  0.00  0.00    +0.003 A 
ATOM     20  C   UNL A   1      36.797 -37.695 -27.741  0.00  0.00    -0.052 A 
ATOM     21  C   UNL A   1      35.636 -37.658 -26.962  0.00  0.00    -0.061 A 
ATOM     22  C   UNL A   1      34.567 -36.847 -27.326  0.00  0.00    -0.060 A 
ATOM     23  C   UNL A   1      34.623 -36.056 -28.478  0.00  0.00    -0.038 A 
ATOM     24  C   UNL A   1      35.791 -36.101 -29.261  0.00  0.00    +0.050 A 
ATOM     25  C   UNL A   1      39.262 -37.294 -29.964  0.00  0.00    -0.025 C 
ATOM     26  C   UNL A   1      40.156 -36.495 -30.928  0.00  0.00    -0.049 C 
ATOM     27  C   UNL A   1      39.421 -36.142 -32.232  0.00  0.00    -0.047 C 
ATOM     28  C   UNL A   1      38.174 -35.277 -31.980  0.00  0.00    -0.012 C 
ENDBRANCH  15  16
ENDBRANCH   5  15
TORSDOF 4
ENDMDL
MODEL 2
REMARK VINA RESULT:    -8.003      0.393      3.058
REMARK INTER + INTRA:         -11.809
REMARK INTER:                 -10.312
REMARK INTRA:                  -1.498
REMARK UNBOUND:                -1.935
REMARK  Name = cpd345.pdb
REMARK  5 active torsions:
REMARK  status: ('A' for Active; 'I' for Inactive)
REMARK    1  A    between atoms: C_1  and  C_2
REMARK    2  A    between atoms: C_7  and  C_8
REMARK    3  A    between atoms: C_8  and  N_9
REMARK    4  A    between atoms: C_13  and  C_14
REMARK    5  A    between atoms: C_14  and  N_15
REMARK                            x       y       z     vdW  Elec       q    Type
REMARK                         _______ _______ _______ _____ _____    ______ ____
ROOT
ATOM      1  N   UNL A   1      33.296 -37.457 -32.575  0.00  0.00    -0.349 N 
ATOM      2  C   UNL A   1      32.196 -36.796 -33.006  0.00  0.00    +0.005 A 
ATOM      3  C   UNL A   1      32.077 -35.425 -32.824  0.00  0.00    -0.045 A 
ATOM      4  C   UNL A   1      33.112 -34.725 -32.218  0.00  0.00    -0.054 A 
ATOM      5  C   UNL A   1      34.264 -35.402 -31.810  0.00  0.00    -0.012 A 
ATOM      6  C   UNL A   1      34.317 -36.789 -31.990  0.00  0.00    +0.010 A 
ENDROOT
BRANCH   1   7
ATOM      7  C   UNL A   1      33.410 -38.927 -32.792  0.00  0.00    +0.048 C 
BRANCH   7  14
ATOM      8  C   UNL A   1      31.774 -39.565 -30.323  0.00  0.00    -0.039 C 
ATOM      9  C   UNL A   1      33.237 -39.903 -30.430  0.00  0.00    -0.046 A 
ATOM     10  C   UNL A   1      33.858 -40.527 -29.336  0.00  0.00    -0.059 A 
ATOM     11  C   UNL A   1      35.206 -40.880 -29.380  0.00  0.00    -0.061 A 
ATOM     12  C   UNL A   1      35.953 -40.624 -30.523  0.00  0.00    -0.061 A 
ATOM     13  C   UNL A   1      35.356 -40.004 -31.619  0.00  0.00    -0.057 A 
ATOM     14  C   UNL A   1      34.000 -39.623 -31.586  0.00  0.00    -0.025 A 
ENDBRANCH   7  14
ENDBRANCH   1   7
BRANCH   5  15
ATOM     15  C   UNL A   1      35.410 -34.641 -31.178  0.00  0.00    +0.050 C 
BRANCH  15  16
ATOM     16  N   UNL A   1      36.379 -35.548 -30.569  0.00  0.00    -0.339 N 
ATOM     17  C   UNL A   1      36.178 -36.258 -29.412  0.00  0.00    +0.023 A 
ATOM     18  C   UNL A   1      37.342 -36.941 -29.119  0.00  0.00    -0.019 A 
ATOM     19  C   UNL A   1      38.290 -36.634 -30.132  0.00  0.00    +0.003 A 
ATOM     20  C   UNL A   1      39.624 -37.022 -30.363  0.00  0.00    -0.052 A 
ATOM     21  C   UNL A   1      40.295 -36.549 -31.496  0.00  0.00    -0.061 A 
ATOM     22  C   UNL A   1      39.654 -35.705 -32.396  0.00  0.00    -0.060 A 
ATOM     23  C   UNL A   1      38.330 -35.304 -32.188  0.00  0.00    -0.038 A 
ATOM     24  C   UNL A   1      37.662 -35.776 -31.044  0.00  0.00    +0.050 A 
ATOM     25  C   UNL A   1      37.484 -37.826 -27.924  0.00  0.00    -0.025 C 
ATOM     26  C   UNL A   1      36.109 -38.193 -27.337  0.00  0.00    -0.049 C 
ATOM     27  C   UNL A   1      35.179 -36.971 -27.247  0.00  0.00    -0.047 C 
ATOM     28  C   UNL A   1      34.909 -36.345 -28.626  0.00  0.00    -0.012 C 
ENDBRANCH  15  16
ENDBRANCH   5  15
TORSDOF 4
ENDMDL
MODEL 3
REMARK VINA RESULT:    -7.787      2.984      5.579
REMARK INTER + INTRA:         -11.542
REMARK INTER:                 -10.475
REMARK INTRA:                  -1.067
REMARK UNBOUND:                -1.935
REMARK  Name = cpd345.pdb
REMARK  5 active torsions:
REMARK  status: ('A' for Active; 'I' for Inactive)
REMARK    1  A    between atoms: C_1  and  C_2
REMARK    2  A    between atoms: C_7  and  C_8
REMARK    3  A    between atoms: C_8  and  N_9
REMARK    4  A    between atoms: C_13  and  C_14
REMARK    5  A    between atoms: C_14  and  N_15
REMARK                            x       y       z     vdW  Elec       q    Type
REMARK                         _______ _______ _______ _____ _____    ______ ____
ROOT
ATOM      1  N   UNL A   1      32.701 -33.098 -30.126  0.00  0.00    -0.349 N 
ATOM      2  C   UNL A   1      33.397 -31.937 -30.120  0.00  0.00    +0.005 A 
ATOM      3  C   UNL A   1      34.697 -31.889 -30.603  0.00  0.00    -0.045 A 
ATOM      4  C   UNL A   1      35.275 -33.040 -31.123  0.00  0.00    -0.054 A 
ATOM      5  C   UNL A   1      34.541 -34.228 -31.166  0.00  0.00    -0.012 A 
ATOM      6  C   UNL A   1      33.246 -34.226 -30.636  0.00  0.00    +0.010 A 
ENDROOT
BRANCH   1   7
ATOM      7  C   UNL A   1      31.302 -33.126 -29.615  0.00  0.00    +0.048 C 
BRANCH   7  14
ATOM      8  C   UNL A   1      30.221 -30.398 -28.857  0.00  0.00    -0.039 C 
ATOM      9  C   UNL A   1      29.850 -31.083 -30.146  0.00  0.00    -0.046 A 
ATOM     10  C   UNL A   1      28.962 -30.429 -31.015  0.00  0.00    -0.059 A 
ATOM     11  C   UNL A   1      28.594 -31.004 -32.231  0.00  0.00    -0.061 A 
ATOM     12  C   UNL A   1      29.114 -32.237 -32.602  0.00  0.00    -0.061 A 
ATOM     13  C   UNL A   1      29.995 -32.903 -31.752  0.00  0.00    -0.057 A 
ATOM     14  C   UNL A   1      30.365 -32.347 -30.512  0.00  0.00    -0.025 A 
ENDBRANCH   7  14
ENDBRANCH   1   7
BRANCH   5  15
ATOM     15  C   UNL A   1      35.153 -35.478 -31.761  0.00  0.00    +0.050 C 
BRANCH  15  16
ATOM     16  N   UNL A   1      36.246 -35.980 -30.934  0.00  0.00    -0.339 N 
ATOM     17  C   UNL A   1      37.569 -35.999 -31.300  0.00  0.00    +0.023 A 
ATOM     18  C   UNL A   1      38.286 -36.612 -30.290  0.00  0.00    -0.019 A 
ATOM     19  C   UNL A   1      37.367 -36.985 -29.273  0.00  0.00    +0.003 A 
ATOM     20  C   UNL A   1      37.504 -37.632 -28.030  0.00  0.00    -0.052 A 
ATOM     21  C   UNL A   1      36.377 -37.838 -27.228  0.00  0.00    -0.061 A 
ATOM     22  C   UNL A   1      35.124 -37.404 -27.648  0.00  0.00    -0.060 A 
ATOM     23  C   UNL A   1      34.960 -36.760 -28.879  0.00  0.00    -0.038 A 
ATOM     24  C   UNL A   1      36.096 -36.562 -29.684  0.00  0.00    +0.050 A 
ATOM     25  C   UNL A   1      39.766 -36.803 -30.348  0.00  0.00    -0.025 C 
ATOM     26  C   UNL A   1      40.402 -35.896 -31.416  0.00  0.00    -0.049 C 
ATOM     27  C   UNL A   1      39.603 -35.909 -32.730  0.00  0.00    -0.047 C 
ATOM     28  C   UNL A   1      38.162 -35.406 -32.538  0.00  0.00    -0.012 C 
ENDBRANCH  15  16
ENDBRANCH   5  15
TORSDOF 4
ENDMDL
MODEL 4
REMARK VINA RESULT:    -7.738      2.464      3.569
REMARK INTER + INTRA:         -11.482
REMARK INTER:                 -10.264
REMARK INTRA:                  -1.217
REMARK UNBOUND:                -1.935
REMARK  Name = cpd345.pdb
REMARK  5 active torsions:
REMARK  status: ('A' for Active; 'I' for Inactive)
REMARK    1  A    between atoms: C_1  and  C_2
REMARK    2  A    between atoms: C_7  and  C_8
REMARK    3  A    between atoms: C_8  and  N_9
REMARK    4  A    between atoms: C_13  and  C_14
REMARK    5  A    between atoms: C_14  and  N_15
REMARK                            x       y       z     vdW  Elec       q    Type
REMARK                         _______ _______ _______ _____ _____    ______ ____
ROOT
ATOM      1  N   UNL A   1      32.732 -33.972 -29.657  0.00  0.00    -0.349 N 
ATOM      2  C   UNL A   1      33.126 -32.683 -29.533  0.00  0.00    +0.005 A 
ATOM      3  C   UNL A   1      34.324 -32.254 -30.089  0.00  0.00    -0.045 A 
ATOM      4  C   UNL A   1      35.107 -33.152 -30.802  0.00  0.00    -0.054 A 
ATOM      5  C   UNL A   1      34.678 -34.472 -30.964  0.00  0.00    -0.012 A 
ATOM      6  C   UNL A   1      33.479 -34.859 -30.355  0.00  0.00    +0.010 A 
ENDROOT
BRANCH   1   7
ATOM      7  C   UNL A   1      31.437 -34.411 -29.065  0.00  0.00    +0.048 C 
BRANCH   7  14
ATOM      8  C   UNL A   1      30.699 -37.269 -29.752  0.00  0.00    -0.039 C 
ATOM      9  C   UNL A   1      31.266 -36.883 -28.412  0.00  0.00    -0.046 A 
ATOM     10  C   UNL A   1      31.445 -37.890 -27.450  0.00  0.00    -0.059 A 
ATOM     11  C   UNL A   1      31.982 -37.598 -26.197  0.00  0.00    -0.061 A 
ATOM     12  C   UNL A   1      32.357 -36.297 -25.887  0.00  0.00    -0.061 A 
ATOM     13  C   UNL A   1      32.186 -35.283 -26.828  0.00  0.00    -0.057 A 
ATOM     14  C   UNL A   1      31.628 -35.554 -28.093  0.00  0.00    -0.025 A 
ENDBRANCH   7  14
ENDBRANCH   1   7
BRANCH   5  15
ATOM     15  C   UNL A   1      35.510 -35.449 -31.767  0.00  0.00    +0.050 C 
BRANCH  15  16
ATOM     16  N   UNL A   1      36.610 -35.988 -30.973  0.00  0.00    -0.339 N 
ATOM     17  C   UNL A   1      37.926 -36.019 -31.364  0.00  0.00    +0.023 A 
ATOM     18  C   UNL A   1      38.651 -36.667 -30.383  0.00  0.00    -0.019 A 
ATOM     19  C   UNL A   1      37.745 -37.051 -29.358  0.00  0.00    +0.003 A 
ATOM     20  C   UNL A   1      37.894 -37.731 -28.134  0.00  0.00    -0.052 A 
ATOM     21  C   UNL A   1      36.778 -37.939 -27.317  0.00  0.00    -0.061 A 
ATOM     22  C   UNL A   1      35.526 -37.475 -27.702  0.00  0.00    -0.060 A 
ATOM     23  C   UNL A   1      35.349 -36.799 -28.914  0.00  0.00    -0.038 A 
ATOM     24  C   UNL A   1      36.474 -36.599 -29.735  0.00  0.00    +0.050 A 
ATOM     25  C   UNL A   1      40.127 -36.880 -30.473  0.00  0.00    -0.025 C 
ATOM     26  C   UNL A   1      40.758 -35.957 -31.530  0.00  0.00    -0.049 C 
ATOM     27  C   UNL A   1      39.935 -35.925 -32.829  0.00  0.00    -0.047 C 
ATOM     28  C   UNL A   1      38.506 -35.405 -32.598  0.00  0.00    -0.012 C 
ENDBRANCH  15  16
ENDBRANCH   5  15
TORSDOF 4
ENDMDL
MODEL 5
REMARK VINA RESULT:    -7.728      2.278      4.645
REMARK INTER + INTRA:         -11.469
REMARK INTER:                 -10.136
REMARK INTRA:                  -1.333
REMARK UNBOUND:                -1.935
REMARK  Name = cpd345.pdb
REMARK  5 active torsions:
REMARK  status: ('A' for Active; 'I' for Inactive)
REMARK    1  A    between atoms: C_1  and  C_2
REMARK    2  A    between atoms: C_7  and  C_8
REMARK    3  A    between atoms: C_8  and  N_9
REMARK    4  A    between atoms: C_13  and  C_14
REMARK    5  A    between atoms: C_14  and  N_15
REMARK                            x       y       z     vdW  Elec       q    Type
REMARK                         _______ _______ _______ _____ _____    ______ ____
ROOT
ATOM      1  N   UNL A   1      34.356 -39.807 -27.951  0.00  0.00    -0.349 N 
ATOM      2  C   UNL A   1      34.490 -40.780 -28.883  0.00  0.00    +0.005 A 
ATOM      3  C   UNL A   1      35.584 -40.795 -29.737  0.00  0.00    -0.045 A 
ATOM      4  C   UNL A   1      36.561 -39.816 -29.612  0.00  0.00    -0.054 A 
ATOM      5  C   UNL A   1      36.441 -38.836 -28.624  0.00  0.00    -0.012 A 
ATOM      6  C   UNL A   1      35.303 -38.850 -27.811  0.00  0.00    +0.010 A 
ENDROOT
BRANCH   1   7
ATOM      7  C   UNL A   1      33.181 -39.815 -27.034  0.00  0.00    +0.048 C 
BRANCH   7  14
ATOM      8  C   UNL A   1      31.762 -37.839 -28.841  0.00  0.00    -0.039 C 
ATOM      9  C   UNL A   1      32.172 -37.494 -27.433  0.00  0.00    -0.046 A 
ATOM     10  C   UNL A   1      31.892 -36.205 -26.955  0.00  0.00    -0.059 A 
ATOM     11  C   UNL A   1      32.231 -35.831 -25.655  0.00  0.00    -0.061 A 
ATOM     12  C   UNL A   1      32.849 -36.743 -24.809  0.00  0.00    -0.061 A 
ATOM     13  C   UNL A   1      33.137 -38.028 -25.266  0.00  0.00    -0.057 A 
ATOM     14  C   UNL A   1      32.819 -38.419 -26.581  0.00  0.00    -0.025 A 
ENDBRANCH   7  14
ENDBRANCH   1   7
BRANCH   5  15
ATOM     15  C   UNL A   1      37.519 -37.785 -28.461  0.00  0.00    +0.050 C 
BRANCH  15  16
ATOM     16  N   UNL A   1      37.423 -36.761 -29.496  0.00  0.00    -0.339 N 
ATOM     17  C   UNL A   1      38.391 -36.491 -30.432  0.00  0.00    +0.023 A 
ATOM     18  C   UNL A   1      37.970 -35.413 -31.186  0.00  0.00    -0.019 A 
ATOM     19  C   UNL A   1      36.702 -35.007 -30.691  0.00  0.00    +0.003 A 
ATOM     20  C   UNL A   1      35.801 -33.985 -31.048  0.00  0.00    -0.052 A 
ATOM     21  C   UNL A   1      34.590 -33.859 -30.361  0.00  0.00    -0.061 A 
ATOM     22  C   UNL A   1      34.268 -34.736 -29.331  0.00  0.00    -0.060 A 
ATOM     23  C   UNL A   1      35.146 -35.758 -28.955  0.00  0.00    -0.038 A 
ATOM     24  C   UNL A   1      36.365 -35.876 -29.646  0.00  0.00    +0.050 A 
ATOM     25  C   UNL A   1      38.777 -34.844 -32.308  0.00  0.00    -0.025 C 
ATOM     26  C   UNL A   1      39.869 -35.829 -32.762  0.00  0.00    -0.049 C 
ATOM     27  C   UNL A   1      40.604 -36.460 -31.568  0.00  0.00    -0.047 C 
ATOM     28  C   UNL A   1      39.655 -37.257 -30.657  0.00  0.00    -0.012 C 
ENDBRANCH  15  16
ENDBRANCH   5  15
TORSDOF 4
ENDMDL
MODEL 6
REMARK VINA RESULT:    -7.517      1.578      6.050
REMARK INTER + INTRA:         -11.209
REMARK INTER:                 -10.091
REMARK INTRA:                  -1.118
REMARK UNBOUND:                -1.935
REMARK  Name = cpd345.pdb
REMARK  5 active torsions:
REMARK  status: ('A' for Active; 'I' for Inactive)
REMARK    1  A    between atoms: C_1  and  C_2
REMARK    2  A    between atoms: C_7  and  C_8
REMARK    3  A    between atoms: C_8  and  N_9
REMARK    4  A    between atoms: C_13  and  C_14
REMARK    5  A    between atoms: C_14  and  N_15
REMARK                            x       y       z     vdW  Elec       q    Type
REMARK                         _______ _______ _______ _____ _____    ______ ____
ROOT
ATOM      1  N   UNL A   1      37.254 -38.693 -28.703  0.00  0.00    -0.349 N 
ATOM      2  C   UNL A   1      37.208 -40.045 -28.761  0.00  0.00    +0.005 A 
ATOM      3  C   UNL A   1      35.990 -40.710 -28.799  0.00  0.00    -0.045 A 
ATOM      4  C   UNL A   1      34.811 -39.976 -28.806  0.00  0.00    -0.054 A 
ATOM      5  C   UNL A   1      34.862 -38.580 -28.787  0.00  0.00    -0.012 A 
ATOM      6  C   UNL A   1      36.115 -37.962 -28.717  0.00  0.00    +0.010 A 
ENDROOT
BRANCH   1   7
ATOM      7  C   UNL A   1      38.571 -37.997 -28.677  0.00  0.00    +0.048 C 
BRANCH   7  14
ATOM      8  C   UNL A   1      41.198 -37.936 -30.188  0.00  0.00    -0.039 C 
ATOM      9  C   UNL A   1      40.010 -37.109 -30.602  0.00  0.00    -0.046 A 
ATOM     10  C   UNL A   1      40.138 -36.275 -31.724  0.00  0.00    -0.059 A 
ATOM     11  C   UNL A   1      39.069 -35.498 -32.168  0.00  0.00    -0.061 A 
ATOM     12  C   UNL A   1      37.851 -35.548 -31.502  0.00  0.00    -0.061 A 
ATOM     13  C   UNL A   1      37.704 -36.369 -30.385  0.00  0.00    -0.057 A 
ATOM     14  C   UNL A   1      38.777 -37.147 -29.911  0.00  0.00    -0.025 A 
ENDBRANCH   7  14
ENDBRANCH   1   7
BRANCH   5  15
ATOM     15  C   UNL A   1      33.582 -37.772 -28.827  0.00  0.00    +0.050 C 
BRANCH  15  16
ATOM     16  N   UNL A   1      33.509 -36.951 -30.031  0.00  0.00    -0.339 N 
ATOM     17  C   UNL A   1      33.133 -37.400 -31.273  0.00  0.00    +0.023 A 
ATOM     18  C   UNL A   1      33.259 -36.353 -32.165  0.00  0.00    -0.019 A 
ATOM     19  C   UNL A   1      33.733 -35.225 -31.444  0.00  0.00    +0.003 A 
ATOM     20  C   UNL A   1      34.049 -33.901 -31.808  0.00  0.00    -0.052 A 
ATOM     21  C   UNL A   1      34.481 -32.999 -30.831  0.00  0.00    -0.061 A 
ATOM     22  C   UNL A   1      34.597 -33.398 -29.504  0.00  0.00    -0.060 A 
ATOM     23  C   UNL A   1      34.292 -34.706 -29.116  0.00  0.00    -0.038 A 
ATOM     24  C   UNL A   1      33.864 -35.612 -30.104  0.00  0.00    +0.050 A 
ATOM     25  C   UNL A   1      32.930 -36.482 -33.617  0.00  0.00    -0.025 C 
ATOM     26  C   UNL A   1      32.074 -37.732 -33.884  0.00  0.00    -0.049 C 
ATOM     27  C   UNL A   1      32.608 -38.964 -33.135  0.00  0.00    -0.047 C 
ATOM     28  C   UNL A   1      32.612 -38.760 -31.610  0.00  0.00    -0.012 C 
ENDBRANCH  15  16
ENDBRANCH   5  15
TORSDOF 4
ENDMDL
MODEL 7
REMARK VINA RESULT:    -7.485      1.571      6.052
REMARK INTER + INTRA:         -11.169
REMARK INTER:                 -10.160
REMARK INTRA:                  -1.010
REMARK UNBOUND:                -1.935
REMARK  Name = cpd345.pdb
REMARK  5 active torsions:
REMARK  status: ('A' for Active; 'I' for Inactive)
REMARK    1  A    between atoms: C_1  and  C_2
REMARK    2  A    between atoms: C_7  and  C_8
REMARK    3  A    between atoms: C_8  and  N_9
REMARK    4  A    between atoms: C_13  and  C_14
REMARK    5  A    between atoms: C_14  and  N_15
REMARK                            x       y       z     vdW  Elec       q    Type
REMARK                         _______ _______ _______ _____ _____    ______ ____
ROOT
ATOM      1  N   UNL A   1      37.246 -38.692 -28.751  0.00  0.00    -0.349 N 
ATOM      2  C   UNL A   1      37.159 -40.040 -28.829  0.00  0.00    +0.005 A 
ATOM      3  C   UNL A   1      35.923 -40.667 -28.893  0.00  0.00    -0.045 A 
ATOM      4  C   UNL A   1      34.767 -39.897 -28.906  0.00  0.00    -0.054 A 
ATOM      5  C   UNL A   1      34.859 -38.504 -28.867  0.00  0.00    -0.012 A 
ATOM      6  C   UNL A   1      36.130 -37.926 -28.771  0.00  0.00    +0.010 A 
ENDROOT
BRANCH   1   7
ATOM      7  C   UNL A   1      38.583 -38.036 -28.696  0.00  0.00    +0.048 C 
BRANCH   7  14
ATOM      8  C   UNL A   1      41.251 -37.969 -30.132  0.00  0.00    -0.039 C 
ATOM      9  C   UNL A   1      40.080 -37.128 -30.567  0.00  0.00    -0.046 A 
ATOM     10  C   UNL A   1      40.245 -36.278 -31.672  0.00  0.00    -0.059 A 
ATOM     11  C   UNL A   1      39.193 -35.487 -32.133  0.00  0.00    -0.061 A 
ATOM     12  C   UNL A   1      37.956 -35.540 -31.503  0.00  0.00    -0.061 A 
ATOM     13  C   UNL A   1      37.773 -36.377 -30.403  0.00  0.00    -0.057 A 
ATOM     14  C   UNL A   1      38.828 -37.169 -29.911  0.00  0.00    -0.025 A 
ENDBRANCH   7  14
ENDBRANCH   1   7
BRANCH   5  15
ATOM     15  C   UNL A   1      33.605 -37.657 -28.913  0.00  0.00    +0.050 C 
BRANCH  15  16
ATOM     16  N   UNL A   1      33.556 -36.845 -30.125  0.00  0.00    -0.339 N 
ATOM     17  C   UNL A   1      33.910 -35.521 -30.204  0.00  0.00    +0.023 A 
ATOM     18  C   UNL A   1      33.659 -35.085 -31.491  0.00  0.00    -0.019 A 
ATOM     19  C   UNL A   1      33.128 -36.181 -32.223  0.00  0.00    +0.003 A 
ATOM     20  C   UNL A   1      32.689 -36.341 -33.552  0.00  0.00    -0.052 A 
ATOM     21  C   UNL A   1      32.230 -37.589 -33.984  0.00  0.00    -0.061 A 
ATOM     22  C   UNL A   1      32.208 -38.673 -33.114  0.00  0.00    -0.060 A 
ATOM     23  C   UNL A   1      32.636 -38.541 -31.789  0.00  0.00    -0.038 A 
ATOM     24  C   UNL A   1      33.091 -37.281 -31.357  0.00  0.00    +0.050 A 
ATOM     25  C   UNL A   1      33.931 -33.687 -31.940  0.00  0.00    -0.025 C 
ATOM     26  C   UNL A   1      34.873 -32.962 -30.963  0.00  0.00    -0.049 C 
ATOM     27  C   UNL A   1      34.475 -33.204 -29.497  0.00  0.00    -0.047 C 
ATOM     28  C   UNL A   1      34.524 -34.695 -29.120  0.00  0.00    -0.012 C 
ENDBRANCH  15  16
ENDBRANCH   5  15
TORSDOF 4
ENDMDL
MODEL 8
REMARK VINA RESULT:    -7.452      2.307      5.369
REMARK INTER + INTRA:         -11.129
REMARK INTER:                  -9.973
REMARK INTRA:                  -1.157
REMARK UNBOUND:                -1.935
REMARK  Name = cpd345.pdb
REMARK  5 active torsions:
REMARK  status: ('A' for Active; 'I' for Inactive)
REMARK    1  A    between atoms: C_1  and  C_2
REMARK    2  A    between atoms: C_7  and  C_8
REMARK    3  A    between atoms: C_8  and  N_9
REMARK    4  A    between atoms: C_13  and  C_14
REMARK    5  A    between atoms: C_14  and  N_15
REMARK                            x       y       z     vdW  Elec       q    Type
REMARK                         _______ _______ _______ _____ _____    ______ ____
ROOT
ATOM      1  N   UNL A   1      34.190 -39.934 -28.041  0.00  0.00    -0.349 N 
ATOM      2  C   UNL A   1      34.160 -40.755 -29.116  0.00  0.00    +0.005 A 
ATOM      3  C   UNL A   1      35.206 -40.766 -30.028  0.00  0.00    -0.045 A 
ATOM      4  C   UNL A   1      36.306 -39.945 -29.814  0.00  0.00    -0.054 A 
ATOM      5  C   UNL A   1      36.354 -39.127 -28.682  0.00  0.00    -0.012 A 
ATOM      6  C   UNL A   1      35.257 -39.133 -27.814  0.00  0.00    +0.010 A 
ENDROOT
BRANCH   1   7
ATOM      7  C   UNL A   1      33.062 -39.946 -27.066  0.00  0.00    +0.048 C 
BRANCH   7  14
ATOM      8  C   UNL A   1      31.707 -37.623 -28.464  0.00  0.00    -0.039 C 
ATOM      9  C   UNL A   1      32.265 -37.511 -27.069  0.00  0.00    -0.046 A 
ATOM     10  C   UNL A   1      32.157 -36.278 -26.407  0.00  0.00    -0.059 A 
ATOM     11  C   UNL A   1      32.639 -36.116 -25.108  0.00  0.00    -0.061 A 
ATOM     12  C   UNL A   1      33.228 -37.186 -24.448  0.00  0.00    -0.061 A 
ATOM     13  C   UNL A   1      33.346 -38.418 -25.089  0.00  0.00    -0.057 A 
ATOM     14  C   UNL A   1      32.882 -38.596 -26.407  0.00  0.00    -0.025 A 
ENDBRANCH   7  14
ENDBRANCH   1   7
BRANCH   5  15
ATOM     15  C   UNL A   1      37.563 -38.254 -28.426  0.00  0.00    +0.050 C 
BRANCH  15  16
ATOM     16  N   UNL A   1      37.636 -37.152 -29.382  0.00  0.00    -0.339 N 
ATOM     17  C   UNL A   1      36.658 -36.208 -29.576  0.00  0.00    +0.023 A 
ATOM     18  C   UNL A   1      37.057 -35.382 -30.608  0.00  0.00    -0.019 A 
ATOM     19  C   UNL A   1      38.322 -35.840 -31.064  0.00  0.00    +0.003 A 
ATOM     20  C   UNL A   1      39.205 -35.410 -32.074  0.00  0.00    -0.052 A 
ATOM     21  C   UNL A   1      40.418 -36.078 -32.264  0.00  0.00    -0.061 A 
ATOM     22  C   UNL A   1      40.760 -37.161 -31.461  0.00  0.00    -0.060 A 
ATOM     23  C   UNL A   1      39.901 -37.610 -30.453  0.00  0.00    -0.038 A 
ATOM     24  C   UNL A   1      38.679 -36.937 -30.271  0.00  0.00    +0.050 A 
ATOM     25  C   UNL A   1      36.234 -34.232 -31.090  0.00  0.00    -0.025 C 
ATOM     26  C   UNL A   1      35.154 -33.852 -30.062  0.00  0.00    -0.049 C 
ATOM     27  C   UNL A   1      34.437 -35.090 -29.498  0.00  0.00    -0.047 C 
ATOM     28  C   UNL A   1      35.405 -36.044 -28.777  0.00  0.00    -0.012 C 
ENDBRANCH  15  16
ENDBRANCH   5  15
TORSDOF 4
ENDMDL
MODEL 9
REMARK VINA RESULT:    -7.441      1.535      4.222
REMARK INTER + INTRA:         -11.115
REMARK INTER:                  -9.423
REMARK INTRA:                  -1.692
REMARK UNBOUND:                -1.935
REMARK  Name = cpd345.pdb
REMARK  5 active torsions:
REMARK  status: ('A' for Active; 'I' for Inactive)
REMARK    1  A    between atoms: C_1  and  C_2
REMARK    2  A    between atoms: C_7  and  C_8
REMARK    3  A    between atoms: C_8  and  N_9
REMARK    4  A    between atoms: C_13  and  C_14
REMARK    5  A    between atoms: C_14  and  N_15
REMARK                            x       y       z     vdW  Elec       q    Type
REMARK                         _______ _______ _______ _____ _____    ______ ____
ROOT
ATOM      1  N   UNL A   1      34.081 -39.077 -32.183  0.00  0.00    -0.349 N 
ATOM      2  C   UNL A   1      34.530 -40.353 -32.145  0.00  0.00    +0.005 A 
ATOM      3  C   UNL A   1      35.528 -40.726 -31.254  0.00  0.00    -0.045 A 
ATOM      4  C   UNL A   1      36.047 -39.782 -30.377  0.00  0.00    -0.054 A 
ATOM      5  C   UNL A   1      35.554 -38.475 -30.390  0.00  0.00    -0.012 A 
ATOM      6  C   UNL A   1      34.570 -38.147 -31.330  0.00  0.00    +0.010 A 
ENDROOT
BRANCH   1   7
ATOM      7  C   UNL A   1      33.000 -38.699 -33.137  0.00  0.00    +0.048 C 
BRANCH   7  14
ATOM      8  C   UNL A   1      33.507 -35.832 -33.979  0.00  0.00    -0.039 C 
ATOM      9  C   UNL A   1      32.427 -36.206 -32.998  0.00  0.00    -0.046 A 
ATOM     10  C   UNL A   1      31.640 -35.180 -32.452  0.00  0.00    -0.059 A 
ATOM     11  C   UNL A   1      30.614 -35.464 -31.551  0.00  0.00    -0.061 A 
ATOM     12  C   UNL A   1      30.352 -36.779 -31.189  0.00  0.00    -0.061 A 
ATOM     13  C   UNL A   1      31.123 -37.812 -31.719  0.00  0.00    -0.057 A 
ATOM     14  C   UNL A   1      32.176 -37.544 -32.616  0.00  0.00    -0.025 A 
ENDBRANCH   7  14
ENDBRANCH   1   7
BRANCH   5  15
ATOM     15  C   UNL A   1      36.092 -37.449 -29.416  0.00  0.00    +0.050 C 
BRANCH  15  16
ATOM     16  N   UNL A   1      36.440 -36.204 -30.093  0.00  0.00    -0.339 N 
ATOM     17  C   UNL A   1      37.633 -35.955 -30.725  0.00  0.00    +0.023 A 
ATOM     18  C   UNL A   1      37.615 -34.650 -31.177  0.00  0.00    -0.019 A 
ATOM     19  C   UNL A   1      36.369 -34.080 -30.804  0.00  0.00    +0.003 A 
ATOM     20  C   UNL A   1      35.791 -32.808 -30.982  0.00  0.00    -0.052 A 
ATOM     21  C   UNL A   1      34.500 -32.562 -30.503  0.00  0.00    -0.061 A 
ATOM     22  C   UNL A   1      33.784 -33.563 -29.857  0.00  0.00    -0.060 A 
ATOM     23  C   UNL A   1      34.336 -34.834 -29.666  0.00  0.00    -0.038 A 
ATOM     24  C   UNL A   1      35.637 -35.074 -30.143  0.00  0.00    +0.050 A 
ATOM     25  C   UNL A   1      38.756 -34.034 -31.921  0.00  0.00    -0.025 C 
ATOM     26  C   UNL A   1      39.714 -35.111 -32.460  0.00  0.00    -0.049 C 
ATOM     27  C   UNL A   1      40.014 -36.192 -31.407  0.00  0.00    -0.047 C 
ATOM     28  C   UNL A   1      38.743 -36.930 -30.955  0.00  0.00    -0.012 C 
ENDBRANCH  15  16
ENDBRANCH   5  15
TORSDOF 4
ENDMDL
MODEL 10
REMARK VINA RESULT:    -7.250      2.047      6.415
REMARK INTER + INTRA:         -10.880
REMARK INTER:                 -10.140
REMARK INTRA:                  -0.740
REMARK UNBOUND:                -1.935
REMARK  Name = cpd345.pdb
REMARK  5 active torsions:
REMARK  status: ('A' for Active; 'I' for Inactive)
REMARK    1  A    between atoms: C_1  and  C_2
REMARK    2  A    between atoms: C_7  and  C_8
REMARK    3  A    between atoms: C_8  and  N_9
REMARK    4  A    between atoms: C_13  and  C_14
REMARK    5  A    between atoms: C_14  and  N_15
REMARK                            x       y       z     vdW  Elec       q    Type
REMARK                         _______ _______ _______ _____ _____    ______ ____
ROOT
ATOM      1  N   UNL A   1      37.302 -38.806 -28.837  0.00  0.00    -0.349 N 
ATOM      2  C   UNL A   1      37.348 -40.152 -28.705  0.00  0.00    +0.005 A 
ATOM      3  C   UNL A   1      36.231 -40.929 -28.980  0.00  0.00    -0.045 A 
ATOM      4  C   UNL A   1      35.066 -40.315 -29.422  0.00  0.00    -0.054 A 
ATOM      5  C   UNL A   1      35.033 -38.930 -29.597  0.00  0.00    -0.012 A 
ATOM      6  C   UNL A   1      36.178 -38.193 -29.274  0.00  0.00    +0.010 A 
ENDROOT
BRANCH   1   7
ATOM      7  C   UNL A   1      38.516 -37.991 -28.550  0.00  0.00    +0.048 C 
BRANCH   7  14
ATOM      8  C   UNL A   1      41.296 -38.305 -29.716  0.00  0.00    -0.039 C 
ATOM      9  C   UNL A   1      40.278 -37.362 -30.301  0.00  0.00    -0.046 A 
ATOM     10  C   UNL A   1      40.645 -36.597 -31.420  0.00  0.00    -0.059 A 
ATOM     11  C   UNL A   1      39.741 -35.719 -32.017  0.00  0.00    -0.061 A 
ATOM     12  C   UNL A   1      38.453 -35.597 -31.510  0.00  0.00    -0.061 A 
ATOM     13  C   UNL A   1      38.071 -36.346 -30.399  0.00  0.00    -0.057 A 
ATOM     14  C   UNL A   1      38.975 -37.225 -29.771  0.00  0.00    -0.025 A 
ENDBRANCH   7  14
ENDBRANCH   1   7
BRANCH   5  15
ATOM     15  C   UNL A   1      33.776 -38.258 -30.109  0.00  0.00    +0.050 C 
BRANCH  15  16
ATOM     16  N   UNL A   1      33.518 -37.006 -29.404  0.00  0.00    -0.339 N 
ATOM     17  C   UNL A   1      32.803 -36.890 -28.237  0.00  0.00    +0.023 A 
ATOM     18  C   UNL A   1      32.713 -35.548 -27.921  0.00  0.00    -0.019 A 
ATOM     19  C   UNL A   1      33.392 -34.818 -28.934  0.00  0.00    +0.003 A 
ATOM     20  C   UNL A   1      33.627 -33.447 -29.151  0.00  0.00    -0.052 A 
ATOM     21  C   UNL A   1      34.372 -33.040 -30.262  0.00  0.00    -0.061 A 
ATOM     22  C   UNL A   1      34.884 -33.979 -31.150  0.00  0.00    -0.060 A 
ATOM     23  C   UNL A   1      34.663 -35.346 -30.959  0.00  0.00    -0.038 A 
ATOM     24  C   UNL A   1      33.908 -35.750 -29.843  0.00  0.00    +0.050 A 
ATOM     25  C   UNL A   1      32.003 -35.048 -26.705  0.00  0.00    -0.025 C 
ATOM     26  C   UNL A   1      31.777 -36.181 -25.689  0.00  0.00    -0.049 C 
ATOM     27  C   UNL A   1      31.269 -37.466 -26.365  0.00  0.00    -0.047 C 
ATOM     28  C   UNL A   1      32.267 -38.008 -27.403  0.00  0.00    -0.012 C 
ENDBRANCH  15  16
ENDBRANCH   5  15
TORSDOF 4
ENDMDL
MODEL 11
REMARK VINA RESULT:    -7.227     18.884     22.321
REMARK INTER + INTRA:         -10.851
REMARK INTER:                  -8.826
REMARK INTRA:                  -2.026
REMARK UNBOUND:                -1.935
REMARK  Name = cpd345.pdb
REMARK  5 active torsions:
REMARK  status: ('A' for Active; 'I' for Inactive)
REMARK    1  A    between atoms: C_1  and  C_2
REMARK    2  A    between atoms: C_7  and  C_8
REMARK    3  A    between atoms: C_8  and  N_9
REMARK    4  A    between atoms: C_13  and  C_14
REMARK    5  A    between atoms: C_14  and  N_15
REMARK                            x       y       z     vdW  Elec       q    Type
REMARK                         _______ _______ _______ _____ _____    ______ ____
ROOT
ATOM      1  N   UNL A   1      43.030 -20.905 -37.678  0.00  0.00    -0.349 N 
ATOM      2  C   UNL A   1      41.779 -21.391 -37.497  0.00  0.00    +0.005 A 
ATOM      3  C   UNL A   1      40.977 -21.701 -38.586  0.00  0.00    -0.045 A 
ATOM      4  C   UNL A   1      41.477 -21.537 -39.871  0.00  0.00    -0.054 A 
ATOM      5  C   UNL A   1      42.782 -21.075 -40.055  0.00  0.00    -0.012 A 
ATOM      6  C   UNL A   1      43.536 -20.747 -38.923  0.00  0.00    +0.010 A 
ENDROOT
BRANCH   1   7
ATOM      7  C   UNL A   1      43.881 -20.590 -36.496  0.00  0.00    +0.048 C 
BRANCH   7  14
ATOM      8  C   UNL A   1      43.406 -17.600 -36.630  0.00  0.00    -0.039 C 
ATOM      9  C   UNL A   1      44.748 -18.217 -36.924  0.00  0.00    -0.046 A 
ATOM     10  C   UNL A   1      45.807 -17.368 -37.282  0.00  0.00    -0.059 A 
ATOM     11  C   UNL A   1      47.077 -17.878 -37.550  0.00  0.00    -0.061 A 
ATOM     12  C   UNL A   1      47.311 -19.244 -37.455  0.00  0.00    -0.061 A 
ATOM     13  C   UNL A   1      46.272 -20.104 -37.102  0.00  0.00    -0.057 A 
ATOM     14  C   UNL A   1      44.978 -19.610 -36.845  0.00  0.00    -0.025 A 
ENDBRANCH   7  14
ENDBRANCH   1   7
BRANCH   5  15
ATOM     15  C   UNL A   1      43.345 -20.925 -41.453  0.00  0.00    +0.050 C 
BRANCH  15  16
ATOM     16  N   UNL A   1      44.711 -20.409 -41.423  0.00  0.00    -0.339 N 
ATOM     17  C   UNL A   1      45.847 -21.177 -41.498  0.00  0.00    +0.023 A 
ATOM     18  C   UNL A   1      46.939 -20.341 -41.363  0.00  0.00    -0.019 A 
ATOM     19  C   UNL A   1      46.453 -19.017 -41.195  0.00  0.00    +0.003 A 
ATOM     20  C   UNL A   1      47.078 -17.768 -41.011  0.00  0.00    -0.052 A 
ATOM     21  C   UNL A   1      46.298 -16.614 -40.897  0.00  0.00    -0.061 A 
ATOM     22  C   UNL A   1      44.911 -16.689 -40.969  0.00  0.00    -0.060 A 
ATOM     23  C   UNL A   1      44.265 -17.917 -41.149  0.00  0.00    -0.038 A 
ATOM     24  C   UNL A   1      45.055 -19.076 -41.256  0.00  0.00    +0.050 A 
ATOM     25  C   UNL A   1      48.348 -20.837 -41.401  0.00  0.00    -0.025 C 
ATOM     26  C   UNL A   1      48.424 -22.250 -42.006  0.00  0.00    -0.049 C 
ATOM     27  C   UNL A   1      47.330 -23.174 -41.446  0.00  0.00    -0.047 C 
ATOM     28  C   UNL A   1      45.916 -22.649 -41.748  0.00  0.00    -0.012 C 
ENDBRANCH  15  16
ENDBRANCH   5  15
TORSDOF 4
ENDMDL
MODEL 12
REMARK VINA RESULT:    -7.135     17.320     20.904
REMARK INTER + INTRA:         -10.738
REMARK INTER:                  -9.251
REMARK INTRA:                  -1.487
REMARK UNBOUND:                -1.935
REMARK  Name = cpd345.pdb
REMARK  5 active torsions:
REMARK  status: ('A' for Active; 'I' for Inactive)
REMARK    1  A    between atoms: C_1  and  C_2
REMARK    2  A    between atoms: C_7  and  C_8
REMARK    3  A    between atoms: C_8  and  N_9
REMARK    4  A    between atoms: C_13  and  C_14
REMARK    5  A    between atoms: C_14  and  N_15
REMARK                            x       y       z     vdW  Elec       q    Type
REMARK                         _______ _______ _______ _____ _____    ______ ____
ROOT
ATOM      1  N   UNL A   1      46.195 -19.284 -39.037  0.00  0.00    -0.349 N 
ATOM      2  C   UNL A   1      46.993 -19.720 -38.034  0.00  0.00    +0.005 A 
ATOM      3  C   UNL A   1      46.503 -19.835 -36.740  0.00  0.00    -0.045 A 
ATOM      4  C   UNL A   1      45.174 -19.525 -36.482  0.00  0.00    -0.054 A 
ATOM      5  C   UNL A   1      44.342 -19.113 -37.526  0.00  0.00    -0.012 A 
ATOM      6  C   UNL A   1      44.896 -18.985 -38.805  0.00  0.00    +0.010 A 
ENDROOT
BRANCH   1   7
ATOM      7  C   UNL A   1      46.735 -19.180 -40.421  0.00  0.00    +0.048 C 
BRANCH   7  14
ATOM      8  C   UNL A   1      44.493 -19.711 -42.391  0.00  0.00    -0.039 C 
ATOM      9  C   UNL A   1      45.548 -20.738 -42.074  0.00  0.00    -0.046 A 
ATOM     10  C   UNL A   1      45.474 -21.986 -42.711  0.00  0.00    -0.059 A 
ATOM     11  C   UNL A   1      46.430 -22.973 -42.472  0.00  0.00    -0.061 A 
ATOM     12  C   UNL A   1      47.482 -22.723 -41.599  0.00  0.00    -0.061 A 
ATOM     13  C   UNL A   1      47.572 -21.491 -40.955  0.00  0.00    -0.057 A 
ATOM     14  C   UNL A   1      46.606 -20.488 -41.169  0.00  0.00    -0.025 A 
ENDBRANCH   7  14
ENDBRANCH   1   7
BRANCH   5  15
ATOM     15  C   UNL A   1      42.884 -18.804 -37.259  0.00  0.00    +0.050 C 
BRANCH  15  16
ATOM     16  N   UNL A   1      42.099 -20.027 -37.115  0.00  0.00    -0.339 N 
ATOM     17  C   UNL A   1      41.714 -20.582 -35.919  0.00  0.00    +0.023 A 
ATOM     18  C   UNL A   1      41.054 -21.765 -36.188  0.00  0.00    -0.019 A 
ATOM     19  C   UNL A   1      41.039 -21.941 -37.598  0.00  0.00    +0.003 A 
ATOM     20  C   UNL A   1      40.524 -22.940 -38.447  0.00  0.00    -0.052 A 
ATOM     21  C   UNL A   1      40.655 -22.807 -39.832  0.00  0.00    -0.061 A 
ATOM     22  C   UNL A   1      41.287 -21.694 -40.377  0.00  0.00    -0.060 A 
ATOM     23  C   UNL A   1      41.810 -20.689 -39.557  0.00  0.00    -0.038 A 
ATOM     24  C   UNL A   1      41.680 -20.832 -38.163  0.00  0.00    +0.050 A 
ATOM     25  C   UNL A   1      40.489 -22.639 -35.117  0.00  0.00    -0.025 C 
ATOM     26  C   UNL A   1      40.366 -21.877 -33.785  0.00  0.00    -0.049 C 
ATOM     27  C   UNL A   1      41.628 -21.052 -33.478  0.00  0.00    -0.047 C 
ATOM     28  C   UNL A   1      41.906 -19.993 -34.559  0.00  0.00    -0.012 C 
ENDBRANCH  15  16
ENDBRANCH   5  15
TORSDOF 4
ENDMDL
MODEL 13
REMARK VINA RESULT:    -7.088     16.783     20.171
REMARK INTER + INTRA:         -10.680
REMARK INTER:                  -9.486
REMARK INTRA:                  -1.194
REMARK UNBOUND:                -1.935
REMARK  Name = cpd345.pdb
REMARK  5 active torsions:
REMARK  status: ('A' for Active; 'I' for Inactive)
REMARK    1  A    between atoms: C_1  and  C_2
REMARK    2  A    between atoms: C_7  and  C_8
REMARK    3  A    between atoms: C_8  and  N_9
REMARK    4  A    between atoms: C_13  and  C_14
REMARK    5  A    between atoms: C_14  and  N_15
REMARK                            x       y       z     vdW  Elec       q    Type
REMARK                         _______ _______ _______ _____ _____    ______ ____
ROOT
ATOM      1  N   UNL A   1      44.382 -20.168 -38.848  0.00  0.00    -0.349 N 
ATOM      2  C   UNL A   1      44.839 -19.966 -37.590  0.00  0.00    +0.005 A 
ATOM      3  C   UNL A   1      44.090 -20.370 -36.493  0.00  0.00    -0.045 A 
ATOM      4  C   UNL A   1      42.876 -21.013 -36.694  0.00  0.00    -0.054 A 
ATOM      5  C   UNL A   1      42.426 -21.258 -37.994  0.00  0.00    -0.012 A 
ATOM      6  C   UNL A   1      43.205 -20.800 -39.062  0.00  0.00    +0.010 A 
ENDROOT
BRANCH   1   7
ATOM      7  C   UNL A   1      45.206 -19.739 -40.013  0.00  0.00    +0.048 C 
BRANCH   7  14
ATOM      8  C   UNL A   1      44.442 -20.084 -42.926  0.00  0.00    -0.039 C 
ATOM      9  C   UNL A   1      45.292 -21.087 -42.190  0.00  0.00    -0.046 A 
ATOM     10  C   UNL A   1      45.730 -22.225 -42.886  0.00  0.00    -0.059 A 
ATOM     11  C   UNL A   1      46.533 -23.181 -42.265  0.00  0.00    -0.061 A 
ATOM     12  C   UNL A   1      46.918 -23.011 -40.941  0.00  0.00    -0.061 A 
ATOM     13  C   UNL A   1      46.491 -21.889 -40.233  0.00  0.00    -0.057 A 
ATOM     14  C   UNL A   1      45.665 -20.921 -40.837  0.00  0.00    -0.025 A 
ENDBRANCH   7  14
ENDBRANCH   1   7
BRANCH   5  15
ATOM     15  C   UNL A   1      41.119 -21.987 -38.222  0.00  0.00    +0.050 C 
BRANCH  15  16
ATOM     16  N   UNL A   1      40.019 -21.339 -37.514  0.00  0.00    -0.339 N 
ATOM     17  C   UNL A   1      39.369 -20.204 -37.931  0.00  0.00    +0.023 A 
ATOM     18  C   UNL A   1      38.443 -19.859 -36.965  0.00  0.00    -0.019 A 
ATOM     19  C   UNL A   1      38.533 -20.815 -35.919  0.00  0.00    +0.003 A 
ATOM     20  C   UNL A   1      37.859 -20.980 -34.693  0.00  0.00    -0.052 A 
ATOM     21  C   UNL A   1      38.172 -22.068 -33.872  0.00  0.00    -0.061 A 
ATOM     22  C   UNL A   1      39.139 -22.989 -34.259  0.00  0.00    -0.060 A 
ATOM     23  C   UNL A   1      39.825 -22.847 -35.470  0.00  0.00    -0.038 A 
ATOM     24  C   UNL A   1      39.511 -21.747 -36.289  0.00  0.00    +0.050 A 
ATOM     25  C   UNL A   1      37.548 -18.669 -37.090  0.00  0.00    -0.025 C 
ATOM     26  C   UNL A   1      37.495 -18.163 -38.542  0.00  0.00    -0.049 C 
ATOM     27  C   UNL A   1      38.893 -18.106 -39.181  0.00  0.00    -0.047 C 
ATOM     28  C   UNL A   1      39.566 -19.489 -39.229  0.00  0.00    -0.012 C 
ENDBRANCH  15  16
ENDBRANCH   5  15
TORSDOF 4
ENDMDL
MODEL 14
REMARK VINA RESULT:    -7.026     16.708     20.218
REMARK INTER + INTRA:         -10.604
REMARK INTER:                  -9.396
REMARK INTRA:                  -1.208
REMARK UNBOUND:                -1.935
REMARK  Name = cpd345.pdb
REMARK  5 active torsions:
REMARK  status: ('A' for Active; 'I' for Inactive)
REMARK    1  A    between atoms: C_1  and  C_2
REMARK    2  A    between atoms: C_7  and  C_8
REMARK    3  A    between atoms: C_8  and  N_9
REMARK    4  A    between atoms: C_13  and  C_14
REMARK    5  A    between atoms: C_14  and  N_15
REMARK                            x       y       z     vdW  Elec       q    Type
REMARK                         _______ _______ _______ _____ _____    ______ ____
ROOT
ATOM      1  N   UNL A   1      44.410 -19.996 -38.694  0.00  0.00    -0.349 N 
ATOM      2  C   UNL A   1      44.896 -19.680 -37.471  0.00  0.00    +0.005 A 
ATOM      3  C   UNL A   1      44.216 -20.055 -36.321  0.00  0.00    -0.045 A 
ATOM      4  C   UNL A   1      43.039 -20.785 -36.431  0.00  0.00    -0.054 A 
ATOM      5  C   UNL A   1      42.560 -21.145 -37.693  0.00  0.00    -0.012 A 
ATOM      6  C   UNL A   1      43.269 -20.713 -38.820  0.00  0.00    +0.010 A 
ENDROOT
BRANCH   1   7
ATOM      7  C   UNL A   1      45.162 -19.596 -39.917  0.00  0.00    +0.048 C 
BRANCH   7  14
ATOM      8  C   UNL A   1      44.307 -20.156 -42.770  0.00  0.00    -0.039 C 
ATOM      9  C   UNL A   1      45.237 -21.067 -42.013  0.00  0.00    -0.046 A 
ATOM     10  C   UNL A   1      45.710 -22.221 -42.659  0.00  0.00    -0.059 A 
ATOM     11  C   UNL A   1      46.586 -23.095 -42.017  0.00  0.00    -0.061 A 
ATOM     12  C   UNL A   1      47.012 -22.825 -40.722  0.00  0.00    -0.061 A 
ATOM     13  C   UNL A   1      46.552 -21.686 -40.063  0.00  0.00    -0.057 A 
ATOM     14  C   UNL A   1      45.652 -20.801 -40.688  0.00  0.00    -0.025 A 
ENDBRANCH   7  14
ENDBRANCH   1   7
BRANCH   5  15
ATOM     15  C   UNL A   1      41.296 -21.968 -37.820  0.00  0.00    +0.050 C 
BRANCH  15  16
ATOM     16  N   UNL A   1      40.182 -21.344 -37.115  0.00  0.00    -0.339 N 
ATOM     17  C   UNL A   1      39.664 -21.772 -35.917  0.00  0.00    +0.023 A 
ATOM     18  C   UNL A   1      38.578 -20.977 -35.609  0.00  0.00    -0.019 A 
ATOM     19  C   UNL A   1      38.423 -20.031 -36.658  0.00  0.00    +0.003 A 
ATOM     20  C   UNL A   1      37.508 -18.987 -36.898  0.00  0.00    -0.052 A 
ATOM     21  C   UNL A   1      37.642 -18.200 -38.045  0.00  0.00    -0.061 A 
ATOM     22  C   UNL A   1      38.672 -18.438 -38.948  0.00  0.00    -0.060 A 
ATOM     23  C   UNL A   1      39.592 -19.469 -38.736  0.00  0.00    -0.038 A 
ATOM     24  C   UNL A   1      39.449 -20.262 -37.583  0.00  0.00    +0.050 A 
ATOM     25  C   UNL A   1      37.769 -21.156 -34.366  0.00  0.00    -0.025 C 
ATOM     26  C   UNL A   1      38.523 -22.009 -33.331  0.00  0.00    -0.049 C 
ATOM     27  C   UNL A   1      39.177 -23.244 -33.971  0.00  0.00    -0.047 C 
ATOM     28  C   UNL A   1      40.206 -22.862 -35.049  0.00  0.00    -0.012 C 
ENDBRANCH  15  16
ENDBRANCH   5  15
TORSDOF 4
ENDMDL
MODEL 15
REMARK VINA RESULT:    -6.945     16.858     20.349
REMARK INTER + INTRA:         -10.503
REMARK INTER:                  -8.915
REMARK INTRA:                  -1.589
REMARK UNBOUND:                -1.935
REMARK  Name = cpd345.pdb
REMARK  5 active torsions:
REMARK  status: ('A' for Active; 'I' for Inactive)
REMARK    1  A    between atoms: C_1  and  C_2
REMARK    2  A    between atoms: C_7  and  C_8
REMARK    3  A    between atoms: C_8  and  N_9
REMARK    4  A    between atoms: C_13  and  C_14
REMARK    5  A    between atoms: C_14  and  N_15
REMARK                            x       y       z     vdW  Elec       q    Type
REMARK                         _______ _______ _______ _____ _____    ______ ____
ROOT
ATOM      1  N   UNL A   1      46.248 -19.450 -37.100  0.00  0.00    -0.349 N 
ATOM      2  C   UNL A   1      46.895 -19.981 -36.036  0.00  0.00    +0.005 A 
ATOM      3  C   UNL A   1      46.222 -20.221 -34.846  0.00  0.00    -0.045 A 
ATOM      4  C   UNL A   1      44.865 -19.939 -34.761  0.00  0.00    -0.054 A 
ATOM      5  C   UNL A   1      44.190 -19.429 -35.873  0.00  0.00    -0.012 A 
ATOM      6  C   UNL A   1      44.925 -19.176 -37.036  0.00  0.00    +0.010 A 
ENDROOT
BRANCH   1   7
ATOM      7  C   UNL A   1      46.986 -19.211 -38.373  0.00  0.00    +0.048 C 
BRANCH   7  14
ATOM      8  C   UNL A   1      45.527 -18.036 -40.755  0.00  0.00    -0.039 C 
ATOM      9  C   UNL A   1      45.752 -19.517 -40.597  0.00  0.00    -0.046 A 
ATOM     10  C   UNL A   1      45.255 -20.375 -41.591  0.00  0.00    -0.059 A 
ATOM     11  C   UNL A   1      45.446 -21.754 -41.510  0.00  0.00    -0.061 A 
ATOM     12  C   UNL A   1      46.146 -22.297 -40.440  0.00  0.00    -0.061 A 
ATOM     13  C   UNL A   1      46.646 -21.461 -39.442  0.00  0.00    -0.057 A 
ATOM     14  C   UNL A   1      46.448 -20.068 -39.497  0.00  0.00    -0.025 A 
ENDBRANCH   7  14
ENDBRANCH   1   7
BRANCH   5  15
ATOM     15  C   UNL A   1      42.704 -19.149 -35.797  0.00  0.00    +0.050 C 
BRANCH  15  16
ATOM     16  N   UNL A   1      41.922 -20.360 -36.027  0.00  0.00    -0.339 N 
ATOM     17  C   UNL A   1      41.608 -20.877 -37.259  0.00  0.00    +0.023 A 
ATOM     18  C   UNL A   1      40.800 -21.981 -37.069  0.00  0.00    -0.019 A 
ATOM     19  C   UNL A   1      40.609 -22.142 -35.670  0.00  0.00    +0.003 A 
ATOM     20  C   UNL A   1      39.894 -23.069 -34.887  0.00  0.00    -0.052 A 
ATOM     21  C   UNL A   1      39.925 -22.966 -33.493  0.00  0.00    -0.061 A 
ATOM     22  C   UNL A   1      40.660 -21.961 -32.875  0.00  0.00    -0.060 A 
ATOM     23  C   UNL A   1      41.377 -21.027 -33.629  0.00  0.00    -0.038 A 
ATOM     24  C   UNL A   1      41.337 -21.130 -35.032  0.00  0.00    +0.050 A 
ATOM     25  C   UNL A   1      40.268 -22.800 -38.199  0.00  0.00    -0.025 C 
ATOM     26  C   UNL A   1      41.045 -22.526 -39.498  0.00  0.00    -0.049 C 
ATOM     27  C   UNL A   1      41.279 -21.022 -39.721  0.00  0.00    -0.047 C 
ATOM     28  C   UNL A   1      42.099 -20.388 -38.584  0.00  0.00    -0.012 C 
ENDBRANCH  15  16
ENDBRANCH   5  15
TORSDOF 4
ENDMDL
MODEL 16
REMARK VINA RESULT:    -6.806     17.036     20.311
REMARK INTER + INTRA:         -10.331
REMARK INTER:                  -9.132
REMARK INTRA:                  -1.199
REMARK UNBOUND:                -1.935
REMARK  Name = cpd345.pdb
REMARK  5 active torsions:
REMARK  status: ('A' for Active; 'I' for Inactive)
REMARK    1  A    between atoms: C_1  and  C_2
REMARK    2  A    between atoms: C_7  and  C_8
REMARK    3  A    between atoms: C_8  and  N_9
REMARK    4  A    between atoms: C_13  and  C_14
REMARK    5  A    between atoms: C_14  and  N_15
REMARK                            x       y       z     vdW  Elec       q    Type
REMARK                         _______ _______ _______ _____ _____    ______ ____
ROOT
ATOM      1  N   UNL A   1      43.086 -20.535 -40.529  0.00  0.00    -0.349 N 
ATOM      2  C   UNL A   1      42.378 -21.637 -40.869  0.00  0.00    +0.005 A 
ATOM      3  C   UNL A   1      41.245 -21.999 -40.153  0.00  0.00    -0.045 A 
ATOM      4  C   UNL A   1      40.822 -21.202 -39.097  0.00  0.00    -0.054 A 
ATOM      5  C   UNL A   1      41.531 -20.043 -38.773  0.00  0.00    -0.012 A 
ATOM      6  C   UNL A   1      42.684 -19.744 -39.508  0.00  0.00    +0.010 A 
ENDROOT
BRANCH   1   7
ATOM      7  C   UNL A   1      44.292 -20.157 -41.318  0.00  0.00    +0.048 C 
BRANCH   7  14
ATOM      8  C   UNL A   1      46.042 -20.878 -38.951  0.00  0.00    -0.039 C 
ATOM      9  C   UNL A   1      46.127 -21.604 -40.267  0.00  0.00    -0.046 A 
ATOM     10  C   UNL A   1      47.061 -22.644 -40.394  0.00  0.00    -0.059 A 
ATOM     11  C   UNL A   1      47.176 -23.365 -41.582  0.00  0.00    -0.061 A 
ATOM     12  C   UNL A   1      46.352 -23.065 -42.659  0.00  0.00    -0.061 A 
ATOM     13  C   UNL A   1      45.419 -22.035 -42.553  0.00  0.00    -0.057 A 
ATOM     14  C   UNL A   1      45.301 -21.283 -41.368  0.00  0.00    -0.025 A 
ENDBRANCH   7  14
ENDBRANCH   1   7
BRANCH   5  15
ATOM     15  C   UNL A   1      41.058 -19.153 -37.644  0.00  0.00    +0.050 C 
BRANCH  15  16
ATOM     16  N   UNL A   1      41.592 -19.595 -36.359  0.00  0.00    -0.339 N 
ATOM     17  C   UNL A   1      40.907 -20.345 -35.434  0.00  0.00    +0.023 A 
ATOM     18  C   UNL A   1      41.714 -20.498 -34.324  0.00  0.00    -0.019 A 
ATOM     19  C   UNL A   1      42.933 -19.814 -34.576  0.00  0.00    +0.003 A 
ATOM     20  C   UNL A   1      44.110 -19.620 -33.829  0.00  0.00    -0.052 A 
ATOM     21  C   UNL A   1      45.171 -18.896 -34.383  0.00  0.00    -0.061 A 
ATOM     22  C   UNL A   1      45.072 -18.372 -35.668  0.00  0.00    -0.060 A 
ATOM     23  C   UNL A   1      43.913 -18.549 -36.430  0.00  0.00    -0.038 A 
ATOM     24  C   UNL A   1      42.847 -19.272 -35.865  0.00  0.00    +0.050 A 
ATOM     25  C   UNL A   1      41.290 -21.268 -33.115  0.00  0.00    -0.025 C 
ATOM     26  C   UNL A   1      40.085 -22.173 -33.426  0.00  0.00    -0.049 C 
ATOM     27  C   UNL A   1      39.013 -21.439 -34.249  0.00  0.00    -0.047 C 
ATOM     28  C   UNL A   1      39.553 -20.955 -35.606  0.00  0.00    -0.012 C 
ENDBRANCH  15  16
ENDBRANCH   5  15
TORSDOF 4
ENDMDL
MODEL 17
REMARK VINA RESULT:    -6.653     19.006     22.089
REMARK INTER + INTRA:         -10.143
REMARK INTER:                  -8.623
REMARK INTRA:                  -1.520
REMARK UNBOUND:                -1.935
REMARK  Name = cpd345.pdb
REMARK  5 active torsions:
REMARK  status: ('A' for Active; 'I' for Inactive)
REMARK    1  A    between atoms: C_1  and  C_2
REMARK    2  A    between atoms: C_7  and  C_8
REMARK    3  A    between atoms: C_8  and  N_9
REMARK    4  A    between atoms: C_13  and  C_14
REMARK    5  A    between atoms: C_14  and  N_15
REMARK                            x       y       z     vdW  Elec       q    Type
REMARK                         _______ _______ _______ _____ _____    ______ ____
ROOT
ATOM      1  N   UNL A   1      46.901 -17.824 -39.288  0.00  0.00    -0.349 N 
ATOM      2  C   UNL A   1      47.181 -16.676 -38.628  0.00  0.00    +0.005 A 
ATOM      3  C   UNL A   1      46.993 -16.585 -37.255  0.00  0.00    -0.045 A 
ATOM      4  C   UNL A   1      46.539 -17.694 -36.554  0.00  0.00    -0.054 A 
ATOM      5  C   UNL A   1      46.289 -18.890 -37.231  0.00  0.00    -0.012 A 
ATOM      6  C   UNL A   1      46.465 -18.916 -38.618  0.00  0.00    +0.010 A 
ENDROOT
BRANCH   1   7
ATOM      7  C   UNL A   1      47.122 -17.905 -40.759  0.00  0.00    +0.048 C 
BRANCH   7  14
ATOM      8  C   UNL A   1      44.251 -17.926 -41.730  0.00  0.00    -0.039 C 
ATOM      9  C   UNL A   1      45.130 -19.147 -41.787  0.00  0.00    -0.046 A 
ATOM     10  C   UNL A   1      44.586 -20.335 -42.300  0.00  0.00    -0.059 A 
ATOM     11  C   UNL A   1      45.354 -21.495 -42.394  0.00  0.00    -0.061 A 
ATOM     12  C   UNL A   1      46.682 -21.483 -41.986  0.00  0.00    -0.061 A 
ATOM     13  C   UNL A   1      47.240 -20.314 -41.472  0.00  0.00    -0.057 A 
ATOM     14  C   UNL A   1      46.475 -19.138 -41.352  0.00  0.00    -0.025 A 
ENDBRANCH   7  14
ENDBRANCH   1   7
BRANCH   5  15
ATOM     15  C   UNL A   1      45.825 -20.113 -36.468  0.00  0.00    +0.050 C 
BRANCH  15  16
ATOM     16  N   UNL A   1      44.368 -20.182 -36.410  0.00  0.00    -0.339 N 
ATOM     17  C   UNL A   1      43.601 -19.820 -35.331  0.00  0.00    +0.023 A 
ATOM     18  C   UNL A   1      42.281 -20.097 -35.629  0.00  0.00    -0.019 A 
ATOM     19  C   UNL A   1      42.240 -20.652 -36.936  0.00  0.00    +0.003 A 
ATOM     20  C   UNL A   1      41.198 -21.122 -37.759  0.00  0.00    -0.052 A 
ATOM     21  C   UNL A   1      41.491 -21.601 -39.040  0.00  0.00    -0.061 A 
ATOM     22  C   UNL A   1      42.801 -21.612 -39.507  0.00  0.00    -0.060 A 
ATOM     23  C   UNL A   1      43.854 -21.153 -38.708  0.00  0.00    -0.038 A 
ATOM     24  C   UNL A   1      43.554 -20.679 -37.418  0.00  0.00    +0.050 A 
ATOM     25  C   UNL A   1      41.161 -19.823 -34.678  0.00  0.00    -0.025 C 
ATOM     26  C   UNL A   1      41.599 -18.854 -33.567  0.00  0.00    -0.049 C 
ATOM     27  C   UNL A   1      42.980 -19.220 -32.997  0.00  0.00    -0.047 C 
ATOM     28  C   UNL A   1      44.082 -19.175 -34.070  0.00  0.00    -0.012 C 
ENDBRANCH  15  16
ENDBRANCH   5  15
TORSDOF 4
ENDMDL
MODEL 18
REMARK VINA RESULT:    -6.579     18.718     22.241
REMARK INTER + INTRA:         -10.052
REMARK INTER:                  -8.218
REMARK INTRA:                  -1.833
REMARK UNBOUND:                -1.935
REMARK  Name = cpd345.pdb
REMARK  5 active torsions:
REMARK  status: ('A' for Active; 'I' for Inactive)
REMARK    1  A    between atoms: C_1  and  C_2
REMARK    2  A    between atoms: C_7  and  C_8
REMARK    3  A    between atoms: C_8  and  N_9
REMARK    4  A    between atoms: C_13  and  C_14
REMARK    5  A    between atoms: C_14  and  N_15
REMARK                            x       y       z     vdW  Elec       q    Type
REMARK                         _______ _______ _______ _____ _____    ______ ____
ROOT
ATOM      1  N   UNL A   1      43.249 -20.476 -36.189  0.00  0.00    -0.349 N 
ATOM      2  C   UNL A   1      42.123 -21.032 -35.685  0.00  0.00    +0.005 A 
ATOM      3  C   UNL A   1      41.132 -21.513 -36.530  0.00  0.00    -0.045 A 
ATOM      4  C   UNL A   1      41.316 -21.447 -37.905  0.00  0.00    -0.054 A 
ATOM      5  C   UNL A   1      42.497 -20.910 -38.423  0.00  0.00    -0.012 A 
ATOM      6  C   UNL A   1      43.448 -20.411 -37.526  0.00  0.00    +0.010 A 
ENDROOT
BRANCH   1   7
ATOM      7  C   UNL A   1      44.307 -19.977 -35.266  0.00  0.00    +0.048 C 
BRANCH   7  14
ATOM      8  C   UNL A   1      44.277 -16.947 -35.295  0.00  0.00    -0.039 C 
ATOM      9  C   UNL A   1      45.320 -17.750 -36.026  0.00  0.00    -0.046 A 
ATOM     10  C   UNL A   1      46.303 -17.059 -36.752  0.00  0.00    -0.059 A 
ATOM     11  C   UNL A   1      47.305 -17.745 -37.436  0.00  0.00    -0.061 A 
ATOM     12  C   UNL A   1      47.347 -19.133 -37.397  0.00  0.00    -0.061 A 
ATOM     13  C   UNL A   1      46.380 -19.837 -36.682  0.00  0.00    -0.057 A 
ATOM     14  C   UNL A   1      45.348 -19.163 -36.000  0.00  0.00    -0.025 A 
ENDBRANCH   7  14
ENDBRANCH   1   7
BRANCH   5  15
ATOM     15  C   UNL A   1      42.719 -20.864 -39.920  0.00  0.00    +0.050 C 
BRANCH  15  16
ATOM     16  N   UNL A   1      43.973 -20.194 -40.251  0.00  0.00    -0.339 N 
ATOM     17  C   UNL A   1      44.133 -18.837 -40.386  0.00  0.00    +0.023 A 
ATOM     18  C   UNL A   1      45.436 -18.595 -40.774  0.00  0.00    -0.019 A 
ATOM     19  C   UNL A   1      46.095 -19.849 -40.885  0.00  0.00    +0.003 A 
ATOM     20  C   UNL A   1      47.403 -20.231 -41.240  0.00  0.00    -0.052 A 
ATOM     21  C   UNL A   1      47.755 -21.584 -41.230  0.00  0.00    -0.061 A 
ATOM     22  C   UNL A   1      46.826 -22.553 -40.869  0.00  0.00    -0.060 A 
ATOM     23  C   UNL A   1      45.519 -22.201 -40.515  0.00  0.00    -0.038 A 
ATOM     24  C   UNL A   1      45.168 -20.839 -40.533  0.00  0.00    +0.050 A 
ATOM     25  C   UNL A   1      45.969 -17.219 -41.012  0.00  0.00    -0.025 C 
ATOM     26  C   UNL A   1      45.053 -16.153 -40.386  0.00  0.00    -0.049 C 
ATOM     27  C   UNL A   1      43.568 -16.432 -40.673  0.00  0.00    -0.047 C 
ATOM     28  C   UNL A   1      43.110 -17.785 -40.102  0.00  0.00    -0.012 C 
ENDBRANCH  15  16
ENDBRANCH   5  15
TORSDOF 4
ENDMDL
MODEL 19
REMARK VINA RESULT:    -6.573     16.880     19.997
REMARK INTER + INTRA:         -10.045
REMARK INTER:                  -9.181
REMARK INTRA:                  -0.864
REMARK UNBOUND:                -1.935
REMARK  Name = cpd345.pdb
REMARK  5 active torsions:
REMARK  status: ('A' for Active; 'I' for Inactive)
REMARK    1  A    between atoms: C_1  and  C_2
REMARK    2  A    between atoms: C_7  and  C_8
REMARK    3  A    between atoms: C_8  and  N_9
REMARK    4  A    between atoms: C_13  and  C_14
REMARK    5  A    between atoms: C_14  and  N_15
REMARK                            x       y       z     vdW  Elec       q    Type
REMARK                         _______ _______ _______ _____ _____    ______ ____
ROOT
ATOM      1  N   UNL A   1      43.167 -20.492 -39.374  0.00  0.00    -0.349 N 
ATOM      2  C   UNL A   1      42.614 -21.550 -40.011  0.00  0.00    +0.005 A 
ATOM      3  C   UNL A   1      41.350 -22.005 -39.662  0.00  0.00    -0.045 A 
ATOM      4  C   UNL A   1      40.638 -21.346 -38.668  0.00  0.00    -0.054 A 
ATOM      5  C   UNL A   1      41.194 -20.229 -38.039  0.00  0.00    -0.012 A 
ATOM      6  C   UNL A   1      42.485 -19.834 -38.408  0.00  0.00    +0.010 A 
ENDROOT
BRANCH   1   7
ATOM      7  C   UNL A   1      44.520 -20.012 -39.772  0.00  0.00    +0.048 C 
BRANCH   7  14
ATOM      8  C   UNL A   1      44.288 -19.947 -42.793  0.00  0.00    -0.039 C 
ATOM      9  C   UNL A   1      45.101 -20.987 -42.069  0.00  0.00    -0.046 A 
ATOM     10  C   UNL A   1      45.763 -21.964 -42.830  0.00  0.00    -0.059 A 
ATOM     11  C   UNL A   1      46.545 -22.943 -42.219  0.00  0.00    -0.061 A 
ATOM     12  C   UNL A   1      46.686 -22.957 -40.837  0.00  0.00    -0.061 A 
ATOM     13  C   UNL A   1      46.036 -21.997 -40.064  0.00  0.00    -0.057 A 
ATOM     14  C   UNL A   1      45.227 -21.011 -40.661  0.00  0.00    -0.025 A 
ENDBRANCH   7  14
ENDBRANCH   1   7
BRANCH   5  15
ATOM     15  C   UNL A   1      40.412 -19.486 -36.977  0.00  0.00    +0.050 C 
BRANCH  15  16
ATOM     16  N   UNL A   1      40.935 -19.760 -35.642  0.00  0.00    -0.339 N 
ATOM     17  C   UNL A   1      41.828 -18.968 -34.965  0.00  0.00    +0.023 A 
ATOM     18  C   UNL A   1      42.138 -19.592 -33.772  0.00  0.00    -0.019 A 
ATOM     19  C   UNL A   1      41.412 -20.812 -33.721  0.00  0.00    +0.003 A 
ATOM     20  C   UNL A   1      41.325 -21.852 -32.775  0.00  0.00    -0.052 A 
ATOM     21  C   UNL A   1      40.479 -22.938 -33.017  0.00  0.00    -0.061 A 
ATOM     22  C   UNL A   1      39.719 -22.996 -34.180  0.00  0.00    -0.060 A 
ATOM     23  C   UNL A   1      39.789 -21.978 -35.137  0.00  0.00    -0.038 A 
ATOM     24  C   UNL A   1      40.647 -20.891 -34.892  0.00  0.00    +0.050 A 
ATOM     25  C   UNL A   1      43.083 -19.008 -32.774  0.00  0.00    -0.025 C 
ATOM     26  C   UNL A   1      43.314 -17.510 -33.038  0.00  0.00    -0.049 C 
ATOM     27  C   UNL A   1      43.542 -17.218 -34.530  0.00  0.00    -0.047 C 
ATOM     28  C   UNL A   1      42.336 -17.629 -35.393  0.00  0.00    -0.012 C 
ENDBRANCH  15  16
ENDBRANCH   5  15
TORSDOF 4
ENDMDL
MODEL 20
REMARK VINA RESULT:    -6.195     18.911     22.364
REMARK INTER + INTRA:          -9.579
REMARK INTER:                  -7.465
REMARK INTRA:                  -2.114
REMARK UNBOUND:                -1.935
REMARK  Name = cpd345.pdb
REMARK  5 active torsions:
REMARK  status: ('A' for Active; 'I' for Inactive)
REMARK    1  A    between atoms: C_1  and  C_2
REMARK    2  A    between atoms: C_7  and  C_8
REMARK    3  A    between atoms: C_8  and  N_9
REMARK    4  A    between atoms: C_13  and  C_14
REMARK    5  A    between atoms: C_14  and  N_15
REMARK                            x       y       z     vdW  Elec       q    Type
REMARK                         _______ _______ _______ _____ _____    ______ ____
ROOT
ATOM      1  N   UNL A   1      43.085 -20.103 -36.148  0.00  0.00    -0.349 N 
ATOM      2  C   UNL A   1      42.164 -20.952 -35.635  0.00  0.00    +0.005 A 
ATOM      3  C   UNL A   1      41.268 -21.612 -36.465  0.00  0.00    -0.045 A 
ATOM      4  C   UNL A   1      41.341 -21.417 -37.839  0.00  0.00    -0.054 A 
ATOM      5  C   UNL A   1      42.319 -20.573 -38.370  0.00  0.00    -0.012 A 
ATOM      6  C   UNL A   1      43.175 -19.909 -37.485  0.00  0.00    +0.010 A 
ENDROOT
BRANCH   1   7
ATOM      7  C   UNL A   1      44.046 -19.415 -35.241  0.00  0.00    +0.048 C 
BRANCH   7  14
ATOM      8  C   UNL A   1      44.101 -16.424 -35.732  0.00  0.00    -0.039 C 
ATOM      9  C   UNL A   1      45.169 -17.348 -36.257  0.00  0.00    -0.046 A 
ATOM     10  C   UNL A   1      46.217 -16.793 -37.008  0.00  0.00    -0.059 A 
ATOM     11  C   UNL A   1      47.244 -17.593 -37.507  0.00  0.00    -0.061 A 
ATOM     12  C   UNL A   1      47.245 -18.959 -37.255  0.00  0.00    -0.061 A 
ATOM     13  C   UNL A   1      46.213 -19.529 -36.513  0.00  0.00    -0.057 A 
ATOM     14  C   UNL A   1      45.156 -18.740 -36.016  0.00  0.00    -0.025 A 
ENDBRANCH   7  14
ENDBRANCH   1   7
BRANCH   5  15
ATOM     15  C   UNL A   1      42.425 -20.381 -39.868  0.00  0.00    +0.050 C 
BRANCH  15  16
ATOM     16  N   UNL A   1      43.701 -19.776 -40.238  0.00  0.00    -0.339 N 
ATOM     17  C   UNL A   1      44.842 -20.470 -40.555  0.00  0.00    +0.023 A 
ATOM     18  C   UNL A   1      45.854 -19.556 -40.775  0.00  0.00    -0.019 A 
ATOM     19  C   UNL A   1      45.313 -18.257 -40.580  0.00  0.00    +0.003 A 
ATOM     20  C   UNL A   1      45.852 -16.958 -40.658  0.00  0.00    -0.052 A 
ATOM     21  C   UNL A   1      45.029 -15.852 -40.425  0.00  0.00    -0.061 A 
ATOM     22  C   UNL A   1      43.683 -16.025 -40.122  0.00  0.00    -0.060 A 
ATOM     23  C   UNL A   1      43.123 -17.304 -40.036  0.00  0.00    -0.038 A 
ATOM     24  C   UNL A   1      43.957 -18.413 -40.264  0.00  0.00    +0.050 A 
ATOM     25  C   UNL A   1      47.244 -19.958 -41.148  0.00  0.00    -0.025 C 
ATOM     26  C   UNL A   1      47.285 -21.413 -41.649  0.00  0.00    -0.049 C 
ATOM     27  C   UNL A   1      46.458 -22.352 -40.754  0.00  0.00    -0.047 C 
ATOM     28  C   UNL A   1      44.973 -21.952 -40.709  0.00  0.00    -0.012 C 
ENDBRANCH  15  16
ENDBRANCH   5  15
TORSDOF 4
ENDMDL
