REMARK  Name = cpd345.pdb
REMARK  5 active torsions:
REMARK  status: ('A' for Active; 'I' for Inactive)
REMARK    1  A    between atoms: C_1  and  C_2
REMARK    2  A    between atoms: C_7  and  C_8
REMARK    3  A    between atoms: C_8  and  N_9
REMARK    4  A    between atoms: C_13  and  C_14
REMARK    5  A    between atoms: C_14  and  N_15
REMARK                            x       y       z     vdW  Elec       q    Type
REMARK                         _______ _______ _______ _____ _____    ______ ____
ROOT
ATOM      1  N   UNL A   1       1.082  -1.146   0.254  0.00  0.00    -0.349 N 
ATOM      2  C   UNL A   1       1.844  -2.225   0.549  0.00  0.00    +0.005 A 
ATOM      3  C   UNL A   1       1.366  -3.220   1.391  0.00  0.00    -0.045 A 
ATOM      4  C   UNL A   1       0.082  -3.116   1.910  0.00  0.00    -0.054 A 
ATOM      5  C   UNL A   1      -0.718  -2.022   1.572  0.00  0.00    -0.012 A 
ATOM      6  C   UNL A   1      -0.174  -1.033   0.745  0.00  0.00    +0.010 A 
ENDROOT
BRANCH   1   7
ATOM      7  C   UNL A   1       1.608  -0.095  -0.662  0.00  0.00    +0.048 C 
BRANCH   7  14
ATOM      8  C   UNL A   1       4.135  -0.211  -2.331  0.00  0.00    -0.039 C 
ATOM      9  C   UNL A   1       4.108   0.387  -0.949  0.00  0.00    -0.046 A 
ATOM     10  C   UNL A   1       5.305   0.896  -0.421  0.00  0.00    -0.059 A 
ATOM     11  C   UNL A   1       5.341   1.477   0.846  0.00  0.00    -0.061 A 
ATOM     12  C   UNL A   1       4.179   1.567   1.602  0.00  0.00    -0.061 A 
ATOM     13  C   UNL A   1       2.981   1.066   1.096  0.00  0.00    -0.057 A 
ATOM     14  C   UNL A   1       2.928   0.459  -0.174  0.00  0.00    -0.025 A 
ENDBRANCH   7  14
ENDBRANCH   1   7
BRANCH   5  15
ATOM     15  C   UNL A   1      -2.130  -1.918   2.108  0.00  0.00    +0.050 C 
BRANCH  15  16
ATOM     16  N   UNL A   1      -3.068  -1.522   1.062  0.00  0.00    -0.339 N 
ATOM     17  C   UNL A   1      -3.562  -2.353   0.087  0.00  0.00    +0.023 A 
ATOM     18  C   UNL A   1      -4.357  -1.601  -0.756  0.00  0.00    -0.019 A 
ATOM     19  C   UNL A   1      -4.345  -0.262  -0.282  0.00  0.00    +0.003 A 
ATOM     20  C   UNL A   1      -4.953   0.930  -0.722  0.00  0.00    -0.052 A 
ATOM     21  C   UNL A   1      -4.757   2.113  -0.003  0.00  0.00    -0.061 A 
ATOM     22  C   UNL A   1      -3.971   2.120   1.144  0.00  0.00    -0.060 A 
ATOM     23  C   UNL A   1      -3.354   0.951   1.601  0.00  0.00    -0.038 A 
ATOM     24  C   UNL A   1      -3.549  -0.235   0.870  0.00  0.00    +0.050 A 
ATOM     25  C   UNL A   1      -5.066  -2.184  -1.935  0.00  0.00    -0.025 C 
ATOM     26  C   UNL A   1      -5.137  -3.718  -1.838  0.00  0.00    -0.049 C 
ATOM     27  C   UNL A   1      -3.793  -4.329  -1.407  0.00  0.00    -0.047 C 
ATOM     28  C   UNL A   1      -3.345  -3.828  -0.023  0.00  0.00    -0.012 C 
ENDBRANCH  15  16
ENDBRANCH   5  15
TORSDOF 4
