MODEL 1
REMARK VINA RESULT:    -6.623      0.000      0.000
REMARK INTER + INTRA:         -17.821
REMARK INTER:                 -12.044
REMARK INTRA:                  -5.777
REMARK UNBOUND:                -5.777
REMARK  Name = cpd50.pdb
REMARK  16 active torsions:
REMARK  status: ('A' for Active; 'I' for Inactive)
REMARK    1  A    between atoms: C_1  and  C_2
REMARK    2  A    between atoms: C_6  and  N_7
REMARK    3  A    between atoms: N_7  and  C_8
REMARK    4  A    between atoms: C_13  and  C_14
REMARK    5  A    between atoms: N_16  and  C_17
REMARK    6  A    between atoms: C_17  and  C_18
REMARK    7  A    between atoms: N_20  and  C_21
REMARK    8  A    between atoms: C_21  and  C_22
REMARK    9  A    between atoms: C_22  and  C_23
REMARK   10  A    between atoms: C_23  and  C_24
REMARK   11  A    between atoms: C_24  and  C_25
REMARK   12  A    between atoms: C_25  and  C_26
REMARK   13  A    between atoms: C_26  and  C_27
REMARK   14  A    between atoms: C_27  and  N_28
REMARK   15  A    between atoms: N_28  and  C_29
REMARK   16  A    between atoms: C_44  and  C_45
REMARK                            x       y       z     vdW  Elec       q    Type
REMARK                         _______ _______ _______ _____ _____    ______ ____
ROOT
ATOM      1  C   UNL A   1      34.490 -40.449 -29.723  0.00  0.00    +0.230 C 
ATOM      2  O   UNL A   1      34.336 -41.577 -29.262  0.00  0.00    -0.274 OA
ATOM      3  N   UNL A   1      33.468 -39.721 -30.298  0.00  0.00    -0.314 N 
ATOM      4  H   UNL A   1      33.695 -38.889 -30.772  0.00  0.00    +0.000 HD
ENDROOT
BRANCH   1   5
ATOM      5  C   UNL A   1      35.876 -39.789 -29.803  0.00  0.00    +0.088 C 
BRANCH   5   8
ATOM      6  C   UNL A   1      36.836 -38.123 -28.176  0.00  0.00    +0.246 C 
ATOM      7  O   UNL A   1      36.569 -37.627 -27.086  0.00  0.00    -0.270 OA
ATOM      8  N   UNL A   1      36.354 -39.374 -28.481  0.00  0.00    -0.303 N 
ATOM      9  H   UNL A   1      36.328 -40.040 -27.758  0.00  0.00    +0.000 HD
BRANCH   6  15
ATOM     10  C   UNL A   1      37.079 -36.429 -30.044  0.00  0.00    +0.044 A 
ATOM     11  C   UNL A   1      37.944 -35.772 -30.936  0.00  0.00    -0.040 A 
ATOM     12  C   UNL A   1      39.303 -36.095 -31.004  0.00  0.00    -0.060 A 
ATOM     13  C   UNL A   1      39.831 -37.078 -30.172  0.00  0.00    -0.061 A 
ATOM     14  C   UNL A   1      39.003 -37.723 -29.256  0.00  0.00    -0.048 A 
ATOM     15  C   UNL A   1      37.645 -37.381 -29.170  0.00  0.00    +0.058 A 
BRANCH  10  16
ATOM     16  N   UNL A   1      35.706 -36.078 -29.994  0.00  0.00    -0.314 N 
ATOM     17  H   UNL A   1      35.216 -36.360 -29.188  0.00  0.00    +0.000 HD
BRANCH  16  23
ATOM     18  C   UNL A   1      33.278 -31.936 -31.401  0.00  0.00    -0.039 C 
ATOM     19  C   UNL A   1      33.722 -33.356 -31.625  0.00  0.00    -0.046 A 
ATOM     20  C   UNL A   1      33.285 -34.022 -32.780  0.00  0.00    -0.058 A 
ATOM     21  C   UNL A   1      33.654 -35.341 -33.023  0.00  0.00    -0.060 A 
ATOM     22  C   UNL A   1      34.469 -36.011 -32.116  0.00  0.00    -0.040 A 
ATOM     23  C   UNL A   1      34.952 -35.367 -30.967  0.00  0.00    +0.035 A 
ATOM     24  C   UNL A   1      34.579 -34.024 -30.717  0.00  0.00    -0.026 A 
ATOM     25  C   UNL A   1      35.059 -33.331 -29.465  0.00  0.00    -0.038 C 
ENDBRANCH  16  23
ENDBRANCH  10  16
ENDBRANCH   6  15
ENDBRANCH   5   8
ENDBRANCH   1   5
BRANCH   3  26
ATOM     26  C   UNL A   1      32.078 -40.124 -30.236  0.00  0.00    +0.012 C 
BRANCH  26  27
ATOM     27  C   UNL A   1      31.414 -39.919 -31.595  0.00  0.00    -0.037 C 
BRANCH  27  28
ATOM     28  C   UNL A   1      31.866 -38.623 -32.272  0.00  0.00    -0.052 C 
BRANCH  28  29
ATOM     29  C   UNL A   1      30.856 -38.202 -33.342  0.00  0.00    -0.053 C 
BRANCH  29  30
ATOM     30  C   UNL A   1      30.235 -36.825 -33.102  0.00  0.00    -0.052 C 
BRANCH  30  31
ATOM     31  C   UNL A   1      28.948 -36.873 -32.277  0.00  0.00    -0.037 C 
BRANCH  31  32
ATOM     32  C   UNL A   1      28.747 -35.570 -31.500  0.00  0.00    +0.009 C 
BRANCH  32  33
ATOM     33  N   UNL A   1      29.909 -34.695 -31.708  0.00  0.00    -0.343 N 
ATOM     34  H   UNL A   1      30.356 -34.563 -32.575  0.00  0.00    +0.000 HD
BRANCH  33  35
ATOM     35  C   UNL A   1      30.308 -34.063 -30.491  0.00  0.00    +0.041 A 
ATOM     36  C   UNL A   1      30.010 -32.699 -30.309  0.00  0.00    -0.005 A 
ATOM     37  C   UNL A   1      30.449 -32.091 -29.132  0.00  0.00    +0.047 A 
ATOM     38  N   UNL A   1      31.178 -32.739 -28.191  0.00  0.00    -0.251 NA
ATOM     39  C   UNL A   1      31.476 -34.030 -28.371  0.00  0.00    +0.074 A 
ATOM     40  C   UNL A   1      32.221 -34.659 -27.385  0.00  0.00    -0.017 A 
ATOM     41  C   UNL A   1      32.581 -35.999 -27.492  0.00  0.00    +0.043 A 
ATOM     42 CL   UNL A   1      33.508 -36.742 -26.248  0.00  0.00    -0.083 Cl
ATOM     43  C   UNL A   1      32.198 -36.739 -28.599  0.00  0.00    -0.043 A 
ATOM     44  C   UNL A   1      31.449 -36.124 -29.602  0.00  0.00    -0.049 A 
ATOM     45  C   UNL A   1      31.072 -34.759 -29.510  0.00  0.00    +0.022 A 
ATOM     46  C   UNL A   1      30.188 -30.635 -28.847  0.00  0.00    -0.010 C 
ATOM     47  C   UNL A   1      29.021 -30.065 -29.643  0.00  0.00    -0.047 C 
ATOM     48  C   UNL A   1      29.168 -30.432 -31.112  0.00  0.00    -0.049 C 
ATOM     49  C   UNL A   1      29.140 -31.949 -31.291  0.00  0.00    -0.024 C 
ENDBRANCH  33  35
ENDBRANCH  32  33
ENDBRANCH  31  32
ENDBRANCH  30  31
ENDBRANCH  29  30
ENDBRANCH  28  29
ENDBRANCH  27  28
ENDBRANCH  26  27
ENDBRANCH   3  26
TORSDOF 14
ENDMDL
MODEL 2
REMARK VINA RESULT:    -6.561     17.704     20.651
REMARK INTER + INTRA:         -17.707
REMARK INTER:                 -12.238
REMARK INTRA:                  -5.469
REMARK UNBOUND:                -5.777
REMARK  Name = cpd50.pdb
REMARK  16 active torsions:
REMARK  status: ('A' for Active; 'I' for Inactive)
REMARK    1  A    between atoms: C_1  and  C_2
REMARK    2  A    between atoms: C_6  and  N_7
REMARK    3  A    between atoms: N_7  and  C_8
REMARK    4  A    between atoms: C_13  and  C_14
REMARK    5  A    between atoms: N_16  and  C_17
REMARK    6  A    between atoms: C_17  and  C_18
REMARK    7  A    between atoms: N_20  and  C_21
REMARK    8  A    between atoms: C_21  and  C_22
REMARK    9  A    between atoms: C_22  and  C_23
REMARK   10  A    between atoms: C_23  and  C_24
REMARK   11  A    between atoms: C_24  and  C_25
REMARK   12  A    between atoms: C_25  and  C_26
REMARK   13  A    between atoms: C_26  and  C_27
REMARK   14  A    between atoms: C_27  and  N_28
REMARK   15  A    between atoms: N_28  and  C_29
REMARK   16  A    between atoms: C_44  and  C_45
REMARK                            x       y       z     vdW  Elec       q    Type
REMARK                         _______ _______ _______ _____ _____    ______ ____
ROOT
ATOM      1  C   UNL A   1      45.472 -18.296 -41.111  0.00  0.00    +0.230 C 
ATOM      2  O   UNL A   1      44.972 -19.034 -41.957  0.00  0.00    -0.274 OA
ATOM      3  N   UNL A   1      44.818 -17.203 -40.579  0.00  0.00    -0.314 N 
ATOM      4  H   UNL A   1      45.330 -16.578 -40.018  0.00  0.00    +0.000 HD
ENDROOT
BRANCH   1   5
ATOM      5  C   UNL A   1      46.930 -18.461 -40.652  0.00  0.00    +0.088 C 
BRANCH   5   8
ATOM      6  C   UNL A   1      46.664 -20.424 -39.096  0.00  0.00    +0.246 C 
ATOM      7  O   UNL A   1      46.351 -21.609 -39.140  0.00  0.00    -0.270 OA
ATOM      8  N   UNL A   1      47.206 -19.831 -40.212  0.00  0.00    -0.303 N 
ATOM      9  H   UNL A   1      47.826 -20.368 -40.757  0.00  0.00    +0.000 HD
BRANCH   6  15
ATOM     10  C   UNL A   1      45.156 -19.215 -37.460  0.00  0.00    +0.044 A 
ATOM     11  C   UNL A   1      45.059 -18.472 -36.270  0.00  0.00    -0.040 A 
ATOM     12  C   UNL A   1      46.198 -18.095 -35.553  0.00  0.00    -0.060 A 
ATOM     13  C   UNL A   1      47.463 -18.460 -36.006  0.00  0.00    -0.061 A 
ATOM     14  C   UNL A   1      47.587 -19.223 -37.165  0.00  0.00    -0.048 A 
ATOM     15  C   UNL A   1      46.442 -19.624 -37.871  0.00  0.00    +0.058 A 
BRANCH  10  16
ATOM     16  N   UNL A   1      43.982 -19.587 -38.164  0.00  0.00    -0.314 N 
ATOM     17  H   UNL A   1      43.797 -19.088 -38.992  0.00  0.00    +0.000 HD
BRANCH  16  23
ATOM     18  C   UNL A   1      40.628 -23.029 -39.555  0.00  0.00    -0.039 C 
ATOM     19  C   UNL A   1      41.364 -22.239 -38.507  0.00  0.00    -0.046 A 
ATOM     20  C   UNL A   1      41.028 -22.435 -37.158  0.00  0.00    -0.058 A 
ATOM     21  C   UNL A   1      41.667 -21.717 -36.154  0.00  0.00    -0.060 A 
ATOM     22  C   UNL A   1      42.655 -20.793 -36.484  0.00  0.00    -0.040 A 
ATOM     23  C   UNL A   1      43.041 -20.595 -37.818  0.00  0.00    +0.035 A 
ATOM     24  C   UNL A   1      42.393 -21.326 -38.842  0.00  0.00    -0.026 A 
ATOM     25  C   UNL A   1      42.770 -21.094 -40.286  0.00  0.00    -0.038 C 
ENDBRANCH  16  23
ENDBRANCH  10  16
ENDBRANCH   6  15
ENDBRANCH   5   8
ENDBRANCH   1   5
BRANCH   3  26
ATOM     26  C   UNL A   1      43.413 -16.933 -40.809  0.00  0.00    +0.012 C 
BRANCH  26  27
ATOM     27  C   UNL A   1      42.702 -16.704 -39.479  0.00  0.00    -0.037 C 
BRANCH  27  28
ATOM     28  C   UNL A   1      41.295 -17.307 -39.462  0.00  0.00    -0.052 C 
BRANCH  28  29
ATOM     29  C   UNL A   1      40.947 -17.804 -38.057  0.00  0.00    -0.053 C 
BRANCH  29  30
ATOM     30  C   UNL A   1      39.815 -18.831 -38.024  0.00  0.00    -0.052 C 
BRANCH  30  31
ATOM     31  C   UNL A   1      38.723 -18.501 -37.004  0.00  0.00    -0.037 C 
BRANCH  31  32
ATOM     32  C   UNL A   1      39.229 -17.499 -35.964  0.00  0.00    +0.009 C 
BRANCH  32  33
ATOM     33  N   UNL A   1      38.805 -17.932 -34.625  0.00  0.00    -0.343 N 
ATOM     34  H   UNL A   1      37.957 -17.671 -34.200  0.00  0.00    +0.000 HD
BRANCH  33  35
ATOM     35  C   UNL A   1      39.783 -18.779 -34.019  0.00  0.00    +0.041 A 
ATOM     36  C   UNL A   1      39.431 -20.108 -33.716  0.00  0.00    -0.005 A 
ATOM     37  C   UNL A   1      40.386 -20.904 -33.083  0.00  0.00    +0.047 A 
ATOM     38  N   UNL A   1      41.606 -20.443 -32.715  0.00  0.00    -0.251 NA
ATOM     39  C   UNL A   1      41.936 -19.176 -32.988  0.00  0.00    +0.074 A 
ATOM     40  C   UNL A   1      43.194 -18.743 -32.597  0.00  0.00    -0.017 A 
ATOM     41  C   UNL A   1      43.618 -17.439 -32.836  0.00  0.00    +0.043 A 
ATOM     42 CL   UNL A   1      45.187 -16.941 -32.333  0.00  0.00    -0.083 Cl
ATOM     43  C   UNL A   1      42.782 -16.538 -33.474  0.00  0.00    -0.043 A 
ATOM     44  C   UNL A   1      41.512 -16.955 -33.874  0.00  0.00    -0.049 A 
ATOM     45  C   UNL A   1      41.063 -18.280 -33.640  0.00  0.00    +0.022 A 
ATOM     46  C   UNL A   1      40.104 -22.335 -32.709  0.00  0.00    -0.010 C 
ATOM     47  C   UNL A   1      38.966 -22.954 -33.510  0.00  0.00    -0.047 C 
ATOM     48  C   UNL A   1      37.763 -22.023 -33.505  0.00  0.00    -0.049 C 
ATOM     49  C   UNL A   1      38.113 -20.692 -34.169  0.00  0.00    -0.024 C 
ENDBRANCH  33  35
ENDBRANCH  32  33
ENDBRANCH  31  32
ENDBRANCH  30  31
ENDBRANCH  29  30
ENDBRANCH  28  29
ENDBRANCH  27  28
ENDBRANCH  26  27
ENDBRANCH   3  26
TORSDOF 14
ENDMDL
MODEL 3
REMARK VINA RESULT:    -6.546     19.040     21.961
REMARK INTER + INTRA:         -17.681
REMARK INTER:                 -12.590
REMARK INTRA:                  -5.091
REMARK UNBOUND:                -5.777
REMARK  Name = cpd50.pdb
REMARK  16 active torsions:
REMARK  status: ('A' for Active; 'I' for Inactive)
REMARK    1  A    between atoms: C_1  and  C_2
REMARK    2  A    between atoms: C_6  and  N_7
REMARK    3  A    between atoms: N_7  and  C_8
REMARK    4  A    between atoms: C_13  and  C_14
REMARK    5  A    between atoms: N_16  and  C_17
REMARK    6  A    between atoms: C_17  and  C_18
REMARK    7  A    between atoms: N_20  and  C_21
REMARK    8  A    between atoms: C_21  and  C_22
REMARK    9  A    between atoms: C_22  and  C_23
REMARK   10  A    between atoms: C_23  and  C_24
REMARK   11  A    between atoms: C_24  and  C_25
REMARK   12  A    between atoms: C_25  and  C_26
REMARK   13  A    between atoms: C_26  and  C_27
REMARK   14  A    between atoms: C_27  and  N_28
REMARK   15  A    between atoms: N_28  and  C_29
REMARK   16  A    between atoms: C_44  and  C_45
REMARK                            x       y       z     vdW  Elec       q    Type
REMARK                         _______ _______ _______ _____ _____    ______ ____
ROOT
ATOM      1  C   UNL A   1      43.719 -15.381 -38.888  0.00  0.00    +0.230 C 
ATOM      2  O   UNL A   1      43.911 -14.657 -39.861  0.00  0.00    -0.274 OA
ATOM      3  N   UNL A   1      42.624 -16.211 -38.766  0.00  0.00    -0.314 N 
ATOM      4  H   UNL A   1      42.462 -16.651 -37.901  0.00  0.00    +0.000 HD
ENDROOT
BRANCH   1   5
ATOM      5  C   UNL A   1      44.634 -15.337 -37.653  0.00  0.00    +0.088 C 
BRANCH   5   8
ATOM      6  C   UNL A   1      47.003 -15.940 -38.262  0.00  0.00    +0.246 C 
ATOM      7  O   UNL A   1      47.817 -15.726 -39.154  0.00  0.00    -0.270 OA
ATOM      8  N   UNL A   1      46.017 -15.014 -38.017  0.00  0.00    -0.303 N 
ATOM      9  H   UNL A   1      46.257 -14.062 -38.091  0.00  0.00    +0.000 HD
BRANCH   6  15
ATOM     10  C   UNL A   1      47.147 -18.461 -38.069  0.00  0.00    +0.044 A 
ATOM     11  C   UNL A   1      47.209 -19.579 -37.219  0.00  0.00    -0.040 A 
ATOM     12  C   UNL A   1      47.116 -19.443 -35.830  0.00  0.00    -0.060 A 
ATOM     13  C   UNL A   1      46.970 -18.182 -35.259  0.00  0.00    -0.061 A 
ATOM     14  C   UNL A   1      46.938 -17.054 -36.076  0.00  0.00    -0.048 A 
ATOM     15  C   UNL A   1      47.056 -17.188 -37.468  0.00  0.00    +0.058 A 
BRANCH  10  16
ATOM     16  N   UNL A   1      47.248 -18.629 -39.474  0.00  0.00    -0.314 N 
ATOM     17  H   UNL A   1      48.145 -18.508 -39.861  0.00  0.00    +0.000 HD
BRANCH  16  23
ATOM     18  C   UNL A   1      45.094 -21.893 -42.595  0.00  0.00    -0.039 C 
ATOM     19  C   UNL A   1      45.194 -20.535 -41.954  0.00  0.00    -0.046 A 
ATOM     20  C   UNL A   1      44.297 -19.534 -42.359  0.00  0.00    -0.058 A 
ATOM     21  C   UNL A   1      44.360 -18.259 -41.809  0.00  0.00    -0.060 A 
ATOM     22  C   UNL A   1      45.319 -17.966 -40.844  0.00  0.00    -0.040 A 
ATOM     23  C   UNL A   1      46.210 -18.951 -40.391  0.00  0.00    +0.035 A 
ATOM     24  C   UNL A   1      46.147 -20.251 -40.947  0.00  0.00    -0.026 A 
ATOM     25  C   UNL A   1      47.126 -21.309 -40.497  0.00  0.00    -0.038 C 
ENDBRANCH  16  23
ENDBRANCH  10  16
ENDBRANCH   6  15
ENDBRANCH   5   8
ENDBRANCH   1   5
BRANCH   3  26
ATOM     26  C   UNL A   1      41.701 -16.466 -39.854  0.00  0.00    +0.012 C 
BRANCH  26  27
ATOM     27  C   UNL A   1      40.517 -17.287 -39.352  0.00  0.00    -0.037 C 
BRANCH  27  28
ATOM     28  C   UNL A   1      40.911 -18.249 -38.229  0.00  0.00    -0.052 C 
BRANCH  28  29
ATOM     29  C   UNL A   1      40.890 -19.694 -38.734  0.00  0.00    -0.053 C 
BRANCH  29  30
ATOM     30  C   UNL A   1      42.139 -20.095 -39.520  0.00  0.00    -0.052 C 
BRANCH  30  31
ATOM     31  C   UNL A   1      43.112 -20.960 -38.716  0.00  0.00    -0.037 C 
BRANCH  31  32
ATOM     32  C   UNL A   1      43.610 -20.215 -37.475  0.00  0.00    +0.009 C 
BRANCH  32  33
ATOM     33  N   UNL A   1      43.358 -21.036 -36.282  0.00  0.00    -0.343 N 
ATOM     34  H   UNL A   1      43.875 -21.837 -36.040  0.00  0.00    +0.000 HD
BRANCH  33  35
ATOM     35  C   UNL A   1      42.265 -20.521 -35.519  0.00  0.00    +0.041 A 
ATOM     36  C   UNL A   1      41.039 -21.213 -35.544  0.00  0.00    -0.005 A 
ATOM     37  C   UNL A   1      39.973 -20.668 -34.828  0.00  0.00    +0.047 A 
ATOM     38  N   UNL A   1      40.055 -19.494 -34.157  0.00  0.00    -0.251 NA
ATOM     39  C   UNL A   1      41.215 -18.827 -34.147  0.00  0.00    +0.074 A 
ATOM     40  C   UNL A   1      41.260 -17.631 -33.447  0.00  0.00    -0.017 A 
ATOM     41  C   UNL A   1      42.424 -16.869 -33.388  0.00  0.00    +0.043 A 
ATOM     42 CL   UNL A   1      42.438 -15.390 -32.510  0.00  0.00    -0.083 Cl
ATOM     43  C   UNL A   1      43.572 -17.295 -34.036  0.00  0.00    -0.043 A 
ATOM     44  C   UNL A   1      43.545 -18.496 -34.746  0.00  0.00    -0.049 A 
ATOM     45  C   UNL A   1      42.369 -19.286 -34.816  0.00  0.00    +0.022 A 
ATOM     46  C   UNL A   1      38.619 -21.327 -34.798  0.00  0.00    -0.010 C 
ATOM     47  C   UNL A   1      38.663 -22.811 -35.141  0.00  0.00    -0.047 C 
ATOM     48  C   UNL A   1      39.471 -23.023 -36.413  0.00  0.00    -0.049 C 
ATOM     49  C   UNL A   1      40.913 -22.561 -36.215  0.00  0.00    -0.024 C 
ENDBRANCH  33  35
ENDBRANCH  32  33
ENDBRANCH  31  32
ENDBRANCH  30  31
ENDBRANCH  29  30
ENDBRANCH  28  29
ENDBRANCH  27  28
ENDBRANCH  26  27
ENDBRANCH   3  26
TORSDOF 14
ENDMDL
MODEL 4
REMARK VINA RESULT:    -6.369     19.285     22.370
REMARK INTER + INTRA:         -17.358
REMARK INTER:                 -12.186
REMARK INTRA:                  -5.172
REMARK UNBOUND:                -5.777
REMARK  Name = cpd50.pdb
REMARK  16 active torsions:
REMARK  status: ('A' for Active; 'I' for Inactive)
REMARK    1  A    between atoms: C_1  and  C_2
REMARK    2  A    between atoms: C_6  and  N_7
REMARK    3  A    between atoms: N_7  and  C_8
REMARK    4  A    between atoms: C_13  and  C_14
REMARK    5  A    between atoms: N_16  and  C_17
REMARK    6  A    between atoms: C_17  and  C_18
REMARK    7  A    between atoms: N_20  and  C_21
REMARK    8  A    between atoms: C_21  and  C_22
REMARK    9  A    between atoms: C_22  and  C_23
REMARK   10  A    between atoms: C_23  and  C_24
REMARK   11  A    between atoms: C_24  and  C_25
REMARK   12  A    between atoms: C_25  and  C_26
REMARK   13  A    between atoms: C_26  and  C_27
REMARK   14  A    between atoms: C_27  and  N_28
REMARK   15  A    between atoms: N_28  and  C_29
REMARK   16  A    between atoms: C_44  and  C_45
REMARK                            x       y       z     vdW  Elec       q    Type
REMARK                         _______ _______ _______ _____ _____    ______ ____
ROOT
ATOM      1  C   UNL A   1      41.824 -15.586 -37.497  0.00  0.00    +0.230 C 
ATOM      2  O   UNL A   1      41.462 -14.747 -36.676  0.00  0.00    -0.274 OA
ATOM      3  N   UNL A   1      41.195 -16.803 -37.663  0.00  0.00    -0.314 N 
ATOM      4  H   UNL A   1      41.626 -17.478 -38.235  0.00  0.00    +0.000 HD
ENDROOT
BRANCH   1   5
ATOM      5  C   UNL A   1      43.095 -15.397 -38.340  0.00  0.00    +0.088 C 
BRANCH   5   8
ATOM      6  C   UNL A   1      43.537 -15.617 -40.810  0.00  0.00    +0.246 C 
ATOM      7  O   UNL A   1      42.976 -16.021 -41.823  0.00  0.00    -0.270 OA
ATOM      8  N   UNL A   1      42.779 -15.173 -39.754  0.00  0.00    -0.303 N 
ATOM      9  H   UNL A   1      41.961 -14.666 -39.962  0.00  0.00    +0.000 HD
BRANCH   6  15
ATOM     10  C   UNL A   1      45.737 -16.785 -40.345  0.00  0.00    +0.044 A 
ATOM     11  C   UNL A   1      47.138 -16.685 -40.293  0.00  0.00    -0.040 A 
ATOM     12  C   UNL A   1      47.791 -15.471 -40.523  0.00  0.00    -0.060 A 
ATOM     13  C   UNL A   1      47.056 -14.327 -40.821  0.00  0.00    -0.061 A 
ATOM     14  C   UNL A   1      45.668 -14.403 -40.911  0.00  0.00    -0.048 A 
ATOM     15  C   UNL A   1      45.014 -15.628 -40.705  0.00  0.00    +0.058 A 
BRANCH  10  16
ATOM     16  N   UNL A   1      45.102 -18.031 -40.111  0.00  0.00    -0.314 N 
ATOM     17  H   UNL A   1      44.651 -18.131 -39.242  0.00  0.00    +0.000 HD
BRANCH  16  23
ATOM     18  C   UNL A   1      46.501 -22.697 -41.256  0.00  0.00    -0.039 C 
ATOM     19  C   UNL A   1      45.769 -21.417 -41.559  0.00  0.00    -0.046 A 
ATOM     20  C   UNL A   1      45.096 -21.302 -42.785  0.00  0.00    -0.058 A 
ATOM     21  C   UNL A   1      44.420 -20.134 -43.119  0.00  0.00    -0.060 A 
ATOM     22  C   UNL A   1      44.404 -19.064 -42.229  0.00  0.00    -0.040 A 
ATOM     23  C   UNL A   1      45.038 -19.154 -40.980  0.00  0.00    +0.035 A 
ATOM     24  C   UNL A   1      45.726 -20.343 -40.637  0.00  0.00    -0.026 A 
ATOM     25  C   UNL A   1      46.446 -20.439 -39.314  0.00  0.00    -0.038 C 
ENDBRANCH  16  23
ENDBRANCH  10  16
ENDBRANCH   6  15
ENDBRANCH   5   8
ENDBRANCH   1   5
BRANCH   3  26
ATOM     26  C   UNL A   1      39.932 -17.132 -37.036  0.00  0.00    +0.012 C 
BRANCH  26  27
ATOM     27  C   UNL A   1      40.062 -18.433 -36.250  0.00  0.00    -0.037 C 
BRANCH  27  28
ATOM     28  C   UNL A   1      39.002 -19.462 -36.650  0.00  0.00    -0.052 C 
BRANCH  28  29
ATOM     29  C   UNL A   1      38.990 -20.626 -35.656  0.00  0.00    -0.053 C 
BRANCH  29  30
ATOM     30  C   UNL A   1      39.339 -20.223 -34.223  0.00  0.00    -0.052 C 
BRANCH  30  31
ATOM     31  C   UNL A   1      40.315 -21.184 -33.541  0.00  0.00    -0.037 C 
BRANCH  31  32
ATOM     32  C   UNL A   1      41.659 -20.502 -33.274  0.00  0.00    +0.009 C 
BRANCH  32  33
ATOM     33  N   UNL A   1      42.718 -21.209 -34.009  0.00  0.00    -0.343 N 
ATOM     34  H   UNL A   1      43.101 -22.073 -33.734  0.00  0.00    +0.000 HD
BRANCH  33  35
ATOM     35  C   UNL A   1      43.119 -20.482 -35.170  0.00  0.00    +0.041 A 
ATOM     36  C   UNL A   1      43.924 -19.338 -35.006  0.00  0.00    -0.005 A 
ATOM     37  C   UNL A   1      44.267 -18.617 -36.151  0.00  0.00    +0.047 A 
ATOM     38  N   UNL A   1      43.827 -18.942 -37.390  0.00  0.00    -0.251 NA
ATOM     39  C   UNL A   1      43.049 -20.019 -37.545  0.00  0.00    +0.074 A 
ATOM     40  C   UNL A   1      42.621 -20.321 -38.829  0.00  0.00    -0.017 A 
ATOM     41  C   UNL A   1      41.804 -21.420 -39.081  0.00  0.00    +0.043 A 
ATOM     42 CL   UNL A   1      41.293 -21.759 -40.689  0.00  0.00    -0.083 Cl
ATOM     43  C   UNL A   1      41.397 -22.242 -38.042  0.00  0.00    -0.043 A 
ATOM     44  C   UNL A   1      41.817 -21.954 -36.744  0.00  0.00    -0.049 A 
ATOM     45  C   UNL A   1      42.650 -20.839 -36.468  0.00  0.00    +0.022 A 
ATOM     46  C   UNL A   1      45.116 -17.374 -36.080  0.00  0.00    -0.010 C 
ATOM     47  C   UNL A   1      45.957 -17.290 -34.813  0.00  0.00    -0.047 C 
ATOM     48  C   UNL A   1      45.085 -17.562 -33.595  0.00  0.00    -0.049 C 
ATOM     49  C   UNL A   1      44.501 -18.972 -33.658  0.00  0.00    -0.024 C 
ENDBRANCH  33  35
ENDBRANCH  32  33
ENDBRANCH  31  32
ENDBRANCH  30  31
ENDBRANCH  29  30
ENDBRANCH  28  29
ENDBRANCH  27  28
ENDBRANCH  26  27
ENDBRANCH   3  26
TORSDOF 14
ENDMDL
MODEL 5
REMARK VINA RESULT:    -6.366     18.035     21.184
REMARK INTER + INTRA:         -17.352
REMARK INTER:                 -12.389
REMARK INTRA:                  -4.964
REMARK UNBOUND:                -5.777
REMARK  Name = cpd50.pdb
REMARK  16 active torsions:
REMARK  status: ('A' for Active; 'I' for Inactive)
REMARK    1  A    between atoms: C_1  and  C_2
REMARK    2  A    between atoms: C_6  and  N_7
REMARK    3  A    between atoms: N_7  and  C_8
REMARK    4  A    between atoms: C_13  and  C_14
REMARK    5  A    between atoms: N_16  and  C_17
REMARK    6  A    between atoms: C_17  and  C_18
REMARK    7  A    between atoms: N_20  and  C_21
REMARK    8  A    between atoms: C_21  and  C_22
REMARK    9  A    between atoms: C_22  and  C_23
REMARK   10  A    between atoms: C_23  and  C_24
REMARK   11  A    between atoms: C_24  and  C_25
REMARK   12  A    between atoms: C_25  and  C_26
REMARK   13  A    between atoms: C_26  and  C_27
REMARK   14  A    between atoms: C_27  and  N_28
REMARK   15  A    between atoms: N_28  and  C_29
REMARK   16  A    between atoms: C_44  and  C_45
REMARK                            x       y       z     vdW  Elec       q    Type
REMARK                         _______ _______ _______ _____ _____    ______ ____
ROOT
ATOM      1  C   UNL A   1      39.309 -22.866 -36.186  0.00  0.00    +0.230 C 
ATOM      2  O   UNL A   1      39.249 -23.931 -36.794  0.00  0.00    -0.274 OA
ATOM      3  N   UNL A   1      39.822 -21.709 -36.735  0.00  0.00    -0.314 N 
ATOM      4  H   UNL A   1      39.970 -20.935 -36.145  0.00  0.00    +0.000 HD
ENDROOT
BRANCH   1   5
ATOM      5  C   UNL A   1      38.921 -22.758 -34.702  0.00  0.00    +0.088 C 
BRANCH   5   8
ATOM      6  C   UNL A   1      40.308 -22.176 -32.682  0.00  0.00    +0.246 C 
ATOM      7  O   UNL A   1      40.809 -22.728 -31.707  0.00  0.00    -0.270 OA
ATOM      8  N   UNL A   1      40.087 -22.905 -33.826  0.00  0.00    -0.303 N 
ATOM      9  H   UNL A   1      40.762 -23.576 -34.076  0.00  0.00    +0.000 HD
BRANCH   6  15
ATOM     10  C   UNL A   1      40.869 -19.709 -32.561  0.00  0.00    +0.044 A 
ATOM     11  C   UNL A   1      40.387 -18.389 -32.533  0.00  0.00    -0.040 A 
ATOM     12  C   UNL A   1      39.016 -18.114 -32.506  0.00  0.00    -0.060 A 
ATOM     13  C   UNL A   1      38.094 -19.157 -32.517  0.00  0.00    -0.061 A 
ATOM     14  C   UNL A   1      38.543 -20.474 -32.577  0.00  0.00    -0.048 A 
ATOM     15  C   UNL A   1      39.918 -20.749 -32.629  0.00  0.00    +0.058 A 
BRANCH  10  16
ATOM     16  N   UNL A   1      42.265 -19.956 -32.591  0.00  0.00    -0.314 N 
ATOM     17  H   UNL A   1      42.670 -20.256 -31.745  0.00  0.00    +0.000 HD
BRANCH  16  23
ATOM     18  C   UNL A   1      46.082 -17.607 -34.815  0.00  0.00    -0.039 C 
ATOM     19  C   UNL A   1      44.984 -18.636 -34.797  0.00  0.00    -0.046 A 
ATOM     20  C   UNL A   1      44.769 -19.409 -35.949  0.00  0.00    -0.058 A 
ATOM     21  C   UNL A   1      43.756 -20.360 -35.989  0.00  0.00    -0.060 A 
ATOM     22  C   UNL A   1      42.944 -20.555 -34.875  0.00  0.00    -0.040 A 
ATOM     23  C   UNL A   1      43.150 -19.824 -33.695  0.00  0.00    +0.035 A 
ATOM     24  C   UNL A   1      44.182 -18.857 -33.651  0.00  0.00    -0.026 A 
ATOM     25  C   UNL A   1      44.390 -18.036 -32.401  0.00  0.00    -0.038 C 
ENDBRANCH  16  23
ENDBRANCH  10  16
ENDBRANCH   6  15
ENDBRANCH   5   8
ENDBRANCH   1   5
BRANCH   3  26
ATOM     26  C   UNL A   1      40.150 -21.579 -38.140  0.00  0.00    +0.012 C 
BRANCH  26  27
ATOM     27  C   UNL A   1      41.625 -21.902 -38.363  0.00  0.00    -0.037 C 
BRANCH  27  28
ATOM     28  C   UNL A   1      42.066 -21.636 -39.804  0.00  0.00    -0.052 C 
BRANCH  28  29
ATOM     29  C   UNL A   1      43.586 -21.469 -39.872  0.00  0.00    -0.053 C 
BRANCH  29  30
ATOM     30  C   UNL A   1      44.056 -20.495 -40.953  0.00  0.00    -0.052 C 
BRANCH  30  31
ATOM     31  C   UNL A   1      45.563 -20.228 -40.919  0.00  0.00    -0.037 C 
BRANCH  31  32
ATOM     32  C   UNL A   1      45.895 -19.087 -39.955  0.00  0.00    +0.009 C 
BRANCH  32  33
ATOM     33  N   UNL A   1      45.231 -17.857 -40.410  0.00  0.00    -0.343 N 
ATOM     34  H   UNL A   1      45.010 -17.660 -41.348  0.00  0.00    +0.000 HD
BRANCH  33  35
ATOM     35  C   UNL A   1      44.947 -16.985 -39.315  0.00  0.00    +0.041 A 
ATOM     36  C   UNL A   1      45.911 -16.026 -38.947  0.00  0.00    -0.005 A 
ATOM     37  C   UNL A   1      45.632 -15.216 -37.846  0.00  0.00    +0.047 A 
ATOM     38  N   UNL A   1      44.507 -15.341 -37.101  0.00  0.00    -0.251 NA
ATOM     39  C   UNL A   1      43.598 -16.262 -37.440  0.00  0.00    +0.074 A 
ATOM     40  C   UNL A   1      42.460 -16.358 -36.654  0.00  0.00    -0.017 A 
ATOM     41  C   UNL A   1      41.465 -17.292 -36.930  0.00  0.00    +0.043 A 
ATOM     42 CL   UNL A   1      40.068 -17.380 -35.930  0.00  0.00    -0.083 Cl
ATOM     43  C   UNL A   1      41.595 -18.154 -38.006  0.00  0.00    -0.043 A 
ATOM     44  C   UNL A   1      42.734 -18.073 -38.808  0.00  0.00    -0.049 A 
ATOM     45  C   UNL A   1      43.758 -17.128 -38.542  0.00  0.00    +0.022 A 
ATOM     46  C   UNL A   1      46.602 -14.167 -37.368  0.00  0.00    -0.010 C 
ATOM     47  C   UNL A   1      47.594 -13.731 -38.438  0.00  0.00    -0.047 C 
ATOM     48  C   UNL A   1      48.218 -14.955 -39.093  0.00  0.00    -0.049 C 
ATOM     49  C   UNL A   1      47.147 -15.797 -39.785  0.00  0.00    -0.024 C 
ENDBRANCH  33  35
ENDBRANCH  32  33
ENDBRANCH  31  32
ENDBRANCH  30  31
ENDBRANCH  29  30
ENDBRANCH  28  29
ENDBRANCH  27  28
ENDBRANCH  26  27
ENDBRANCH   3  26
TORSDOF 14
ENDMDL
MODEL 6
REMARK VINA RESULT:    -6.348     18.805     21.778
REMARK INTER + INTRA:         -17.320
REMARK INTER:                 -12.920
REMARK INTRA:                  -4.400
REMARK UNBOUND:                -5.777
REMARK  Name = cpd50.pdb
REMARK  16 active torsions:
REMARK  status: ('A' for Active; 'I' for Inactive)
REMARK    1  A    between atoms: C_1  and  C_2
REMARK    2  A    between atoms: C_6  and  N_7
REMARK    3  A    between atoms: N_7  and  C_8
REMARK    4  A    between atoms: C_13  and  C_14
REMARK    5  A    between atoms: N_16  and  C_17
REMARK    6  A    between atoms: C_17  and  C_18
REMARK    7  A    between atoms: N_20  and  C_21
REMARK    8  A    between atoms: C_21  and  C_22
REMARK    9  A    between atoms: C_22  and  C_23
REMARK   10  A    between atoms: C_23  and  C_24
REMARK   11  A    between atoms: C_24  and  C_25
REMARK   12  A    between atoms: C_25  and  C_26
REMARK   13  A    between atoms: C_26  and  C_27
REMARK   14  A    between atoms: C_27  and  N_28
REMARK   15  A    between atoms: N_28  and  C_29
REMARK   16  A    between atoms: C_44  and  C_45
REMARK                            x       y       z     vdW  Elec       q    Type
REMARK                         _______ _______ _______ _____ _____    ______ ____
ROOT
ATOM      1  C   UNL A   1      44.016 -15.105 -38.701  0.00  0.00    +0.230 C 
ATOM      2  O   UNL A   1      44.236 -14.779 -39.865  0.00  0.00    -0.274 OA
ATOM      3  N   UNL A   1      42.798 -15.591 -38.269  0.00  0.00    -0.314 N 
ATOM      4  H   UNL A   1      42.652 -15.695 -37.302  0.00  0.00    +0.000 HD
ENDROOT
BRANCH   1   5
ATOM      5  C   UNL A   1      45.055 -14.890 -37.589  0.00  0.00    +0.088 C 
BRANCH   5   8
ATOM      6  C   UNL A   1      47.236 -15.753 -38.506  0.00  0.00    +0.246 C 
ATOM      7  O   UNL A   1      47.943 -15.624 -39.500  0.00  0.00    -0.270 OA
ATOM      8  N   UNL A   1      46.405 -14.723 -38.136  0.00  0.00    -0.303 N 
ATOM      9  H   UNL A   1      46.741 -13.805 -38.245  0.00  0.00    +0.000 HD
BRANCH   6  15
ATOM     10  C   UNL A   1      47.239 -18.280 -38.332  0.00  0.00    +0.044 A 
ATOM     11  C   UNL A   1      47.272 -19.405 -37.490  0.00  0.00    -0.040 A 
ATOM     12  C   UNL A   1      47.249 -19.274 -36.099  0.00  0.00    -0.060 A 
ATOM     13  C   UNL A   1      47.202 -18.011 -35.515  0.00  0.00    -0.061 A 
ATOM     14  C   UNL A   1      47.201 -16.877 -36.325  0.00  0.00    -0.048 A 
ATOM     15  C   UNL A   1      47.250 -17.008 -37.721  0.00  0.00    +0.058 A 
BRANCH  10  16
ATOM     16  N   UNL A   1      47.268 -18.443 -39.741  0.00  0.00    -0.314 N 
ATOM     17  H   UNL A   1      48.132 -18.268 -40.179  0.00  0.00    +0.000 HD
BRANCH  16  23
ATOM     18  C   UNL A   1      45.133 -21.843 -42.727  0.00  0.00    -0.039 C 
ATOM     19  C   UNL A   1      45.190 -20.478 -42.095  0.00  0.00    -0.046 A 
ATOM     20  C   UNL A   1      44.216 -19.533 -42.451  0.00  0.00    -0.058 A 
ATOM     21  C   UNL A   1      44.236 -18.252 -41.909  0.00  0.00    -0.060 A 
ATOM     22  C   UNL A   1      45.230 -17.900 -41.000  0.00  0.00    -0.040 A 
ATOM     23  C   UNL A   1      46.200 -18.829 -40.596  0.00  0.00    +0.035 A 
ATOM     24  C   UNL A   1      46.181 -20.134 -41.145  0.00  0.00    -0.026 A 
ATOM     25  C   UNL A   1      47.243 -21.131 -40.749  0.00  0.00    -0.038 C 
ENDBRANCH  16  23
ENDBRANCH  10  16
ENDBRANCH   6  15
ENDBRANCH   5   8
ENDBRANCH   1   5
BRANCH   3  26
ATOM     26  C   UNL A   1      41.727 -15.955 -39.173  0.00  0.00    +0.012 C 
BRANCH  26  27
ATOM     27  C   UNL A   1      41.751 -17.458 -39.434  0.00  0.00    -0.037 C 
BRANCH  27  28
ATOM     28  C   UNL A   1      41.752 -18.272 -38.138  0.00  0.00    -0.052 C 
BRANCH  28  29
ATOM     29  C   UNL A   1      43.160 -18.794 -37.839  0.00  0.00    -0.053 C 
BRANCH  29  30
ATOM     30  C   UNL A   1      43.593 -18.614 -36.384  0.00  0.00    -0.052 C 
BRANCH  30  31
ATOM     31  C   UNL A   1      43.904 -19.933 -35.674  0.00  0.00    -0.037 C 
BRANCH  31  32
ATOM     32  C   UNL A   1      42.966 -20.149 -34.484  0.00  0.00    +0.009 C 
BRANCH  32  33
ATOM     33  N   UNL A   1      42.242 -21.416 -34.659  0.00  0.00    -0.343 N 
ATOM     34  H   UNL A   1      42.590 -22.296 -34.389  0.00  0.00    +0.000 HD
BRANCH  33  35
ATOM     35  C   UNL A   1      40.969 -21.207 -35.271  0.00  0.00    +0.041 A 
ATOM     36  C   UNL A   1      40.826 -21.483 -36.645  0.00  0.00    -0.005 A 
ATOM     37  C   UNL A   1      39.586 -21.228 -37.232  0.00  0.00    +0.047 A 
ATOM     38  N   UNL A   1      38.543 -20.691 -36.554  0.00  0.00    -0.251 NA
ATOM     39  C   UNL A   1      38.683 -20.412 -35.253  0.00  0.00    +0.074 A 
ATOM     40  C   UNL A   1      37.592 -19.866 -34.595  0.00  0.00    -0.017 A 
ATOM     41  C   UNL A   1      37.650 -19.540 -33.242  0.00  0.00    +0.043 A 
ATOM     42 CL   UNL A   1      36.275 -18.862 -32.462  0.00  0.00    -0.083 Cl
ATOM     43  C   UNL A   1      38.813 -19.756 -32.521  0.00  0.00    -0.043 A 
ATOM     44  C   UNL A   1      39.922 -20.304 -33.167  0.00  0.00    -0.049 A 
ATOM     45  C   UNL A   1      39.880 -20.643 -34.544  0.00  0.00    +0.022 A 
ATOM     46  C   UNL A   1      39.334 -21.483 -38.695  0.00  0.00    -0.010 C 
ATOM     47  C   UNL A   1      40.309 -22.479 -39.310  0.00  0.00    -0.047 C 
ATOM     48  C   UNL A   1      41.736 -22.099 -38.943  0.00  0.00    -0.049 C 
ATOM     49  C   UNL A   1      41.932 -22.149 -37.429  0.00  0.00    -0.024 C 
ENDBRANCH  33  35
ENDBRANCH  32  33
ENDBRANCH  31  32
ENDBRANCH  30  31
ENDBRANCH  29  30
ENDBRANCH  28  29
ENDBRANCH  27  28
ENDBRANCH  26  27
ENDBRANCH   3  26
TORSDOF 14
ENDMDL
MODEL 7
REMARK VINA RESULT:    -6.306     17.933     20.621
REMARK INTER + INTRA:         -17.243
REMARK INTER:                 -13.215
REMARK INTRA:                  -4.029
REMARK UNBOUND:                -5.777
REMARK  Name = cpd50.pdb
REMARK  16 active torsions:
REMARK  status: ('A' for Active; 'I' for Inactive)
REMARK    1  A    between atoms: C_1  and  C_2
REMARK    2  A    between atoms: C_6  and  N_7
REMARK    3  A    between atoms: N_7  and  C_8
REMARK    4  A    between atoms: C_13  and  C_14
REMARK    5  A    between atoms: N_16  and  C_17
REMARK    6  A    between atoms: C_17  and  C_18
REMARK    7  A    between atoms: N_20  and  C_21
REMARK    8  A    between atoms: C_21  and  C_22
REMARK    9  A    between atoms: C_22  and  C_23
REMARK   10  A    between atoms: C_23  and  C_24
REMARK   11  A    between atoms: C_24  and  C_25
REMARK   12  A    between atoms: C_25  and  C_26
REMARK   13  A    between atoms: C_26  and  C_27
REMARK   14  A    between atoms: C_27  and  N_28
REMARK   15  A    between atoms: N_28  and  C_29
REMARK   16  A    between atoms: C_44  and  C_45
REMARK                            x       y       z     vdW  Elec       q    Type
REMARK                         _______ _______ _______ _____ _____    ______ ____
ROOT
ATOM      1  C   UNL A   1      41.940 -20.759 -39.078  0.00  0.00    +0.230 C 
ATOM      2  O   UNL A   1      41.100 -19.917 -39.383  0.00  0.00    -0.274 OA
ATOM      3  N   UNL A   1      41.939 -21.427 -37.871  0.00  0.00    -0.314 N 
ATOM      4  H   UNL A   1      42.721 -21.978 -37.639  0.00  0.00    +0.000 HD
ENDROOT
BRANCH   1   5
ATOM      5  C   UNL A   1      43.148 -21.060 -39.980  0.00  0.00    +0.088 C 
BRANCH   5   8
ATOM      6  C   UNL A   1      44.456 -19.857 -41.765  0.00  0.00    +0.246 C 
ATOM      7  O   UNL A   1      44.271 -19.043 -42.665  0.00  0.00    -0.270 OA
ATOM      8  N   UNL A   1      43.615 -19.858 -40.678  0.00  0.00    -0.303 N 
ATOM      9  H   UNL A   1      43.303 -18.987 -40.343  0.00  0.00    +0.000 HD
BRANCH   6  15
ATOM     10  C   UNL A   1      46.817 -20.625 -41.268  0.00  0.00    +0.044 A 
ATOM     11  C   UNL A   1      47.780 -21.642 -41.396  0.00  0.00    -0.040 A 
ATOM     12  C   UNL A   1      47.519 -22.802 -42.131  0.00  0.00    -0.060 A 
ATOM     13  C   UNL A   1      46.284 -22.978 -42.747  0.00  0.00    -0.061 A 
ATOM     14  C   UNL A   1      45.300 -22.001 -42.610  0.00  0.00    -0.048 A 
ATOM     15  C   UNL A   1      45.553 -20.847 -41.851  0.00  0.00    +0.058 A 
BRANCH  10  16
ATOM     16  N   UNL A   1      47.109 -19.460 -40.513  0.00  0.00    -0.314 N 
ATOM     17  H   UNL A   1      47.517 -18.714 -41.008  0.00  0.00    +0.000 HD
BRANCH  16  23
ATOM     18  C   UNL A   1      46.980 -16.352 -36.594  0.00  0.00    -0.039 C 
ATOM     19  C   UNL A   1      46.873 -17.723 -37.207  0.00  0.00    -0.046 A 
ATOM     20  C   UNL A   1      46.649 -18.821 -36.362  0.00  0.00    -0.058 A 
ATOM     21  C   UNL A   1      46.560 -20.109 -36.878  0.00  0.00    -0.060 A 
ATOM     22  C   UNL A   1      46.691 -20.317 -38.248  0.00  0.00    -0.040 A 
ATOM     23  C   UNL A   1      46.883 -19.240 -39.127  0.00  0.00    +0.035 A 
ATOM     24  C   UNL A   1      46.972 -17.928 -38.604  0.00  0.00    -0.026 A 
ATOM     25  C   UNL A   1      47.217 -16.764 -39.534  0.00  0.00    -0.038 C 
ENDBRANCH  16  23
ENDBRANCH  10  16
ENDBRANCH   6  15
ENDBRANCH   5   8
ENDBRANCH   1   5
BRANCH   3  26
ATOM     26  C   UNL A   1      40.840 -21.355 -36.929  0.00  0.00    +0.012 C 
BRANCH  26  27
ATOM     27  C   UNL A   1      40.667 -22.699 -36.227  0.00  0.00    -0.037 C 
BRANCH  27  28
ATOM     28  C   UNL A   1      39.215 -22.955 -35.815  0.00  0.00    -0.052 C 
BRANCH  28  29
ATOM     29  C   UNL A   1      38.894 -22.221 -34.511  0.00  0.00    -0.053 C 
BRANCH  29  30
ATOM     30  C   UNL A   1      39.428 -22.918 -33.259  0.00  0.00    -0.052 C 
BRANCH  30  31
ATOM     31  C   UNL A   1      40.139 -21.970 -32.291  0.00  0.00    -0.037 C 
BRANCH  31  32
ATOM     32  C   UNL A   1      41.158 -21.098 -33.028  0.00  0.00    +0.009 C 
BRANCH  32  33
ATOM     33  N   UNL A   1      40.967 -19.693 -32.640  0.00  0.00    -0.343 N 
ATOM     34  H   UNL A   1      41.200 -19.325 -31.758  0.00  0.00    +0.000 HD
BRANCH  33  35
ATOM     35  C   UNL A   1      40.400 -18.932 -33.707  0.00  0.00    +0.041 A 
ATOM     36  C   UNL A   1      39.017 -18.666 -33.687  0.00  0.00    -0.005 A 
ATOM     37  C   UNL A   1      38.477 -17.960 -34.763  0.00  0.00    +0.047 A 
ATOM     38  N   UNL A   1      39.210 -17.564 -35.831  0.00  0.00    -0.251 NA
ATOM     39  C   UNL A   1      40.520 -17.831 -35.859  0.00  0.00    +0.074 A 
ATOM     40  C   UNL A   1      41.236 -17.407 -36.968  0.00  0.00    -0.017 A 
ATOM     41  C   UNL A   1      42.603 -17.647 -37.084  0.00  0.00    +0.043 A 
ATOM     42 CL   UNL A   1      43.455 -17.106 -38.477  0.00  0.00    -0.083 Cl
ATOM     43  C   UNL A   1      43.281 -18.322 -36.082  0.00  0.00    -0.043 A 
ATOM     44  C   UNL A   1      42.578 -18.756 -34.958  0.00  0.00    -0.049 A 
ATOM     45  C   UNL A   1      41.185 -18.521 -34.823  0.00  0.00    +0.022 A 
ATOM     46  C   UNL A   1      37.008 -17.634 -34.839  0.00  0.00    -0.010 C 
ATOM     47  C   UNL A   1      36.314 -17.661 -33.484  0.00  0.00    -0.047 C 
ATOM     48  C   UNL A   1      36.665 -18.947 -32.749  0.00  0.00    -0.049 C 
ATOM     49  C   UNL A   1      38.169 -19.021 -32.488  0.00  0.00    -0.024 C 
ENDBRANCH  33  35
ENDBRANCH  32  33
ENDBRANCH  31  32
ENDBRANCH  30  31
ENDBRANCH  29  30
ENDBRANCH  28  29
ENDBRANCH  27  28
ENDBRANCH  26  27
ENDBRANCH   3  26
TORSDOF 14
ENDMDL
MODEL 8
REMARK VINA RESULT:    -6.238     17.757     21.168
REMARK INTER + INTRA:         -17.120
REMARK INTER:                 -13.395
REMARK INTRA:                  -3.724
REMARK UNBOUND:                -5.777
REMARK  Name = cpd50.pdb
REMARK  16 active torsions:
REMARK  status: ('A' for Active; 'I' for Inactive)
REMARK    1  A    between atoms: C_1  and  C_2
REMARK    2  A    between atoms: C_6  and  N_7
REMARK    3  A    between atoms: N_7  and  C_8
REMARK    4  A    between atoms: C_13  and  C_14
REMARK    5  A    between atoms: N_16  and  C_17
REMARK    6  A    between atoms: C_17  and  C_18
REMARK    7  A    between atoms: N_20  and  C_21
REMARK    8  A    between atoms: C_21  and  C_22
REMARK    9  A    between atoms: C_22  and  C_23
REMARK   10  A    between atoms: C_23  and  C_24
REMARK   11  A    between atoms: C_24  and  C_25
REMARK   12  A    between atoms: C_25  and  C_26
REMARK   13  A    between atoms: C_26  and  C_27
REMARK   14  A    between atoms: C_27  and  N_28
REMARK   15  A    between atoms: N_28  and  C_29
REMARK   16  A    between atoms: C_44  and  C_45
REMARK                            x       y       z     vdW  Elec       q    Type
REMARK                         _______ _______ _______ _____ _____    ______ ____
ROOT
ATOM      1  C   UNL A   1      40.585 -22.157 -36.933  0.00  0.00    +0.230 C 
ATOM      2  O   UNL A   1      41.225 -22.791 -37.768  0.00  0.00    -0.274 OA
ATOM      3  N   UNL A   1      40.479 -20.781 -36.947  0.00  0.00    -0.314 N 
ATOM      4  H   UNL A   1      40.074 -20.335 -36.169  0.00  0.00    +0.000 HD
ENDROOT
BRANCH   1   5
ATOM      5  C   UNL A   1      39.937 -22.841 -35.719  0.00  0.00    +0.088 C 
BRANCH   5   8
ATOM      6  C   UNL A   1      40.524 -22.566 -33.284  0.00  0.00    +0.246 C 
ATOM      7  O   UNL A   1      40.988 -23.225 -32.359  0.00  0.00    -0.270 OA
ATOM      8  N   UNL A   1      40.855 -22.897 -34.577  0.00  0.00    -0.303 N 
ATOM      9  H   UNL A   1      41.777 -23.195 -34.748  0.00  0.00    +0.000 HD
BRANCH   6  15
ATOM     10  C   UNL A   1      40.053 -20.141 -32.725  0.00  0.00    +0.044 A 
ATOM     11  C   UNL A   1      39.084 -19.145 -32.514  0.00  0.00    -0.040 A 
ATOM     12  C   UNL A   1      37.718 -19.442 -32.534  0.00  0.00    -0.060 A 
ATOM     13  C   UNL A   1      37.288 -20.744 -32.777  0.00  0.00    -0.061 A 
ATOM     14  C   UNL A   1      38.226 -21.745 -33.021  0.00  0.00    -0.048 A 
ATOM     15  C   UNL A   1      39.596 -21.441 -33.026  0.00  0.00    +0.058 A 
BRANCH  10  16
ATOM     16  N   UNL A   1      41.432 -19.809 -32.702  0.00  0.00    -0.314 N 
ATOM     17  H   UNL A   1      41.853 -19.768 -31.813  0.00  0.00    +0.000 HD
BRANCH  16  23
ATOM     18  C   UNL A   1      42.952 -16.679 -36.298  0.00  0.00    -0.039 C 
ATOM     19  C   UNL A   1      42.980 -18.010 -35.595  0.00  0.00    -0.046 A 
ATOM     20  C   UNL A   1      43.790 -19.029 -36.119  0.00  0.00    -0.058 A 
ATOM     21  C   UNL A   1      43.837 -20.282 -35.517  0.00  0.00    -0.060 A 
ATOM     22  C   UNL A   1      43.076 -20.532 -34.379  0.00  0.00    -0.040 A 
ATOM     23  C   UNL A   1      42.279 -19.528 -33.808  0.00  0.00    +0.035 A 
ATOM     24  C   UNL A   1      42.231 -18.251 -34.418  0.00  0.00    -0.026 A 
ATOM     25  C   UNL A   1      41.348 -17.174 -33.837  0.00  0.00    -0.038 C 
ENDBRANCH  16  23
ENDBRANCH  10  16
ENDBRANCH   6  15
ENDBRANCH   5   8
ENDBRANCH   1   5
BRANCH   3  26
ATOM     26  C   UNL A   1      40.934 -19.964 -38.053  0.00  0.00    +0.012 C 
BRANCH  26  27
ATOM     27  C   UNL A   1      39.765 -19.178 -38.638  0.00  0.00    -0.037 C 
BRANCH  27  28
ATOM     28  C   UNL A   1      39.879 -17.677 -38.364  0.00  0.00    -0.052 C 
BRANCH  28  29
ATOM     29  C   UNL A   1      40.157 -16.918 -39.664  0.00  0.00    -0.053 C 
BRANCH  29  30
ATOM     30  C   UNL A   1      41.181 -15.792 -39.519  0.00  0.00    -0.052 C 
BRANCH  30  31
ATOM     31  C   UNL A   1      42.429 -15.990 -40.381  0.00  0.00    -0.037 C 
BRANCH  31  32
ATOM     32  C   UNL A   1      43.067 -17.356 -40.117  0.00  0.00    +0.009 C 
BRANCH  32  33
ATOM     33  N   UNL A   1      44.366 -17.427 -40.802  0.00  0.00    -0.343 N 
ATOM     34  H   UNL A   1      44.636 -16.837 -41.542  0.00  0.00    +0.000 HD
BRANCH  33  35
ATOM     35  C   UNL A   1      45.185 -18.461 -40.255  0.00  0.00    +0.041 A 
ATOM     36  C   UNL A   1      45.185 -19.724 -40.879  0.00  0.00    -0.005 A 
ATOM     37  C   UNL A   1      45.957 -20.732 -40.301  0.00  0.00    +0.047 A 
ATOM     38  N   UNL A   1      46.662 -20.561 -39.156  0.00  0.00    -0.251 NA
ATOM     39  C   UNL A   1      46.649 -19.367 -38.554  0.00  0.00    +0.074 A 
ATOM     40  C   UNL A   1      47.384 -19.231 -37.386  0.00  0.00    -0.017 A 
ATOM     41  C   UNL A   1      47.423 -18.026 -36.690  0.00  0.00    +0.043 A 
ATOM     42 CL   UNL A   1      48.346 -17.898 -35.244  0.00  0.00    -0.083 Cl
ATOM     43  C   UNL A   1      46.719 -16.927 -37.156  0.00  0.00    -0.043 A 
ATOM     44  C   UNL A   1      45.973 -17.045 -38.329  0.00  0.00    -0.049 A 
ATOM     45  C   UNL A   1      45.922 -18.265 -39.051  0.00  0.00    +0.022 A 
ATOM     46  C   UNL A   1      46.018 -22.119 -40.887  0.00  0.00    -0.010 C 
ATOM     47  C   UNL A   1      45.626 -22.168 -42.358  0.00  0.00    -0.047 C 
ATOM     48  C   UNL A   1      44.319 -21.420 -42.571  0.00  0.00    -0.049 C 
ATOM     49  C   UNL A   1      44.477 -19.948 -42.194  0.00  0.00    -0.024 C 
ENDBRANCH  33  35
ENDBRANCH  32  33
ENDBRANCH  31  32
ENDBRANCH  30  31
ENDBRANCH  29  30
ENDBRANCH  28  29
ENDBRANCH  27  28
ENDBRANCH  26  27
ENDBRANCH   3  26
TORSDOF 14
ENDMDL
MODEL 9
REMARK VINA RESULT:    -6.229     18.351     21.459
REMARK INTER + INTRA:         -17.104
REMARK INTER:                 -12.333
REMARK INTRA:                  -4.771
REMARK UNBOUND:                -5.777
REMARK  Name = cpd50.pdb
REMARK  16 active torsions:
REMARK  status: ('A' for Active; 'I' for Inactive)
REMARK    1  A    between atoms: C_1  and  C_2
REMARK    2  A    between atoms: C_6  and  N_7
REMARK    3  A    between atoms: N_7  and  C_8
REMARK    4  A    between atoms: C_13  and  C_14
REMARK    5  A    between atoms: N_16  and  C_17
REMARK    6  A    between atoms: C_17  and  C_18
REMARK    7  A    between atoms: N_20  and  C_21
REMARK    8  A    between atoms: C_21  and  C_22
REMARK    9  A    between atoms: C_22  and  C_23
REMARK   10  A    between atoms: C_23  and  C_24
REMARK   11  A    between atoms: C_24  and  C_25
REMARK   12  A    between atoms: C_25  and  C_26
REMARK   13  A    between atoms: C_26  and  C_27
REMARK   14  A    between atoms: C_27  and  N_28
REMARK   15  A    between atoms: N_28  and  C_29
REMARK   16  A    between atoms: C_44  and  C_45
REMARK                            x       y       z     vdW  Elec       q    Type
REMARK                         _______ _______ _______ _____ _____    ______ ____
ROOT
ATOM      1  C   UNL A   1      39.313 -22.940 -36.032  0.00  0.00    +0.230 C 
ATOM      2  O   UNL A   1      39.240 -23.933 -36.752  0.00  0.00    -0.274 OA
ATOM      3  N   UNL A   1      39.714 -21.701 -36.489  0.00  0.00    -0.314 N 
ATOM      4  H   UNL A   1      39.887 -20.992 -35.830  0.00  0.00    +0.000 HD
ENDROOT
BRANCH   1   5
ATOM      5  C   UNL A   1      39.074 -23.021 -34.516  0.00  0.00    +0.088 C 
BRANCH   5   8
ATOM      6  C   UNL A   1      40.585 -22.157 -32.695  0.00  0.00    +0.246 C 
ATOM      7  O   UNL A   1      41.245 -22.584 -31.753  0.00  0.00    -0.270 OA
ATOM      8  N   UNL A   1      40.333 -22.980 -33.767  0.00  0.00    -0.303 N 
ATOM      9  H   UNL A   1      41.053 -23.588 -34.052  0.00  0.00    +0.000 HD
BRANCH   6  15
ATOM     10  C   UNL A   1      40.867 -19.641 -32.618  0.00  0.00    +0.044 A 
ATOM     11  C   UNL A   1      40.242 -18.382 -32.624  0.00  0.00    -0.040 A 
ATOM     12  C   UNL A   1      38.849 -18.261 -32.621  0.00  0.00    -0.060 A 
ATOM     13  C   UNL A   1      38.048 -19.400 -32.622  0.00  0.00    -0.061 A 
ATOM     14  C   UNL A   1      38.641 -20.660 -32.649  0.00  0.00    -0.048 A 
ATOM     15  C   UNL A   1      40.039 -20.781 -32.677  0.00  0.00    +0.058 A 
BRANCH  10  16
ATOM     16  N   UNL A   1      42.283 -19.733 -32.625  0.00  0.00    -0.314 N 
ATOM     17  H   UNL A   1      42.717 -19.789 -31.743  0.00  0.00    +0.000 HD
BRANCH  16  23
ATOM     18  C   UNL A   1      46.287 -17.941 -35.032  0.00  0.00    -0.039 C 
ATOM     19  C   UNL A   1      45.079 -18.834 -34.944  0.00  0.00    -0.046 A 
ATOM     20  C   UNL A   1      44.749 -19.628 -36.053  0.00  0.00    -0.058 A 
ATOM     21  C   UNL A   1      43.633 -20.458 -36.028  0.00  0.00    -0.060 A 
ATOM     22  C   UNL A   1      42.832 -20.508 -34.891  0.00  0.00    -0.040 A 
ATOM     23  C   UNL A   1      43.150 -19.753 -33.751  0.00  0.00    +0.035 A 
ATOM     24  C   UNL A   1      44.286 -18.909 -33.774  0.00  0.00    -0.026 A 
ATOM     25  C   UNL A   1      44.617 -18.062 -32.569  0.00  0.00    -0.038 C 
ENDBRANCH  16  23
ENDBRANCH  10  16
ENDBRANCH   6  15
ENDBRANCH   5   8
ENDBRANCH   1   5
BRANCH   3  26
ATOM     26  C   UNL A   1      39.891 -21.397 -37.895  0.00  0.00    +0.012 C 
BRANCH  26  27
ATOM     27  C   UNL A   1      41.290 -21.807 -38.345  0.00  0.00    -0.037 C 
BRANCH  27  28
ATOM     28  C   UNL A   1      41.691 -21.150 -39.667  0.00  0.00    -0.052 C 
BRANCH  28  29
ATOM     29  C   UNL A   1      43.215 -21.120 -39.806  0.00  0.00    -0.053 C 
BRANCH  29  30
ATOM     30  C   UNL A   1      43.716 -20.283 -40.983  0.00  0.00    -0.052 C 
BRANCH  30  31
ATOM     31  C   UNL A   1      45.230 -20.066 -40.976  0.00  0.00    -0.037 C 
BRANCH  31  32
ATOM     32  C   UNL A   1      45.630 -19.034 -39.919  0.00  0.00    +0.009 C 
BRANCH  32  33
ATOM     33  N   UNL A   1      44.966 -17.755 -40.212  0.00  0.00    -0.343 N 
ATOM     34  H   UNL A   1      44.547 -17.533 -41.074  0.00  0.00    +0.000 HD
BRANCH  33  35
ATOM     35  C   UNL A   1      45.009 -16.878 -39.086  0.00  0.00    +0.041 A 
ATOM     36  C   UNL A   1      43.907 -16.849 -38.209  0.00  0.00    -0.005 A 
ATOM     37  C   UNL A   1      43.951 -15.952 -37.142  0.00  0.00    +0.047 A 
ATOM     38  N   UNL A   1      44.976 -15.089 -36.942  0.00  0.00    -0.251 NA
ATOM     39  C   UNL A   1      46.016 -15.104 -37.783  0.00  0.00    +0.074 A 
ATOM     40  C   UNL A   1      47.046 -14.208 -37.544  0.00  0.00    -0.017 A 
ATOM     41  C   UNL A   1      48.164 -14.150 -38.372  0.00  0.00    +0.043 A 
ATOM     42 CL   UNL A   1      49.421 -13.022 -38.041  0.00  0.00    -0.083 Cl
ATOM     43  C   UNL A   1      48.270 -14.997 -39.463  0.00  0.00    -0.043 A 
ATOM     44  C   UNL A   1      47.242 -15.905 -39.721  0.00  0.00    -0.049 A 
ATOM     45  C   UNL A   1      46.096 -15.978 -38.888  0.00  0.00    +0.022 A 
ATOM     46  C   UNL A   1      42.819 -15.839 -36.155  0.00  0.00    -0.010 C 
ATOM     47  C   UNL A   1      41.932 -17.077 -36.110  0.00  0.00    -0.047 C 
ATOM     48  C   UNL A   1      41.536 -17.480 -37.523  0.00  0.00    -0.049 C 
ATOM     49  C   UNL A   1      42.773 -17.839 -38.344  0.00  0.00    -0.024 C 
ENDBRANCH  33  35
ENDBRANCH  32  33
ENDBRANCH  31  32
ENDBRANCH  30  31
ENDBRANCH  29  30
ENDBRANCH  28  29
ENDBRANCH  27  28
ENDBRANCH  26  27
ENDBRANCH   3  26
TORSDOF 14
ENDMDL
MODEL 10
REMARK VINA RESULT:    -6.202     19.255     22.413
REMARK INTER + INTRA:         -17.055
REMARK INTER:                 -13.137
REMARK INTRA:                  -3.919
REMARK UNBOUND:                -5.777
REMARK  Name = cpd50.pdb
REMARK  16 active torsions:
REMARK  status: ('A' for Active; 'I' for Inactive)
REMARK    1  A    between atoms: C_1  and  C_2
REMARK    2  A    between atoms: C_6  and  N_7
REMARK    3  A    between atoms: N_7  and  C_8
REMARK    4  A    between atoms: C_13  and  C_14
REMARK    5  A    between atoms: N_16  and  C_17
REMARK    6  A    between atoms: C_17  and  C_18
REMARK    7  A    between atoms: N_20  and  C_21
REMARK    8  A    between atoms: C_21  and  C_22
REMARK    9  A    between atoms: C_22  and  C_23
REMARK   10  A    between atoms: C_23  and  C_24
REMARK   11  A    between atoms: C_24  and  C_25
REMARK   12  A    between atoms: C_25  and  C_26
REMARK   13  A    between atoms: C_26  and  C_27
REMARK   14  A    between atoms: C_27  and  N_28
REMARK   15  A    between atoms: N_28  and  C_29
REMARK   16  A    between atoms: C_44  and  C_45
REMARK                            x       y       z     vdW  Elec       q    Type
REMARK                         _______ _______ _______ _____ _____    ______ ____
ROOT
ATOM      1  C   UNL A   1      44.609 -15.895 -37.429  0.00  0.00    +0.230 C 
ATOM      2  O   UNL A   1      44.539 -14.744 -37.007  0.00  0.00    -0.274 OA
ATOM      3  N   UNL A   1      45.767 -16.646 -37.391  0.00  0.00    -0.314 N 
ATOM      4  H   UNL A   1      45.787 -17.502 -37.876  0.00  0.00    +0.000 HD
ENDROOT
BRANCH   1   5
ATOM      5  C   UNL A   1      43.430 -16.566 -38.153  0.00  0.00    +0.088 C 
BRANCH   5   8
ATOM      6  C   UNL A   1      43.543 -15.666 -40.502  0.00  0.00    +0.246 C 
ATOM      7  O   UNL A   1      42.840 -15.593 -41.505  0.00  0.00    -0.270 OA
ATOM      8  N   UNL A   1      42.944 -15.748 -39.268  0.00  0.00    -0.303 N 
ATOM      9  H   UNL A   1      42.128 -15.218 -39.121  0.00  0.00    +0.000 HD
BRANCH   6  15
ATOM     10  C   UNL A   1      45.740 -16.885 -40.819  0.00  0.00    +0.044 A 
ATOM     11  C   UNL A   1      47.139 -16.790 -40.922  0.00  0.00    -0.040 A 
ATOM     12  C   UNL A   1      47.800 -15.569 -40.758  0.00  0.00    -0.060 A 
ATOM     13  C   UNL A   1      47.074 -14.410 -40.496  0.00  0.00    -0.061 A 
ATOM     14  C   UNL A   1      45.684 -14.470 -40.419  0.00  0.00    -0.048 A 
ATOM     15  C   UNL A   1      45.019 -15.691 -40.609  0.00  0.00    +0.058 A 
BRANCH  10  16
ATOM     16  N   UNL A   1      45.097 -18.137 -40.994  0.00  0.00    -0.314 N 
ATOM     17  H   UNL A   1      44.167 -18.104 -41.317  0.00  0.00    +0.000 HD
BRANCH  16  23
ATOM     18  C   UNL A   1      45.851 -22.842 -42.519  0.00  0.00    -0.039 C 
ATOM     19  C   UNL A   1      45.950 -21.746 -41.492  0.00  0.00    -0.046 A 
ATOM     20  C   UNL A   1      46.491 -22.051 -40.234  0.00  0.00    -0.058 A 
ATOM     21  C   UNL A   1      46.588 -21.078 -39.246  0.00  0.00    -0.060 A 
ATOM     22  C   UNL A   1      46.148 -19.783 -39.503  0.00  0.00    -0.040 A 
ATOM     23  C   UNL A   1      45.632 -19.433 -40.760  0.00  0.00    +0.035 A 
ATOM     24  C   UNL A   1      45.533 -20.421 -41.768  0.00  0.00    -0.026 A 
ATOM     25  C   UNL A   1      44.944 -20.068 -43.112  0.00  0.00    -0.038 C 
ENDBRANCH  16  23
ENDBRANCH  10  16
ENDBRANCH   6  15
ENDBRANCH   5   8
ENDBRANCH   1   5
BRANCH   3  26
ATOM     26  C   UNL A   1      46.953 -16.233 -36.670  0.00  0.00    +0.012 C 
BRANCH  26  27
ATOM     27  C   UNL A   1      48.022 -17.318 -36.757  0.00  0.00    -0.037 C 
BRANCH  27  28
ATOM     28  C   UNL A   1      48.161 -18.103 -35.450  0.00  0.00    -0.052 C 
BRANCH  28  29
ATOM     29  C   UNL A   1      47.346 -19.397 -35.518  0.00  0.00    -0.053 C 
BRANCH  29  30
ATOM     30  C   UNL A   1      45.967 -19.298 -34.866  0.00  0.00    -0.052 C 
BRANCH  30  31
ATOM     31  C   UNL A   1      44.855 -19.948 -35.693  0.00  0.00    -0.037 C 
BRANCH  31  32
ATOM     32  C   UNL A   1      43.623 -20.227 -34.829  0.00  0.00    +0.009 C 
BRANCH  32  33
ATOM     33  N   UNL A   1      42.431 -19.675 -35.489  0.00  0.00    -0.343 N 
ATOM     34  H   UNL A   1      42.208 -18.717 -35.521  0.00  0.00    +0.000 HD
BRANCH  33  35
ATOM     35  C   UNL A   1      41.638 -20.708 -36.077  0.00  0.00    +0.041 A 
ATOM     36  C   UNL A   1      40.829 -21.499 -35.239  0.00  0.00    -0.005 A 
ATOM     37  C   UNL A   1      40.098 -22.530 -35.830  0.00  0.00    +0.047 A 
ATOM     38  N   UNL A   1      40.168 -22.826 -37.150  0.00  0.00    -0.251 NA
ATOM     39  C   UNL A   1      40.950 -22.086 -37.944  0.00  0.00    +0.074 A 
ATOM     40  C   UNL A   1      40.993 -22.418 -39.290  0.00  0.00    -0.017 A 
ATOM     41  C   UNL A   1      41.784 -21.705 -40.187  0.00  0.00    +0.043 A 
ATOM     42 CL   UNL A   1      41.811 -22.150 -41.849  0.00  0.00    -0.083 Cl
ATOM     43  C   UNL A   1      42.552 -20.639 -39.748  0.00  0.00    -0.043 A 
ATOM     44  C   UNL A   1      42.522 -20.290 -38.398  0.00  0.00    -0.049 A 
ATOM     45  C   UNL A   1      41.722 -21.004 -37.469  0.00  0.00    +0.022 A 
ATOM     46  C   UNL A   1      39.210 -23.437 -35.018  0.00  0.00    -0.010 C 
ATOM     47  C   UNL A   1      38.788 -22.832 -33.686  0.00  0.00    -0.047 C 
ATOM     48  C   UNL A   1      40.006 -22.282 -32.959  0.00  0.00    -0.049 C 
ATOM     49  C   UNL A   1      40.658 -21.167 -33.775  0.00  0.00    -0.024 C 
ENDBRANCH  33  35
ENDBRANCH  32  33
ENDBRANCH  31  32
ENDBRANCH  30  31
ENDBRANCH  29  30
ENDBRANCH  28  29
ENDBRANCH  27  28
ENDBRANCH  26  27
ENDBRANCH   3  26
TORSDOF 14
ENDMDL
MODEL 11
REMARK VINA RESULT:    -6.150     18.111     21.180
REMARK INTER + INTRA:         -16.960
REMARK INTER:                 -11.578
REMARK INTRA:                  -5.382
REMARK UNBOUND:                -5.777
REMARK  Name = cpd50.pdb
REMARK  16 active torsions:
REMARK  status: ('A' for Active; 'I' for Inactive)
REMARK    1  A    between atoms: C_1  and  C_2
REMARK    2  A    between atoms: C_6  and  N_7
REMARK    3  A    between atoms: N_7  and  C_8
REMARK    4  A    between atoms: C_13  and  C_14
REMARK    5  A    between atoms: N_16  and  C_17
REMARK    6  A    between atoms: C_17  and  C_18
REMARK    7  A    between atoms: N_20  and  C_21
REMARK    8  A    between atoms: C_21  and  C_22
REMARK    9  A    between atoms: C_22  and  C_23
REMARK   10  A    between atoms: C_23  and  C_24
REMARK   11  A    between atoms: C_24  and  C_25
REMARK   12  A    between atoms: C_25  and  C_26
REMARK   13  A    between atoms: C_26  and  C_27
REMARK   14  A    between atoms: C_27  and  N_28
REMARK   15  A    between atoms: N_28  and  C_29
REMARK   16  A    between atoms: C_44  and  C_45
REMARK                            x       y       z     vdW  Elec       q    Type
REMARK                         _______ _______ _______ _____ _____    ______ ____
ROOT
ATOM      1  C   UNL A   1      46.945 -19.197 -36.612  0.00  0.00    +0.230 C 
ATOM      2  O   UNL A   1      48.026 -18.755 -36.230  0.00  0.00    -0.274 OA
ATOM      3  N   UNL A   1      45.843 -19.314 -35.791  0.00  0.00    -0.314 N 
ATOM      4  H   UNL A   1      45.060 -19.808 -36.124  0.00  0.00    +0.000 HD
ENDROOT
BRANCH   1   5
ATOM      5  C   UNL A   1      46.760 -19.773 -38.025  0.00  0.00    +0.088 C 
BRANCH   5   8
ATOM      6  C   UNL A   1      46.615 -18.737 -40.316  0.00  0.00    +0.246 C 
ATOM      7  O   UNL A   1      46.445 -17.636 -40.830  0.00  0.00    -0.270 OA
ATOM      8  N   UNL A   1      47.162 -18.813 -39.057  0.00  0.00    -0.303 N 
ATOM      9  H   UNL A   1      47.876 -18.175 -38.832  0.00  0.00    +0.000 HD
BRANCH   6  15
ATOM     10  C   UNL A   1      44.865 -20.345 -41.193  0.00  0.00    +0.044 A 
ATOM     11  C   UNL A   1      44.601 -21.533 -41.896  0.00  0.00    -0.040 A 
ATOM     12  C   UNL A   1      45.635 -22.354 -42.353  0.00  0.00    -0.060 A 
ATOM     13  C   UNL A   1      46.962 -22.000 -42.126  0.00  0.00    -0.061 A 
ATOM     14  C   UNL A   1      47.254 -20.811 -41.460  0.00  0.00    -0.048 A 
ATOM     15  C   UNL A   1      46.216 -19.975 -41.023  0.00  0.00    +0.058 A 
BRANCH  10  16
ATOM     16  N   UNL A   1      43.795 -19.529 -40.745  0.00  0.00    -0.314 N 
ATOM     17  H   UNL A   1      43.345 -18.988 -41.434  0.00  0.00    +0.000 HD
BRANCH  16  23
ATOM     18  C   UNL A   1      42.397 -16.621 -36.921  0.00  0.00    -0.039 C 
ATOM     19  C   UNL A   1      42.662 -17.968 -37.539  0.00  0.00    -0.046 A 
ATOM     20  C   UNL A   1      42.508 -19.113 -36.743  0.00  0.00    -0.058 A 
ATOM     21  C   UNL A   1      42.757 -20.379 -37.262  0.00  0.00    -0.060 A 
ATOM     22  C   UNL A   1      43.161 -20.517 -38.587  0.00  0.00    -0.040 A 
ATOM     23  C   UNL A   1      43.294 -19.397 -39.421  0.00  0.00    +0.035 A 
ATOM     24  C   UNL A   1      43.039 -18.108 -38.896  0.00  0.00    -0.026 A 
ATOM     25  C   UNL A   1      43.216 -16.891 -39.772  0.00  0.00    -0.038 C 
ENDBRANCH  16  23
ENDBRANCH  10  16
ENDBRANCH   6  15
ENDBRANCH   5   8
ENDBRANCH   1   5
BRANCH   3  26
ATOM     26  C   UNL A   1      45.784 -18.744 -34.460  0.00  0.00    +0.012 C 
BRANCH  26  27
ATOM     27  C   UNL A   1      45.137 -17.363 -34.512  0.00  0.00    -0.037 C 
BRANCH  27  28
ATOM     28  C   UNL A   1      44.365 -17.035 -33.232  0.00  0.00    -0.052 C 
BRANCH  28  29
ATOM     29  C   UNL A   1      42.920 -17.528 -33.341  0.00  0.00    -0.053 C 
BRANCH  29  30
ATOM     30  C   UNL A   1      41.874 -16.469 -32.992  0.00  0.00    -0.052 C 
BRANCH  30  31
ATOM     31  C   UNL A   1      40.440 -16.905 -33.301  0.00  0.00    -0.037 C 
BRANCH  31  32
ATOM     32  C   UNL A   1      40.376 -18.405 -33.598  0.00  0.00    +0.009 C 
BRANCH  32  33
ATOM     33  N   UNL A   1      39.014 -18.758 -34.024  0.00  0.00    -0.343 N 
ATOM     34  H   UNL A   1      38.203 -18.579 -33.496  0.00  0.00    +0.000 HD
BRANCH  33  35
ATOM     35  C   UNL A   1      39.019 -19.395 -35.303  0.00  0.00    +0.041 A 
ATOM     36  C   UNL A   1      39.134 -20.797 -35.359  0.00  0.00    -0.005 A 
ATOM     37  C   UNL A   1      39.182 -21.393 -36.620  0.00  0.00    +0.047 A 
ATOM     38  N   UNL A   1      39.168 -20.685 -37.775  0.00  0.00    -0.251 NA
ATOM     39  C   UNL A   1      39.075 -19.352 -37.722  0.00  0.00    +0.074 A 
ATOM     40  C   UNL A   1      39.061 -18.663 -38.925  0.00  0.00    -0.017 A 
ATOM     41  C   UNL A   1      38.973 -17.274 -38.965  0.00  0.00    +0.043 A 
ATOM     42 CL   UNL A   1      38.960 -16.457 -40.478  0.00  0.00    -0.083 Cl
ATOM     43  C   UNL A   1      38.898 -16.545 -37.789  0.00  0.00    -0.043 A 
ATOM     44  C   UNL A   1      38.912 -17.221 -36.568  0.00  0.00    -0.049 A 
ATOM     45  C   UNL A   1      39.001 -18.635 -36.509  0.00  0.00    +0.022 A 
ATOM     46  C   UNL A   1      39.313 -22.885 -36.786  0.00  0.00    -0.010 C 
ATOM     47  C   UNL A   1      38.871 -23.670 -35.558  0.00  0.00    -0.047 C 
ATOM     48  C   UNL A   1      39.521 -23.087 -34.311  0.00  0.00    -0.049 C 
ATOM     49  C   UNL A   1      39.081 -21.638 -34.105  0.00  0.00    -0.024 C 
ENDBRANCH  33  35
ENDBRANCH  32  33
ENDBRANCH  31  32
ENDBRANCH  30  31
ENDBRANCH  29  30
ENDBRANCH  28  29
ENDBRANCH  27  28
ENDBRANCH  26  27
ENDBRANCH   3  26
TORSDOF 14
ENDMDL
MODEL 12
REMARK VINA RESULT:    -6.132      2.390      4.986
REMARK INTER + INTRA:         -16.927
REMARK INTER:                 -12.107
REMARK INTRA:                  -4.820
REMARK UNBOUND:                -5.777
REMARK  Name = cpd50.pdb
REMARK  16 active torsions:
REMARK  status: ('A' for Active; 'I' for Inactive)
REMARK    1  A    between atoms: C_1  and  C_2
REMARK    2  A    between atoms: C_6  and  N_7
REMARK    3  A    between atoms: N_7  and  C_8
REMARK    4  A    between atoms: C_13  and  C_14
REMARK    5  A    between atoms: N_16  and  C_17
REMARK    6  A    between atoms: C_17  and  C_18
REMARK    7  A    between atoms: N_20  and  C_21
REMARK    8  A    between atoms: C_21  and  C_22
REMARK    9  A    between atoms: C_22  and  C_23
REMARK   10  A    between atoms: C_23  and  C_24
REMARK   11  A    between atoms: C_24  and  C_25
REMARK   12  A    between atoms: C_25  and  C_26
REMARK   13  A    between atoms: C_26  and  C_27
REMARK   14  A    between atoms: C_27  and  N_28
REMARK   15  A    between atoms: N_28  and  C_29
REMARK   16  A    between atoms: C_44  and  C_45
REMARK                            x       y       z     vdW  Elec       q    Type
REMARK                         _______ _______ _______ _____ _____    ______ ____
ROOT
ATOM      1  C   UNL A   1      31.491 -37.694 -28.705  0.00  0.00    +0.230 C 
ATOM      2  O   UNL A   1      31.312 -38.484 -29.628  0.00  0.00    -0.274 OA
ATOM      3  N   UNL A   1      30.502 -37.339 -27.810  0.00  0.00    -0.314 N 
ATOM      4  H   UNL A   1      30.676 -36.596 -27.189  0.00  0.00    +0.000 HD
ENDROOT
BRANCH   1   5
ATOM      5  C   UNL A   1      32.816 -36.934 -28.534  0.00  0.00    +0.088 C 
BRANCH   5   8
ATOM      6  C   UNL A   1      34.850 -38.144 -27.669  0.00  0.00    +0.246 C 
ATOM      7  O   UNL A   1      35.747 -37.984 -26.848  0.00  0.00    -0.270 OA
ATOM      8  N   UNL A   1      33.641 -37.518 -27.472  0.00  0.00    -0.303 N 
ATOM      9  H   UNL A   1      33.305 -37.458 -26.549  0.00  0.00    +0.000 HD
BRANCH   6  15
ATOM     10  C   UNL A   1      35.923 -38.584 -29.920  0.00  0.00    +0.044 A 
ATOM     11  C   UNL A   1      36.063 -39.461 -31.010  0.00  0.00    -0.040 A 
ATOM     12  C   UNL A   1      35.327 -40.646 -31.090  0.00  0.00    -0.060 A 
ATOM     13  C   UNL A   1      34.439 -40.988 -30.074  0.00  0.00    -0.061 A 
ATOM     14  C   UNL A   1      34.304 -40.154 -28.966  0.00  0.00    -0.048 A 
ATOM     15  C   UNL A   1      35.062 -38.976 -28.875  0.00  0.00    +0.058 A 
BRANCH  10  16
ATOM     16  N   UNL A   1      36.687 -37.390 -29.864  0.00  0.00    -0.314 N 
ATOM     17  H   UNL A   1      36.175 -36.549 -29.863  0.00  0.00    +0.000 HD
BRANCH  16  23
ATOM     18  C   UNL A   1      40.955 -35.730 -31.879  0.00  0.00    -0.039 C 
ATOM     19  C   UNL A   1      40.188 -36.490 -30.831  0.00  0.00    -0.046 A 
ATOM     20  C   UNL A   1      40.906 -37.175 -29.838  0.00  0.00    -0.058 A 
ATOM     21  C   UNL A   1      40.244 -37.906 -28.858  0.00  0.00    -0.060 A 
ATOM     22  C   UNL A   1      38.853 -37.960 -28.854  0.00  0.00    -0.040 A 
ATOM     23  C   UNL A   1      38.101 -37.261 -29.811  0.00  0.00    +0.035 A 
ATOM     24  C   UNL A   1      38.773 -36.515 -30.809  0.00  0.00    -0.026 A 
ATOM     25  C   UNL A   1      37.978 -35.790 -31.868  0.00  0.00    -0.038 C 
ENDBRANCH  16  23
ENDBRANCH  10  16
ENDBRANCH   6  15
ENDBRANCH   5   8
ENDBRANCH   1   5
BRANCH   3  26
ATOM     26  C   UNL A   1      29.219 -38.010 -27.743  0.00  0.00    +0.012 C 
BRANCH  26  27
ATOM     27  C   UNL A   1      28.146 -37.151 -28.404  0.00  0.00    -0.037 C 
BRANCH  27  28
ATOM     28  C   UNL A   1      27.869 -37.577 -29.847  0.00  0.00    -0.052 C 
BRANCH  28  29
ATOM     29  C   UNL A   1      26.951 -36.562 -30.534  0.00  0.00    -0.053 C 
BRANCH  29  30
ATOM     30  C   UNL A   1      27.646 -35.725 -31.608  0.00  0.00    -0.052 C 
BRANCH  30  31
ATOM     31  C   UNL A   1      28.063 -34.335 -31.122  0.00  0.00    -0.037 C 
BRANCH  31  32
ATOM     32  C   UNL A   1      29.536 -34.320 -30.708  0.00  0.00    +0.009 C 
BRANCH  32  33
ATOM     33  N   UNL A   1      30.372 -34.086 -31.894  0.00  0.00    -0.343 N 
ATOM     34  H   UNL A   1      30.093 -33.555 -32.674  0.00  0.00    +0.000 HD
BRANCH  33  35
ATOM     35  C   UNL A   1      31.642 -34.728 -31.769  0.00  0.00    +0.041 A 
ATOM     36  C   UNL A   1      32.719 -33.997 -31.232  0.00  0.00    -0.005 A 
ATOM     37  C   UNL A   1      33.961 -34.630 -31.162  0.00  0.00    +0.047 A 
ATOM     38  N   UNL A   1      34.179 -35.885 -31.623  0.00  0.00    -0.251 NA
ATOM     39  C   UNL A   1      33.160 -36.574 -32.149  0.00  0.00    +0.074 A 
ATOM     40  C   UNL A   1      33.423 -37.856 -32.608  0.00  0.00    -0.017 A 
ATOM     41  C   UNL A   1      32.424 -38.642 -33.175  0.00  0.00    +0.043 A 
ATOM     42 CL   UNL A   1      32.791 -40.227 -33.734  0.00  0.00    -0.083 Cl
ATOM     43  C   UNL A   1      31.133 -38.153 -33.294  0.00  0.00    -0.043 A 
ATOM     44  C   UNL A   1      30.849 -36.866 -32.838  0.00  0.00    -0.049 A 
ATOM     45  C   UNL A   1      31.855 -36.050 -32.257  0.00  0.00    +0.022 A 
ATOM     46  C   UNL A   1      35.177 -33.931 -30.611  0.00  0.00    -0.010 C 
ATOM     47  C   UNL A   1      34.837 -32.756 -29.704  0.00  0.00    -0.047 C 
ATOM     48  C   UNL A   1      33.812 -31.858 -30.383  0.00  0.00    -0.049 C 
ATOM     49  C   UNL A   1      32.515 -32.624 -30.637  0.00  0.00    -0.024 C 
ENDBRANCH  33  35
ENDBRANCH  32  33
ENDBRANCH  31  32
ENDBRANCH  30  31
ENDBRANCH  29  30
ENDBRANCH  28  29
ENDBRANCH  27  28
ENDBRANCH  26  27
ENDBRANCH   3  26
TORSDOF 14
ENDMDL
MODEL 13
REMARK VINA RESULT:    -6.040     19.444     22.280
REMARK INTER + INTRA:         -16.760
REMARK INTER:                 -11.043
REMARK INTRA:                  -5.717
REMARK UNBOUND:                -5.777
REMARK  Name = cpd50.pdb
REMARK  16 active torsions:
REMARK  status: ('A' for Active; 'I' for Inactive)
REMARK    1  A    between atoms: C_1  and  C_2
REMARK    2  A    between atoms: C_6  and  N_7
REMARK    3  A    between atoms: N_7  and  C_8
REMARK    4  A    between atoms: C_13  and  C_14
REMARK    5  A    between atoms: N_16  and  C_17
REMARK    6  A    between atoms: C_17  and  C_18
REMARK    7  A    between atoms: N_20  and  C_21
REMARK    8  A    between atoms: C_21  and  C_22
REMARK    9  A    between atoms: C_22  and  C_23
REMARK   10  A    between atoms: C_23  and  C_24
REMARK   11  A    between atoms: C_24  and  C_25
REMARK   12  A    between atoms: C_25  and  C_26
REMARK   13  A    between atoms: C_26  and  C_27
REMARK   14  A    between atoms: C_27  and  N_28
REMARK   15  A    between atoms: N_28  and  C_29
REMARK   16  A    between atoms: C_44  and  C_45
REMARK                            x       y       z     vdW  Elec       q    Type
REMARK                         _______ _______ _______ _____ _____    ______ ____
ROOT
ATOM      1  C   UNL A   1      42.985 -20.186 -34.804  0.00  0.00    +0.230 C 
ATOM      2  O   UNL A   1      43.126 -20.964 -35.744  0.00  0.00    -0.274 OA
ATOM      3  N   UNL A   1      42.076 -20.386 -33.786  0.00  0.00    -0.314 N 
ATOM      4  H   UNL A   1      41.918 -19.654 -33.148  0.00  0.00    +0.000 HD
ENDROOT
BRANCH   1   5
ATOM      5  C   UNL A   1      43.740 -18.848 -34.741  0.00  0.00    +0.088 C 
BRANCH   5   8
ATOM      6  C   UNL A   1      46.221 -18.437 -34.601  0.00  0.00    +0.246 C 
ATOM      7  O   UNL A   1      47.050 -18.008 -33.805  0.00  0.00    -0.270 OA
ATOM      8  N   UNL A   1      45.062 -19.002 -34.125  0.00  0.00    -0.303 N 
ATOM      9  H   UNL A   1      45.123 -19.550 -33.310  0.00  0.00    +0.000 HD
BRANCH   6  15
ATOM     10  C   UNL A   1      46.237 -17.130 -36.770  0.00  0.00    +0.044 A 
ATOM     11  C   UNL A   1      46.497 -17.137 -38.152  0.00  0.00    -0.040 A 
ATOM     12  C   UNL A   1      46.883 -18.307 -38.813  0.00  0.00    -0.060 A 
ATOM     13  C   UNL A   1      47.028 -19.496 -38.105  0.00  0.00    -0.061 A 
ATOM     14  C   UNL A   1      46.808 -19.511 -36.729  0.00  0.00    -0.048 A 
ATOM     15  C   UNL A   1      46.445 -18.331 -36.061  0.00  0.00    +0.058 A 
BRANCH  10  16
ATOM     16  N   UNL A   1      45.851 -15.927 -36.125  0.00  0.00    -0.314 N 
ATOM     17  H   UNL A   1      46.489 -15.564 -35.468  0.00  0.00    +0.000 HD
BRANCH  16  23
ATOM     18  C   UNL A   1      43.503 -11.912 -37.970  0.00  0.00    -0.039 C 
ATOM     19  C   UNL A   1      43.526 -13.189 -37.173  0.00  0.00    -0.046 A 
ATOM     20  C   UNL A   1      42.353 -13.590 -36.514  0.00  0.00    -0.058 A 
ATOM     21  C   UNL A   1      42.329 -14.752 -35.751  0.00  0.00    -0.060 A 
ATOM     22  C   UNL A   1      43.475 -15.533 -35.640  0.00  0.00    -0.040 A 
ATOM     23  C   UNL A   1      44.656 -15.182 -36.312  0.00  0.00    +0.035 A 
ATOM     24  C   UNL A   1      44.683 -14.000 -37.091  0.00  0.00    -0.026 A 
ATOM     25  C   UNL A   1      45.958 -13.589 -37.788  0.00  0.00    -0.038 C 
ENDBRANCH  16  23
ENDBRANCH  10  16
ENDBRANCH   6  15
ENDBRANCH   5   8
ENDBRANCH   1   5
BRANCH   3  26
ATOM     26  C   UNL A   1      41.341 -21.623 -33.613  0.00  0.00    +0.012 C 
BRANCH  26  27
ATOM     27  C   UNL A   1      39.860 -21.394 -33.898  0.00  0.00    -0.037 C 
BRANCH  27  28
ATOM     28  C   UNL A   1      39.265 -22.485 -34.791  0.00  0.00    -0.052 C 
BRANCH  28  29
ATOM     29  C   UNL A   1      39.953 -22.488 -36.158  0.00  0.00    -0.053 C 
BRANCH  29  30
ATOM     30  C   UNL A   1      39.924 -21.135 -36.870  0.00  0.00    -0.052 C 
BRANCH  30  31
ATOM     31  C   UNL A   1      40.617 -21.150 -38.234  0.00  0.00    -0.037 C 
BRANCH  31  32
ATOM     32  C   UNL A   1      40.918 -19.727 -38.711  0.00  0.00    +0.009 C 
BRANCH  32  33
ATOM     33  N   UNL A   1      42.274 -19.349 -38.288  0.00  0.00    -0.343 N 
ATOM     34  H   UNL A   1      42.590 -19.369 -37.356  0.00  0.00    +0.000 HD
BRANCH  33  35
ATOM     35  C   UNL A   1      43.073 -18.948 -39.402  0.00  0.00    +0.041 A 
ATOM     36  C   UNL A   1      42.996 -17.613 -39.843  0.00  0.00    -0.005 A 
ATOM     37  C   UNL A   1      43.751 -17.256 -40.961  0.00  0.00    +0.047 A 
ATOM     38  N   UNL A   1      44.509 -18.138 -41.656  0.00  0.00    -0.251 NA
ATOM     39  C   UNL A   1      44.570 -19.410 -41.247  0.00  0.00    +0.074 A 
ATOM     40  C   UNL A   1      45.358 -20.282 -41.982  0.00  0.00    -0.017 A 
ATOM     41  C   UNL A   1      45.475 -21.625 -41.633  0.00  0.00    +0.043 A 
ATOM     42 CL   UNL A   1      46.462 -22.674 -42.572  0.00  0.00    -0.083 Cl
ATOM     43  C   UNL A   1      44.797 -22.121 -40.531  0.00  0.00    -0.043 A 
ATOM     44  C   UNL A   1      43.998 -21.259 -39.779  0.00  0.00    -0.049 A 
ATOM     45  C   UNL A   1      43.868 -19.888 -40.120  0.00  0.00    +0.022 A 
ATOM     46  C   UNL A   1      43.730 -15.855 -41.516  0.00  0.00    -0.010 C 
ATOM     47  C   UNL A   1      43.276 -14.812 -40.504  0.00  0.00    -0.047 C 
ATOM     48  C   UNL A   1      41.992 -15.272 -39.829  0.00  0.00    -0.049 C 
ATOM     49  C   UNL A   1      42.225 -16.574 -39.064  0.00  0.00    -0.024 C 
ENDBRANCH  33  35
ENDBRANCH  32  33
ENDBRANCH  31  32
ENDBRANCH  30  31
ENDBRANCH  29  30
ENDBRANCH  28  29
ENDBRANCH  27  28
ENDBRANCH  26  27
ENDBRANCH   3  26
TORSDOF 14
ENDMDL
MODEL 14
REMARK VINA RESULT:    -5.999     19.469     22.397
REMARK INTER + INTRA:         -16.686
REMARK INTER:                 -11.865
REMARK INTRA:                  -4.821
REMARK UNBOUND:                -5.777
REMARK  Name = cpd50.pdb
REMARK  16 active torsions:
REMARK  status: ('A' for Active; 'I' for Inactive)
REMARK    1  A    between atoms: C_1  and  C_2
REMARK    2  A    between atoms: C_6  and  N_7
REMARK    3  A    between atoms: N_7  and  C_8
REMARK    4  A    between atoms: C_13  and  C_14
REMARK    5  A    between atoms: N_16  and  C_17
REMARK    6  A    between atoms: C_17  and  C_18
REMARK    7  A    between atoms: N_20  and  C_21
REMARK    8  A    between atoms: C_21  and  C_22
REMARK    9  A    between atoms: C_22  and  C_23
REMARK   10  A    between atoms: C_23  and  C_24
REMARK   11  A    between atoms: C_24  and  C_25
REMARK   12  A    between atoms: C_25  and  C_26
REMARK   13  A    between atoms: C_26  and  C_27
REMARK   14  A    between atoms: C_27  and  N_28
REMARK   15  A    between atoms: N_28  and  C_29
REMARK   16  A    between atoms: C_44  and  C_45
REMARK                            x       y       z     vdW  Elec       q    Type
REMARK                         _______ _______ _______ _____ _____    ______ ____
ROOT
ATOM      1  C   UNL A   1      43.291 -15.814 -38.102  0.00  0.00    +0.230 C 
ATOM      2  O   UNL A   1      43.406 -15.569 -39.301  0.00  0.00    -0.274 OA
ATOM      3  N   UNL A   1      42.166 -16.392 -37.553  0.00  0.00    -0.314 N 
ATOM      4  H   UNL A   1      42.087 -16.426 -36.572  0.00  0.00    +0.000 HD
ENDROOT
BRANCH   1   5
ATOM      5  C   UNL A   1      44.359 -15.385 -37.082  0.00  0.00    +0.088 C 
BRANCH   5   8
ATOM      6  C   UNL A   1      46.547 -15.548 -38.320  0.00  0.00    +0.246 C 
ATOM      7  O   UNL A   1      47.060 -15.144 -39.358  0.00  0.00    -0.270 OA
ATOM      8  N   UNL A   1      45.538 -14.815 -37.741  0.00  0.00    -0.303 N 
ATOM      9  H   UNL A   1      45.612 -13.834 -37.771  0.00  0.00    +0.000 HD
BRANCH   6  15
ATOM     10  C   UNL A   1      46.843 -18.063 -38.355  0.00  0.00    +0.044 A 
ATOM     11  C   UNL A   1      47.306 -19.206 -37.681  0.00  0.00    -0.040 A 
ATOM     12  C   UNL A   1      47.826 -19.128 -36.386  0.00  0.00    -0.060 A 
ATOM     13  C   UNL A   1      47.903 -17.899 -35.736  0.00  0.00    -0.061 A 
ATOM     14  C   UNL A   1      47.480 -16.745 -36.392  0.00  0.00    -0.048 A 
ATOM     15  C   UNL A   1      46.982 -16.820 -37.702  0.00  0.00    +0.058 A 
BRANCH  10  16
ATOM     16  N   UNL A   1      46.324 -18.172 -39.670  0.00  0.00    -0.314 N 
ATOM     17  H   UNL A   1      46.651 -17.509 -40.321  0.00  0.00    +0.000 HD
BRANCH  16  23
ATOM     18  C   UNL A   1      45.171 -21.844 -42.867  0.00  0.00    -0.039 C 
ATOM     19  C   UNL A   1      44.817 -20.882 -41.765  0.00  0.00    -0.046 A 
ATOM     20  C   UNL A   1      43.496 -20.860 -41.292  0.00  0.00    -0.058 A 
ATOM     21  C   UNL A   1      43.116 -19.977 -40.287  0.00  0.00    -0.060 A 
ATOM     22  C   UNL A   1      44.053 -19.106 -39.738  0.00  0.00    -0.040 A 
ATOM     23  C   UNL A   1      45.390 -19.123 -40.163  0.00  0.00    +0.035 A 
ATOM     24  C   UNL A   1      45.780 -20.022 -41.185  0.00  0.00    -0.026 A 
ATOM     25  C   UNL A   1      47.206 -20.023 -41.679  0.00  0.00    -0.038 C 
ENDBRANCH  16  23
ENDBRANCH  10  16
ENDBRANCH   6  15
ENDBRANCH   5   8
ENDBRANCH   1   5
BRANCH   3  26
ATOM     26  C   UNL A   1      41.095 -16.953 -38.352  0.00  0.00    +0.012 C 
BRANCH  26  27
ATOM     27  C   UNL A   1      40.788 -18.375 -37.890  0.00  0.00    -0.037 C 
BRANCH  27  28
ATOM     28  C   UNL A   1      41.270 -18.638 -36.461  0.00  0.00    -0.052 C 
BRANCH  28  29
ATOM     29  C   UNL A   1      42.251 -19.812 -36.439  0.00  0.00    -0.053 C 
BRANCH  29  30
ATOM     30  C   UNL A   1      43.713 -19.397 -36.273  0.00  0.00    -0.052 C 
BRANCH  30  31
ATOM     31  C   UNL A   1      44.406 -20.069 -35.086  0.00  0.00    -0.037 C 
BRANCH  31  32
ATOM     32  C   UNL A   1      44.959 -19.025 -34.113  0.00  0.00    +0.009 C 
BRANCH  32  33
ATOM     33  N   UNL A   1      44.301 -19.180 -32.807  0.00  0.00    -0.343 N 
ATOM     34  H   UNL A   1      44.648 -19.736 -32.074  0.00  0.00    +0.000 HD
BRANCH  33  35
ATOM     35  C   UNL A   1      43.094 -18.420 -32.741  0.00  0.00    +0.041 A 
ATOM     36  C   UNL A   1      41.863 -19.102 -32.776  0.00  0.00    -0.005 A 
ATOM     37  C   UNL A   1      40.696 -18.337 -32.756  0.00  0.00    +0.047 A 
ATOM     38  N   UNL A   1      40.700 -16.982 -32.749  0.00  0.00    -0.251 NA
ATOM     39  C   UNL A   1      41.869 -16.332 -32.732  0.00  0.00    +0.074 A 
ATOM     40  C   UNL A   1      41.831 -14.946 -32.723  0.00  0.00    -0.017 A 
ATOM     41  C   UNL A   1      42.999 -14.189 -32.712  0.00  0.00    +0.043 A 
ATOM     42 CL   UNL A   1      42.909 -12.471 -32.702  0.00  0.00    -0.083 Cl
ATOM     43  C   UNL A   1      44.236 -14.813 -32.711  0.00  0.00    -0.043 A 
ATOM     44  C   UNL A   1      44.295 -16.207 -32.720  0.00  0.00    -0.049 A 
ATOM     45  C   UNL A   1      43.115 -16.995 -32.732  0.00  0.00    +0.022 A 
ATOM     46  C   UNL A   1      39.331 -18.972 -32.798  0.00  0.00    -0.010 C 
ATOM     47  C   UNL A   1      39.328 -20.427 -32.348  0.00  0.00    -0.047 C 
ATOM     48  C   UNL A   1      40.433 -21.191 -33.063  0.00  0.00    -0.049 C 
ATOM     49  C   UNL A   1      41.801 -20.611 -32.711  0.00  0.00    -0.024 C 
ENDBRANCH  33  35
ENDBRANCH  32  33
ENDBRANCH  31  32
ENDBRANCH  30  31
ENDBRANCH  29  30
ENDBRANCH  28  29
ENDBRANCH  27  28
ENDBRANCH  26  27
ENDBRANCH   3  26
TORSDOF 14
ENDMDL
MODEL 15
REMARK VINA RESULT:    -5.953     18.456     21.381
REMARK INTER + INTRA:         -16.602
REMARK INTER:                 -10.926
REMARK INTRA:                  -5.677
REMARK UNBOUND:                -5.777
REMARK  Name = cpd50.pdb
REMARK  16 active torsions:
REMARK  status: ('A' for Active; 'I' for Inactive)
REMARK    1  A    between atoms: C_1  and  C_2
REMARK    2  A    between atoms: C_6  and  N_7
REMARK    3  A    between atoms: N_7  and  C_8
REMARK    4  A    between atoms: C_13  and  C_14
REMARK    5  A    between atoms: N_16  and  C_17
REMARK    6  A    between atoms: C_17  and  C_18
REMARK    7  A    between atoms: N_20  and  C_21
REMARK    8  A    between atoms: C_21  and  C_22
REMARK    9  A    between atoms: C_22  and  C_23
REMARK   10  A    between atoms: C_23  and  C_24
REMARK   11  A    between atoms: C_24  and  C_25
REMARK   12  A    between atoms: C_25  and  C_26
REMARK   13  A    between atoms: C_26  and  C_27
REMARK   14  A    between atoms: C_27  and  N_28
REMARK   15  A    between atoms: N_28  and  C_29
REMARK   16  A    between atoms: C_44  and  C_45
REMARK                            x       y       z     vdW  Elec       q    Type
REMARK                         _______ _______ _______ _____ _____    ______ ____
ROOT
ATOM      1  C   UNL A   1      46.664 -18.658 -36.606  0.00  0.00    +0.230 C 
ATOM      2  O   UNL A   1      47.207 -17.591 -36.330  0.00  0.00    -0.274 OA
ATOM      3  N   UNL A   1      45.972 -19.416 -35.683  0.00  0.00    -0.314 N 
ATOM      4  H   UNL A   1      45.690 -20.323 -35.938  0.00  0.00    +0.000 HD
ENDROOT
BRANCH   1   5
ATOM      5  C   UNL A   1      46.810 -19.307 -37.992  0.00  0.00    +0.088 C 
BRANCH   5   8
ATOM      6  C   UNL A   1      46.130 -18.492 -40.276  0.00  0.00    +0.246 C 
ATOM      7  O   UNL A   1      45.528 -17.554 -40.788  0.00  0.00    -0.270 OA
ATOM      8  N   UNL A   1      46.752 -18.309 -39.064  0.00  0.00    -0.303 N 
ATOM      9  H   UNL A   1      47.192 -17.443 -38.904  0.00  0.00    +0.000 HD
BRANCH   6  15
ATOM     10  C   UNL A   1      45.020 -20.613 -41.103  0.00  0.00    +0.044 A 
ATOM     11  C   UNL A   1      45.172 -21.848 -41.758  0.00  0.00    -0.040 A 
ATOM     12  C   UNL A   1      46.429 -22.304 -42.168  0.00  0.00    -0.060 A 
ATOM     13  C   UNL A   1      47.562 -21.528 -41.942  0.00  0.00    -0.061 A 
ATOM     14  C   UNL A   1      47.436 -20.286 -41.324  0.00  0.00    -0.048 A 
ATOM     15  C   UNL A   1      46.172 -19.818 -40.934  0.00  0.00    +0.058 A 
BRANCH  10  16
ATOM     16  N   UNL A   1      43.732 -20.175 -40.701  0.00  0.00    -0.314 N 
ATOM     17  H   UNL A   1      43.263 -19.578 -41.329  0.00  0.00    +0.000 HD
BRANCH  16  23
ATOM     18  C   UNL A   1      39.914 -22.431 -38.386  0.00  0.00    -0.039 C 
ATOM     19  C   UNL A   1      41.138 -21.555 -38.385  0.00  0.00    -0.046 A 
ATOM     20  C   UNL A   1      41.532 -20.954 -37.180  0.00  0.00    -0.058 A 
ATOM     21  C   UNL A   1      42.645 -20.122 -37.131  0.00  0.00    -0.060 A 
ATOM     22  C   UNL A   1      43.383 -19.882 -38.287  0.00  0.00    -0.040 A 
ATOM     23  C   UNL A   1      43.037 -20.492 -39.503  0.00  0.00    +0.035 A 
ATOM     24  C   UNL A   1      41.905 -21.340 -39.555  0.00  0.00    -0.026 A 
ATOM     25  C   UNL A   1      41.499 -21.971 -40.865  0.00  0.00    -0.038 C 
ENDBRANCH  16  23
ENDBRANCH  10  16
ENDBRANCH   6  15
ENDBRANCH   5   8
ENDBRANCH   1   5
BRANCH   3  26
ATOM     26  C   UNL A   1      45.643 -18.937 -34.355  0.00  0.00    +0.012 C 
BRANCH  26  27
ATOM     27  C   UNL A   1      44.180 -18.507 -34.304  0.00  0.00    -0.037 C 
BRANCH  27  28
ATOM     28  C   UNL A   1      43.432 -19.129 -33.122  0.00  0.00    -0.052 C 
BRANCH  28  29
ATOM     29  C   UNL A   1      42.362 -20.102 -33.622  0.00  0.00    -0.053 C 
BRANCH  29  30
ATOM     30  C   UNL A   1      41.345 -20.508 -32.556  0.00  0.00    -0.052 C 
BRANCH  30  31
ATOM     31  C   UNL A   1      40.004 -19.782 -32.686  0.00  0.00    -0.037 C 
BRANCH  31  32
ATOM     32  C   UNL A   1      39.571 -19.690 -34.151  0.00  0.00    +0.009 C 
BRANCH  32  33
ATOM     33  N   UNL A   1      39.007 -18.357 -34.408  0.00  0.00    -0.343 N 
ATOM     34  H   UNL A   1      38.139 -18.046 -34.065  0.00  0.00    +0.000 HD
BRANCH  33  35
ATOM     35  C   UNL A   1      39.881 -17.572 -35.221  0.00  0.00    +0.041 A 
ATOM     36  C   UNL A   1      39.814 -17.717 -36.620  0.00  0.00    -0.005 A 
ATOM     37  C   UNL A   1      40.708 -16.974 -37.392  0.00  0.00    +0.047 A 
ATOM     38  N   UNL A   1      41.653 -16.164 -36.857  0.00  0.00    -0.251 NA
ATOM     39  C   UNL A   1      41.728 -16.038 -35.527  0.00  0.00    +0.074 A 
ATOM     40  C   UNL A   1      42.706 -15.198 -35.018  0.00  0.00    -0.017 A 
ATOM     41  C   UNL A   1      42.860 -15.013 -33.646  0.00  0.00    +0.043 A 
ATOM     42 CL   UNL A   1      44.088 -13.963 -33.054  0.00  0.00    -0.083 Cl
ATOM     43  C   UNL A   1      42.030 -15.672 -32.754  0.00  0.00    -0.043 A 
ATOM     44  C   UNL A   1      41.040 -16.521 -33.248  0.00  0.00    -0.049 A 
ATOM     45  C   UNL A   1      40.868 -16.723 -34.642  0.00  0.00    +0.022 A 
ATOM     46  C   UNL A   1      40.722 -17.065 -38.896  0.00  0.00    -0.010 C 
ATOM     47  C   UNL A   1      39.414 -17.583 -39.481  0.00  0.00    -0.047 C 
ATOM     48  C   UNL A   1      38.984 -18.846 -38.748  0.00  0.00    -0.049 C 
ATOM     49  C   UNL A   1      38.734 -18.549 -37.271  0.00  0.00    -0.024 C 
ENDBRANCH  33  35
ENDBRANCH  32  33
ENDBRANCH  31  32
ENDBRANCH  30  31
ENDBRANCH  29  30
ENDBRANCH  28  29
ENDBRANCH  27  28
ENDBRANCH  26  27
ENDBRANCH   3  26
TORSDOF 14
ENDMDL
MODEL 16
REMARK VINA RESULT:    -5.916     17.598     21.047
REMARK INTER + INTRA:         -16.535
REMARK INTER:                 -11.584
REMARK INTRA:                  -4.950
REMARK UNBOUND:                -5.777
REMARK  Name = cpd50.pdb
REMARK  16 active torsions:
REMARK  status: ('A' for Active; 'I' for Inactive)
REMARK    1  A    between atoms: C_1  and  C_2
REMARK    2  A    between atoms: C_6  and  N_7
REMARK    3  A    between atoms: N_7  and  C_8
REMARK    4  A    between atoms: C_13  and  C_14
REMARK    5  A    between atoms: N_16  and  C_17
REMARK    6  A    between atoms: C_17  and  C_18
REMARK    7  A    between atoms: N_20  and  C_21
REMARK    8  A    between atoms: C_21  and  C_22
REMARK    9  A    between atoms: C_22  and  C_23
REMARK   10  A    between atoms: C_23  and  C_24
REMARK   11  A    between atoms: C_24  and  C_25
REMARK   12  A    between atoms: C_25  and  C_26
REMARK   13  A    between atoms: C_26  and  C_27
REMARK   14  A    between atoms: C_27  and  N_28
REMARK   15  A    between atoms: N_28  and  C_29
REMARK   16  A    between atoms: C_44  and  C_45
REMARK                            x       y       z     vdW  Elec       q    Type
REMARK                         _______ _______ _______ _____ _____    ______ ____
ROOT
ATOM      1  C   UNL A   1      42.147 -14.838 -33.629  0.00  0.00    +0.230 C 
ATOM      2  O   UNL A   1      42.060 -13.968 -32.765  0.00  0.00    -0.274 OA
ATOM      3  N   UNL A   1      41.103 -15.182 -34.463  0.00  0.00    -0.314 N 
ATOM      4  H   UNL A   1      41.200 -15.981 -35.029  0.00  0.00    +0.000 HD
ENDROOT
BRANCH   1   5
ATOM      5  C   UNL A   1      43.405 -15.708 -33.778  0.00  0.00    +0.088 C 
BRANCH   5   8
ATOM      6  C   UNL A   1      44.294 -17.741 -32.586  0.00  0.00    +0.246 C 
ATOM      7  O   UNL A   1      45.028 -18.019 -31.643  0.00  0.00    -0.270 OA
ATOM      8  N   UNL A   1      43.635 -16.535 -32.590  0.00  0.00    -0.303 N 
ATOM      9  H   UNL A   1      43.290 -16.202 -31.730  0.00  0.00    +0.000 HD
BRANCH   6  15
ATOM     10  C   UNL A   1      43.188 -19.719 -33.716  0.00  0.00    +0.044 A 
ATOM     11  C   UNL A   1      43.109 -20.534 -34.859  0.00  0.00    -0.040 A 
ATOM     12  C   UNL A   1      43.981 -20.360 -35.938  0.00  0.00    -0.060 A 
ATOM     13  C   UNL A   1      44.946 -19.358 -35.904  0.00  0.00    -0.061 A 
ATOM     14  C   UNL A   1      45.025 -18.514 -34.797  0.00  0.00    -0.048 A 
ATOM     15  C   UNL A   1      44.134 -18.673 -33.725  0.00  0.00    +0.058 A 
BRANCH  10  16
ATOM     16  N   UNL A   1      42.287 -19.916 -32.638  0.00  0.00    -0.314 N 
ATOM     17  H   UNL A   1      42.676 -20.284 -31.811  0.00  0.00    +0.000 HD
BRANCH  16  23
ATOM     18  C   UNL A   1      37.565 -21.557 -32.843  0.00  0.00    -0.039 C 
ATOM     19  C   UNL A   1      38.587 -20.454 -32.760  0.00  0.00    -0.046 A 
ATOM     20  C   UNL A   1      38.140 -19.124 -32.759  0.00  0.00    -0.058 A 
ATOM     21  C   UNL A   1      39.045 -18.070 -32.702  0.00  0.00    -0.060 A 
ATOM     22  C   UNL A   1      40.411 -18.331 -32.641  0.00  0.00    -0.040 A 
ATOM     23  C   UNL A   1      40.892 -19.649 -32.607  0.00  0.00    +0.035 A 
ATOM     24  C   UNL A   1      39.973 -20.724 -32.663  0.00  0.00    -0.026 A 
ATOM     25  C   UNL A   1      40.479 -22.146 -32.666  0.00  0.00    -0.038 C 
ENDBRANCH  16  23
ENDBRANCH  10  16
ENDBRANCH   6  15
ENDBRANCH   5   8
ENDBRANCH   1   5
BRANCH   3  26
ATOM     26  C   UNL A   1      39.873 -14.422 -34.545  0.00  0.00    +0.012 C 
BRANCH  26  27
ATOM     27  C   UNL A   1      39.945 -13.435 -35.707  0.00  0.00    -0.037 C 
BRANCH  27  28
ATOM     28  C   UNL A   1      40.606 -14.043 -36.945  0.00  0.00    -0.052 C 
BRANCH  28  29
ATOM     29  C   UNL A   1      39.542 -14.487 -37.952  0.00  0.00    -0.053 C 
BRANCH  29  30
ATOM     30  C   UNL A   1      39.205 -15.976 -37.884  0.00  0.00    -0.052 C 
BRANCH  30  31
ATOM     31  C   UNL A   1      39.381 -16.702 -39.219  0.00  0.00    -0.037 C 
BRANCH  31  32
ATOM     32  C   UNL A   1      40.858 -16.773 -39.614  0.00  0.00    +0.009 C 
BRANCH  32  33
ATOM     33  N   UNL A   1      41.632 -17.344 -38.503  0.00  0.00    -0.343 N 
ATOM     34  H   UNL A   1      41.924 -16.836 -37.712  0.00  0.00    +0.000 HD
BRANCH  33  35
ATOM     35  C   UNL A   1      41.906 -18.728 -38.719  0.00  0.00    +0.041 A 
ATOM     36  C   UNL A   1      42.832 -19.086 -39.718  0.00  0.00    -0.005 A 
ATOM     37  C   UNL A   1      43.050 -20.446 -39.942  0.00  0.00    +0.047 A 
ATOM     38  N   UNL A   1      42.385 -21.422 -39.278  0.00  0.00    -0.251 NA
ATOM     39  C   UNL A   1      41.493 -21.083 -38.341  0.00  0.00    +0.074 A 
ATOM     40  C   UNL A   1      40.836 -22.111 -37.682  0.00  0.00    -0.017 A 
ATOM     41  C   UNL A   1      39.887 -21.850 -36.696  0.00  0.00    +0.043 A 
ATOM     42 CL   UNL A   1      39.092 -23.153 -35.903  0.00  0.00    -0.083 Cl
ATOM     43  C   UNL A   1      39.579 -20.544 -36.351  0.00  0.00    -0.043 A 
ATOM     44  C   UNL A   1      40.231 -19.497 -37.004  0.00  0.00    -0.049 A 
ATOM     45  C   UNL A   1      41.200 -19.743 -38.010  0.00  0.00    +0.022 A 
ATOM     46  C   UNL A   1      44.014 -20.931 -40.994  0.00  0.00    -0.010 C 
ATOM     47  C   UNL A   1      45.054 -19.889 -41.384  0.00  0.00    -0.047 C 
ATOM     48  C   UNL A   1      44.371 -18.562 -41.679  0.00  0.00    -0.049 C 
ATOM     49  C   UNL A   1      43.653 -18.040 -40.436  0.00  0.00    -0.024 C 
ENDBRANCH  33  35
ENDBRANCH  32  33
ENDBRANCH  31  32
ENDBRANCH  30  31
ENDBRANCH  29  30
ENDBRANCH  28  29
ENDBRANCH  27  28
ENDBRANCH  26  27
ENDBRANCH   3  26
TORSDOF 14
ENDMDL
MODEL 17
REMARK VINA RESULT:    -5.901     18.415     21.274
REMARK INTER + INTRA:         -16.507
REMARK INTER:                 -11.904
REMARK INTRA:                  -4.603
REMARK UNBOUND:                -5.777
REMARK  Name = cpd50.pdb
REMARK  16 active torsions:
REMARK  status: ('A' for Active; 'I' for Inactive)
REMARK    1  A    between atoms: C_1  and  C_2
REMARK    2  A    between atoms: C_6  and  N_7
REMARK    3  A    between atoms: N_7  and  C_8
REMARK    4  A    between atoms: C_13  and  C_14
REMARK    5  A    between atoms: N_16  and  C_17
REMARK    6  A    between atoms: C_17  and  C_18
REMARK    7  A    between atoms: N_20  and  C_21
REMARK    8  A    between atoms: C_21  and  C_22
REMARK    9  A    between atoms: C_22  and  C_23
REMARK   10  A    between atoms: C_23  and  C_24
REMARK   11  A    between atoms: C_24  and  C_25
REMARK   12  A    between atoms: C_25  and  C_26
REMARK   13  A    between atoms: C_26  and  C_27
REMARK   14  A    between atoms: C_27  and  N_28
REMARK   15  A    between atoms: N_28  and  C_29
REMARK   16  A    between atoms: C_44  and  C_45
REMARK                            x       y       z     vdW  Elec       q    Type
REMARK                         _______ _______ _______ _____ _____    ______ ____
ROOT
ATOM      1  C   UNL A   1      43.233 -15.909 -38.233  0.00  0.00    +0.230 C 
ATOM      2  O   UNL A   1      43.306 -15.175 -39.216  0.00  0.00    -0.274 OA
ATOM      3  N   UNL A   1      42.050 -16.464 -37.789  0.00  0.00    -0.314 N 
ATOM      4  H   UNL A   1      42.045 -16.921 -36.917  0.00  0.00    +0.000 HD
ENDROOT
BRANCH   1   5
ATOM      5  C   UNL A   1      44.450 -16.183 -37.336  0.00  0.00    +0.088 C 
BRANCH   5   8
ATOM      6  C   UNL A   1      46.531 -17.246 -38.276  0.00  0.00    +0.246 C 
ATOM      7  O   UNL A   1      47.087 -17.405 -39.358  0.00  0.00    -0.270 OA
ATOM      8  N   UNL A   1      45.701 -16.165 -38.100  0.00  0.00    -0.303 N 
ATOM      9  H   UNL A   1      45.966 -15.314 -38.519  0.00  0.00    +0.000 HD
BRANCH   6  15
ATOM     10  C   UNL A   1      46.033 -19.442 -37.117  0.00  0.00    +0.044 A 
ATOM     11  C   UNL A   1      46.307 -20.294 -36.032  0.00  0.00    -0.040 A 
ATOM     12  C   UNL A   1      47.182 -19.912 -35.010  0.00  0.00    -0.060 A 
ATOM     13  C   UNL A   1      47.812 -18.672 -35.055  0.00  0.00    -0.061 A 
ATOM     14  C   UNL A   1      47.583 -17.821 -36.134  0.00  0.00    -0.048 A 
ATOM     15  C   UNL A   1      46.725 -18.214 -37.173  0.00  0.00    +0.058 A 
BRANCH  10  16
ATOM     16  N   UNL A   1      45.145 -19.858 -38.141  0.00  0.00    -0.314 N 
ATOM     17  H   UNL A   1      44.186 -19.708 -37.970  0.00  0.00    +0.000 HD
BRANCH  16  23
ATOM     18  C   UNL A   1      44.520 -20.166 -43.096  0.00  0.00    -0.039 C 
ATOM     19  C   UNL A   1      45.118 -20.642 -41.800  0.00  0.00    -0.046 A 
ATOM     20  C   UNL A   1      45.935 -21.784 -41.817  0.00  0.00    -0.058 A 
ATOM     21  C   UNL A   1      46.497 -22.274 -40.644  0.00  0.00    -0.060 A 
ATOM     22  C   UNL A   1      46.254 -21.627 -39.435  0.00  0.00    -0.040 A 
ATOM     23  C   UNL A   1      45.470 -20.465 -39.385  0.00  0.00    +0.035 A 
ATOM     24  C   UNL A   1      44.897 -19.963 -40.578  0.00  0.00    -0.026 A 
ATOM     25  C   UNL A   1      44.019 -18.735 -40.532  0.00  0.00    -0.038 C 
ENDBRANCH  16  23
ENDBRANCH  10  16
ENDBRANCH   6  15
ENDBRANCH   5   8
ENDBRANCH   1   5
BRANCH   3  26
ATOM     26  C   UNL A   1      40.816 -16.405 -38.545  0.00  0.00    +0.012 C 
BRANCH  26  27
ATOM     27  C   UNL A   1      39.686 -17.056 -37.753  0.00  0.00    -0.037 C 
BRANCH  27  28
ATOM     28  C   UNL A   1      40.203 -18.083 -36.743  0.00  0.00    -0.052 C 
BRANCH  28  29
ATOM     29  C   UNL A   1      39.904 -19.503 -37.229  0.00  0.00    -0.053 C 
BRANCH  29  30
ATOM     30  C   UNL A   1      41.136 -20.261 -37.726  0.00  0.00    -0.052 C 
BRANCH  30  31
ATOM     31  C   UNL A   1      41.541 -21.425 -36.820  0.00  0.00    -0.037 C 
BRANCH  31  32
ATOM     32  C   UNL A   1      42.578 -20.981 -35.786  0.00  0.00    +0.009 C 
BRANCH  32  33
ATOM     33  N   UNL A   1      42.084 -21.291 -34.437  0.00  0.00    -0.343 N 
ATOM     34  H   UNL A   1      42.188 -22.164 -33.995  0.00  0.00    +0.000 HD
BRANCH  33  35
ATOM     35  C   UNL A   1      41.433 -20.163 -33.850  0.00  0.00    +0.041 A 
ATOM     36  C   UNL A   1      40.034 -20.198 -33.689  0.00  0.00    -0.005 A 
ATOM     37  C   UNL A   1      39.415 -19.067 -33.155  0.00  0.00    +0.047 A 
ATOM     38  N   UNL A   1      40.089 -17.938 -32.831  0.00  0.00    -0.251 NA
ATOM     39  C   UNL A   1      41.416 -17.898 -32.999  0.00  0.00    +0.074 A 
ATOM     40  C   UNL A   1      42.070 -16.725 -32.653  0.00  0.00    -0.017 A 
ATOM     41  C   UNL A   1      43.448 -16.594 -32.799  0.00  0.00    +0.043 A 
ATOM     42 CL   UNL A   1      44.222 -15.121 -32.360  0.00  0.00    -0.083 Cl
ATOM     43  C   UNL A   1      44.201 -17.643 -33.300  0.00  0.00    -0.043 A 
ATOM     44  C   UNL A   1      43.560 -18.831 -33.654  0.00  0.00    -0.049 A 
ATOM     45  C   UNL A   1      42.157 -18.983 -33.511  0.00  0.00    +0.022 A 
ATOM     46  C   UNL A   1      37.924 -19.002 -32.953  0.00  0.00    -0.010 C 
ATOM     47  C   UNL A   1      37.265 -20.373 -32.876  0.00  0.00    -0.047 C 
ATOM     48  C   UNL A   1      37.735 -21.238 -34.037  0.00  0.00    -0.049 C 
ATOM     49  C   UNL A   1      39.245 -21.456 -33.967  0.00  0.00    -0.024 C 
ENDBRANCH  33  35
ENDBRANCH  32  33
ENDBRANCH  31  32
ENDBRANCH  30  31
ENDBRANCH  29  30
ENDBRANCH  28  29
ENDBRANCH  27  28
ENDBRANCH  26  27
ENDBRANCH   3  26
TORSDOF 14
ENDMDL
MODEL 18
REMARK VINA RESULT:    -5.862     19.689     22.638
REMARK INTER + INTRA:         -16.438
REMARK INTER:                 -10.887
REMARK INTRA:                  -5.550
REMARK UNBOUND:                -5.777
REMARK  Name = cpd50.pdb
REMARK  16 active torsions:
REMARK  status: ('A' for Active; 'I' for Inactive)
REMARK    1  A    between atoms: C_1  and  C_2
REMARK    2  A    between atoms: C_6  and  N_7
REMARK    3  A    between atoms: N_7  and  C_8
REMARK    4  A    between atoms: C_13  and  C_14
REMARK    5  A    between atoms: N_16  and  C_17
REMARK    6  A    between atoms: C_17  and  C_18
REMARK    7  A    between atoms: N_20  and  C_21
REMARK    8  A    between atoms: C_21  and  C_22
REMARK    9  A    between atoms: C_22  and  C_23
REMARK   10  A    between atoms: C_23  and  C_24
REMARK   11  A    between atoms: C_24  and  C_25
REMARK   12  A    between atoms: C_25  and  C_26
REMARK   13  A    between atoms: C_26  and  C_27
REMARK   14  A    between atoms: C_27  and  N_28
REMARK   15  A    between atoms: N_28  and  C_29
REMARK   16  A    between atoms: C_44  and  C_45
REMARK                            x       y       z     vdW  Elec       q    Type
REMARK                         _______ _______ _______ _____ _____    ______ ____
ROOT
ATOM      1  C   UNL A   1      43.067 -19.961 -34.456  0.00  0.00    +0.230 C 
ATOM      2  O   UNL A   1      43.049 -19.576 -35.622  0.00  0.00    -0.274 OA
ATOM      3  N   UNL A   1      41.924 -20.216 -33.725  0.00  0.00    -0.314 N 
ATOM      4  H   UNL A   1      42.012 -20.381 -32.759  0.00  0.00    +0.000 HD
ENDROOT
BRANCH   1   5
ATOM      5  C   UNL A   1      44.378 -20.084 -33.663  0.00  0.00    +0.088 C 
BRANCH   5   8
ATOM      6  C   UNL A   1      46.047 -18.260 -34.147  0.00  0.00    +0.246 C 
ATOM      7  O   UNL A   1      47.262 -18.109 -34.228  0.00  0.00    -0.270 OA
ATOM      8  N   UNL A   1      45.507 -19.500 -34.394  0.00  0.00    -0.303 N 
ATOM      9  H   UNL A   1      45.909 -20.036 -35.114  0.00  0.00    +0.000 HD
BRANCH   6  15
ATOM     10  C   UNL A   1      44.366 -16.449 -34.702  0.00  0.00    +0.044 A 
ATOM     11  C   UNL A   1      43.553 -15.406 -34.225  0.00  0.00    -0.040 A 
ATOM     12  C   UNL A   1      43.583 -15.016 -32.882  0.00  0.00    -0.060 A 
ATOM     13  C   UNL A   1      44.422 -15.668 -31.983  0.00  0.00    -0.061 A 
ATOM     14  C   UNL A   1      45.214 -16.727 -32.422  0.00  0.00    -0.048 A 
ATOM     15  C   UNL A   1      45.165 -17.134 -33.764  0.00  0.00    +0.058 A 
BRANCH  10  16
ATOM     16  N   UNL A   1      44.311 -16.826 -36.068  0.00  0.00    -0.314 N 
ATOM     17  H   UNL A   1      43.499 -17.306 -36.353  0.00  0.00    +0.000 HD
BRANCH  16  23
ATOM     18  C   UNL A   1      46.157 -13.944 -39.718  0.00  0.00    -0.039 C 
ATOM     19  C   UNL A   1      46.150 -15.204 -38.894  0.00  0.00    -0.046 A 
ATOM     20  C   UNL A   1      47.069 -16.217 -39.210  0.00  0.00    -0.058 A 
ATOM     21  C   UNL A   1      47.091 -17.406 -38.491  0.00  0.00    -0.060 A 
ATOM     22  C   UNL A   1      46.196 -17.599 -37.442  0.00  0.00    -0.040 A 
ATOM     23  C   UNL A   1      45.286 -16.595 -37.077  0.00  0.00    +0.035 A 
ATOM     24  C   UNL A   1      45.262 -15.382 -37.806  0.00  0.00    -0.026 A 
ATOM     25  C   UNL A   1      44.262 -14.310 -37.450  0.00  0.00    -0.038 C 
ENDBRANCH  16  23
ENDBRANCH  10  16
ENDBRANCH   6  15
ENDBRANCH   5   8
ENDBRANCH   1   5
BRANCH   3  26
ATOM     26  C   UNL A   1      40.601 -20.251 -34.314  0.00  0.00    +0.012 C 
BRANCH  26  27
ATOM     27  C   UNL A   1      39.916 -18.898 -34.143  0.00  0.00    -0.037 C 
BRANCH  27  28
ATOM     28  C   UNL A   1      39.853 -18.109 -35.452  0.00  0.00    -0.052 C 
BRANCH  28  29
ATOM     29  C   UNL A   1      38.731 -18.647 -36.343  0.00  0.00    -0.053 C 
BRANCH  29  30
ATOM     30  C   UNL A   1      39.182 -19.727 -37.326  0.00  0.00    -0.052 C 
BRANCH  30  31
ATOM     31  C   UNL A   1      39.736 -19.165 -38.637  0.00  0.00    -0.037 C 
BRANCH  31  32
ATOM     32  C   UNL A   1      41.098 -19.783 -38.965  0.00  0.00    +0.009 C 
BRANCH  32  33
ATOM     33  N   UNL A   1      42.163 -18.938 -38.406  0.00  0.00    -0.343 N 
ATOM     34  H   UNL A   1      42.238 -18.698 -37.454  0.00  0.00    +0.000 HD
BRANCH  33  35
ATOM     35  C   UNL A   1      43.073 -18.511 -39.419  0.00  0.00    +0.041 A 
ATOM     36  C   UNL A   1      42.863 -17.262 -40.034  0.00  0.00    -0.005 A 
ATOM     37  C   UNL A   1      43.738 -16.886 -41.054  0.00  0.00    +0.047 A 
ATOM     38  N   UNL A   1      44.741 -17.680 -41.500  0.00  0.00    -0.251 NA
ATOM     39  C   UNL A   1      44.931 -18.874 -40.928  0.00  0.00    +0.074 A 
ATOM     40  C   UNL A   1      45.969 -19.657 -41.410  0.00  0.00    -0.017 A 
ATOM     41  C   UNL A   1      46.235 -20.916 -40.878  0.00  0.00    +0.043 A 
ATOM     42 CL   UNL A   1      47.531 -21.857 -41.506  0.00  0.00    -0.083 Cl
ATOM     43  C   UNL A   1      45.460 -21.417 -39.845  0.00  0.00    -0.043 A 
ATOM     44  C   UNL A   1      44.411 -20.643 -39.346  0.00  0.00    -0.049 A 
ATOM     45  C   UNL A   1      44.125 -19.358 -39.876  0.00  0.00    +0.022 A 
ATOM     46  C   UNL A   1      43.593 -15.573 -41.779  0.00  0.00    -0.010 C 
ATOM     47  C   UNL A   1      42.802 -14.535 -40.993  0.00  0.00    -0.047 C 
ATOM     48  C   UNL A   1      41.509 -15.150 -40.479  0.00  0.00    -0.049 C 
ATOM     49  C   UNL A   1      41.807 -16.308 -39.527  0.00  0.00    -0.024 C 
ENDBRANCH  33  35
ENDBRANCH  32  33
ENDBRANCH  31  32
ENDBRANCH  30  31
ENDBRANCH  29  30
ENDBRANCH  28  29
ENDBRANCH  27  28
ENDBRANCH  26  27
ENDBRANCH   3  26
TORSDOF 14
ENDMDL
MODEL 19
REMARK VINA RESULT:    -5.858     18.064     20.896
REMARK INTER + INTRA:         -16.429
REMARK INTER:                 -11.826
REMARK INTRA:                  -4.603
REMARK UNBOUND:                -5.777
REMARK  Name = cpd50.pdb
REMARK  16 active torsions:
REMARK  status: ('A' for Active; 'I' for Inactive)
REMARK    1  A    between atoms: C_1  and  C_2
REMARK    2  A    between atoms: C_6  and  N_7
REMARK    3  A    between atoms: N_7  and  C_8
REMARK    4  A    between atoms: C_13  and  C_14
REMARK    5  A    between atoms: N_16  and  C_17
REMARK    6  A    between atoms: C_17  and  C_18
REMARK    7  A    between atoms: N_20  and  C_21
REMARK    8  A    between atoms: C_21  and  C_22
REMARK    9  A    between atoms: C_22  and  C_23
REMARK   10  A    between atoms: C_23  and  C_24
REMARK   11  A    between atoms: C_24  and  C_25
REMARK   12  A    between atoms: C_25  and  C_26
REMARK   13  A    between atoms: C_26  and  C_27
REMARK   14  A    between atoms: C_27  and  N_28
REMARK   15  A    between atoms: N_28  and  C_29
REMARK   16  A    between atoms: C_44  and  C_45
REMARK                            x       y       z     vdW  Elec       q    Type
REMARK                         _______ _______ _______ _____ _____    ______ ____
ROOT
ATOM      1  C   UNL A   1      44.208 -18.190 -33.128  0.00  0.00    +0.230 C 
ATOM      2  O   UNL A   1      44.224 -17.815 -31.959  0.00  0.00    -0.274 OA
ATOM      3  N   UNL A   1      43.289 -19.095 -33.620  0.00  0.00    -0.314 N 
ATOM      4  H   UNL A   1      43.426 -19.457 -34.525  0.00  0.00    +0.000 HD
ENDROOT
BRANCH   1   5
ATOM      5  C   UNL A   1      45.295 -17.768 -34.129  0.00  0.00    +0.088 C 
BRANCH   5   8
ATOM      6  C   UNL A   1      46.885 -18.865 -35.746  0.00  0.00    +0.246 C 
ATOM      7  O   UNL A   1      47.813 -19.668 -35.738  0.00  0.00    -0.270 OA
ATOM      8  N   UNL A   1      45.934 -18.930 -34.756  0.00  0.00    -0.303 N 
ATOM      9  H   UNL A   1      45.660 -19.822 -34.445  0.00  0.00    +0.000 HD
BRANCH   6  15
ATOM     10  C   UNL A   1      46.071 -18.006 -37.985  0.00  0.00    +0.044 A 
ATOM     11  C   UNL A   1      46.039 -16.938 -38.899  0.00  0.00    -0.040 A 
ATOM     12  C   UNL A   1      46.751 -15.758 -38.665  0.00  0.00    -0.060 A 
ATOM     13  C   UNL A   1      47.506 -15.615 -37.504  0.00  0.00    -0.061 A 
ATOM     14  C   UNL A   1      47.531 -16.644 -36.566  0.00  0.00    -0.048 A 
ATOM     15  C   UNL A   1      46.795 -17.819 -36.789  0.00  0.00    +0.058 A 
BRANCH  10  16
ATOM     16  N   UNL A   1      45.335 -19.189 -38.246  0.00  0.00    -0.314 N 
ATOM     17  H   UNL A   1      44.495 -19.297 -37.744  0.00  0.00    +0.000 HD
BRANCH  16  23
ATOM     18  C   UNL A   1      44.403 -21.723 -42.459  0.00  0.00    -0.039 C 
ATOM     19  C   UNL A   1      45.167 -21.505 -41.181  0.00  0.00    -0.046 A 
ATOM     20  C   UNL A   1      46.159 -22.432 -40.826  0.00  0.00    -0.058 A 
ATOM     21  C   UNL A   1      46.881 -22.285 -39.647  0.00  0.00    -0.060 A 
ATOM     22  C   UNL A   1      46.624 -21.205 -38.807  0.00  0.00    -0.040 A 
ATOM     23  C   UNL A   1      45.663 -20.240 -39.146  0.00  0.00    +0.035 A 
ATOM     24  C   UNL A   1      44.928 -20.387 -40.346  0.00  0.00    -0.026 A 
ATOM     25  C   UNL A   1      43.864 -19.377 -40.704  0.00  0.00    -0.038 C 
ENDBRANCH  16  23
ENDBRANCH  10  16
ENDBRANCH   6  15
ENDBRANCH   5   8
ENDBRANCH   1   5
BRANCH   3  26
ATOM     26  C   UNL A   1      42.133 -19.536 -32.867  0.00  0.00    +0.012 C 
BRANCH  26  27
ATOM     27  C   UNL A   1      41.642 -20.878 -33.402  0.00  0.00    -0.037 C 
BRANCH  27  28
ATOM     28  C   UNL A   1      40.645 -21.551 -32.456  0.00  0.00    -0.052 C 
BRANCH  28  29
ATOM     29  C   UNL A   1      39.328 -21.833 -33.185  0.00  0.00    -0.053 C 
BRANCH  29  30
ATOM     30  C   UNL A   1      38.112 -21.158 -32.552  0.00  0.00    -0.052 C 
BRANCH  30  31
ATOM     31  C   UNL A   1      37.481 -20.082 -33.439  0.00  0.00    -0.037 C 
BRANCH  31  32
ATOM     32  C   UNL A   1      38.400 -18.864 -33.560  0.00  0.00    +0.009 C 
BRANCH  32  33
ATOM     33  N   UNL A   1      38.368 -18.366 -34.942  0.00  0.00    -0.343 N 
ATOM     34  H   UNL A   1      37.551 -18.085 -35.412  0.00  0.00    +0.000 HD
BRANCH  33  35
ATOM     35  C   UNL A   1      39.676 -18.344 -35.516  0.00  0.00    +0.041 A 
ATOM     36  C   UNL A   1      40.482 -17.207 -35.317  0.00  0.00    -0.005 A 
ATOM     37  C   UNL A   1      41.738 -17.188 -35.925  0.00  0.00    +0.047 A 
ATOM     38  N   UNL A   1      42.189 -18.186 -36.724  0.00  0.00    -0.251 NA
ATOM     39  C   UNL A   1      41.417 -19.259 -36.928  0.00  0.00    +0.074 A 
ATOM     40  C   UNL A   1      41.914 -20.259 -37.749  0.00  0.00    -0.017 A 
ATOM     41  C   UNL A   1      41.176 -21.408 -38.021  0.00  0.00    +0.043 A 
ATOM     42 CL   UNL A   1      41.828 -22.625 -39.047  0.00  0.00    -0.083 Cl
ATOM     43  C   UNL A   1      39.916 -21.576 -37.470  0.00  0.00    -0.043 A 
ATOM     44  C   UNL A   1      39.399 -20.580 -36.641  0.00  0.00    -0.049 A 
ATOM     45  C   UNL A   1      40.136 -19.402 -36.353  0.00  0.00    +0.022 A 
ATOM     46  C   UNL A   1      42.672 -16.015 -35.780  0.00  0.00    -0.010 C 
ATOM     47  C   UNL A   1      42.372 -15.154 -34.559  0.00  0.00    -0.047 C 
ATOM     48  C   UNL A   1      40.888 -14.824 -34.511  0.00  0.00    -0.049 C 
ATOM     49  C   UNL A   1      40.059 -16.101 -34.378  0.00  0.00    -0.024 C 
ENDBRANCH  33  35
ENDBRANCH  32  33
ENDBRANCH  31  32
ENDBRANCH  30  31
ENDBRANCH  29  30
ENDBRANCH  28  29
ENDBRANCH  27  28
ENDBRANCH  26  27
ENDBRANCH   3  26
TORSDOF 14
ENDMDL
MODEL 20
REMARK VINA RESULT:    -5.851     19.056     22.634
REMARK INTER + INTRA:         -16.416
REMARK INTER:                 -10.947
REMARK INTRA:                  -5.469
REMARK UNBOUND:                -5.777
REMARK  Name = cpd50.pdb
REMARK  16 active torsions:
REMARK  status: ('A' for Active; 'I' for Inactive)
REMARK    1  A    between atoms: C_1  and  C_2
REMARK    2  A    between atoms: C_6  and  N_7
REMARK    3  A    between atoms: N_7  and  C_8
REMARK    4  A    between atoms: C_13  and  C_14
REMARK    5  A    between atoms: N_16  and  C_17
REMARK    6  A    between atoms: C_17  and  C_18
REMARK    7  A    between atoms: N_20  and  C_21
REMARK    8  A    between atoms: C_21  and  C_22
REMARK    9  A    between atoms: C_22  and  C_23
REMARK   10  A    between atoms: C_23  and  C_24
REMARK   11  A    between atoms: C_24  and  C_25
REMARK   12  A    between atoms: C_25  and  C_26
REMARK   13  A    between atoms: C_26  and  C_27
REMARK   14  A    between atoms: C_27  and  N_28
REMARK   15  A    between atoms: N_28  and  C_29
REMARK   16  A    between atoms: C_44  and  C_45
REMARK                            x       y       z     vdW  Elec       q    Type
REMARK                         _______ _______ _______ _____ _____    ______ ____
ROOT
ATOM      1  C   UNL A   1      39.837 -14.911 -39.493  0.00  0.00    +0.230 C 
ATOM      2  O   UNL A   1      39.233 -13.845 -39.417  0.00  0.00    -0.274 OA
ATOM      3  N   UNL A   1      40.957 -15.092 -40.280  0.00  0.00    -0.314 N 
ATOM      4  H   UNL A   1      41.300 -16.005 -40.404  0.00  0.00    +0.000 HD
ENDROOT
BRANCH   1   5
ATOM      5  C   UNL A   1      39.325 -16.184 -38.801  0.00  0.00    +0.088 C 
BRANCH   5   8
ATOM      6  C   UNL A   1      40.798 -18.209 -38.534  0.00  0.00    +0.246 C 
ATOM      7  O   UNL A   1      40.758 -19.420 -38.727  0.00  0.00    -0.270 OA
ATOM      8  N   UNL A   1      40.009 -17.382 -39.296  0.00  0.00    -0.303 N 
ATOM      9  H   UNL A   1      39.894 -17.611 -40.247  0.00  0.00    +0.000 HD
BRANCH   6  15
ATOM     10  C   UNL A   1      41.307 -17.669 -36.112  0.00  0.00    +0.044 A 
ATOM     11  C   UNL A   1      42.212 -17.110 -35.192  0.00  0.00    -0.040 A 
ATOM     12  C   UNL A   1      43.389 -16.486 -35.616  0.00  0.00    -0.060 A 
ATOM     13  C   UNL A   1      43.694 -16.415 -36.972  0.00  0.00    -0.061 A 
ATOM     14  C   UNL A   1      42.831 -16.988 -37.904  0.00  0.00    -0.048 A 
ATOM     15  C   UNL A   1      41.662 -17.637 -37.477  0.00  0.00    +0.058 A 
BRANCH  10  16
ATOM     16  N   UNL A   1      40.123 -18.299 -35.653  0.00  0.00    -0.314 N 
ATOM     17  H   UNL A   1      39.288 -17.790 -35.769  0.00  0.00    +0.000 HD
BRANCH  16  23
ATOM     18  C   UNL A   1      37.514 -21.501 -32.829  0.00  0.00    -0.039 C 
ATOM     19  C   UNL A   1      38.736 -21.117 -33.619  0.00  0.00    -0.046 A 
ATOM     20  C   UNL A   1      39.816 -22.012 -33.661  0.00  0.00    -0.058 A 
ATOM     21  C   UNL A   1      40.974 -21.697 -34.363  0.00  0.00    -0.060 A 
ATOM     22  C   UNL A   1      41.067 -20.482 -35.037  0.00  0.00    -0.040 A 
ATOM     23  C   UNL A   1      39.995 -19.577 -35.044  0.00  0.00    +0.035 A 
ATOM     24  C   UNL A   1      38.814 -19.896 -34.332  0.00  0.00    -0.026 A 
ATOM     25  C   UNL A   1      37.668 -18.915 -34.299  0.00  0.00    -0.038 C 
ENDBRANCH  16  23
ENDBRANCH  10  16
ENDBRANCH   6  15
ENDBRANCH   5   8
ENDBRANCH   1   5
BRANCH   3  26
ATOM     26  C   UNL A   1      41.649 -13.999 -40.933  0.00  0.00    +0.012 C 
BRANCH  26  27
ATOM     27  C   UNL A   1      43.088 -14.402 -41.241  0.00  0.00    -0.037 C 
BRANCH  27  28
ATOM     28  C   UNL A   1      43.188 -15.830 -41.781  0.00  0.00    -0.052 C 
BRANCH  28  29
ATOM     29  C   UNL A   1      44.409 -16.538 -41.189  0.00  0.00    -0.053 C 
BRANCH  29  30
ATOM     30  C   UNL A   1      45.282 -15.641 -40.311  0.00  0.00    -0.052 C 
BRANCH  30  31
ATOM     31  C   UNL A   1      46.650 -16.247 -39.992  0.00  0.00    -0.037 C 
BRANCH  31  32
ATOM     32  C   UNL A   1      46.955 -17.428 -40.916  0.00  0.00    +0.009 C 
BRANCH  32  33
ATOM     33  N   UNL A   1      47.365 -18.585 -40.107  0.00  0.00    -0.343 N 
ATOM     34  H   UNL A   1      48.299 -18.818 -39.905  0.00  0.00    +0.000 HD
BRANCH  33  35
ATOM     35  C   UNL A   1      46.233 -19.327 -39.652  0.00  0.00    +0.041 A 
ATOM     36  C   UNL A   1      45.394 -19.933 -40.606  0.00  0.00    -0.005 A 
ATOM     37  C   UNL A   1      44.269 -20.615 -40.141  0.00  0.00    +0.047 A 
ATOM     38  N   UNL A   1      43.931 -20.679 -38.830  0.00  0.00    -0.251 NA
ATOM     39  C   UNL A   1      44.719 -20.089 -37.924  0.00  0.00    +0.074 A 
ATOM     40  C   UNL A   1      44.341 -20.179 -36.593  0.00  0.00    -0.017 A 
ATOM     41  C   UNL A   1      45.098 -19.590 -35.583  0.00  0.00    +0.043 A 
ATOM     42 CL   UNL A   1      44.594 -19.722 -33.944  0.00  0.00    -0.083 Cl
ATOM     43  C   UNL A   1      46.256 -18.894 -35.893  0.00  0.00    -0.043 A 
ATOM     44  C   UNL A   1      46.651 -18.793 -37.227  0.00  0.00    -0.049 A 
ATOM     45  C   UNL A   1      45.893 -19.387 -38.269  0.00  0.00    +0.022 A 
ATOM     46  C   UNL A   1      43.305 -21.290 -41.082  0.00  0.00    -0.010 C 
ATOM     47  C   UNL A   1      43.913 -21.605 -42.443  0.00  0.00    -0.047 C 
ATOM     48  C   UNL A   1      44.617 -20.373 -42.993  0.00  0.00    -0.049 C 
ATOM     49  C   UNL A   1      45.762 -19.955 -42.071  0.00  0.00    -0.024 C 
ENDBRANCH  33  35
ENDBRANCH  32  33
ENDBRANCH  31  32
ENDBRANCH  30  31
ENDBRANCH  29  30
ENDBRANCH  28  29
ENDBRANCH  27  28
ENDBRANCH  26  27
ENDBRANCH   3  26
TORSDOF 14
ENDMDL
