REMARK  Name = cpd50.pdb
REMARK  16 active torsions:
REMARK  status: ('A' for Active; 'I' for Inactive)
REMARK    1  A    between atoms: C_1  and  C_2
REMARK    2  A    between atoms: C_6  and  N_7
REMARK    3  A    between atoms: N_7  and  C_8
REMARK    4  A    between atoms: C_13  and  C_14
REMARK    5  A    between atoms: N_16  and  C_17
REMARK    6  A    between atoms: C_17  and  C_18
REMARK    7  A    between atoms: N_20  and  C_21
REMARK    8  A    between atoms: C_21  and  C_22
REMARK    9  A    between atoms: C_22  and  C_23
REMARK   10  A    between atoms: C_23  and  C_24
REMARK   11  A    between atoms: C_24  and  C_25
REMARK   12  A    between atoms: C_25  and  C_26
REMARK   13  A    between atoms: C_26  and  C_27
REMARK   14  A    between atoms: C_27  and  N_28
REMARK   15  A    between atoms: N_28  and  C_29
REMARK   16  A    between atoms: C_44  and  C_45
REMARK                            x       y       z     vdW  Elec       q    Type
REMARK                         _______ _______ _______ _____ _____    ______ ____
ROOT
ATOM      1  C   UNL A   1      -3.191  -3.579   1.244  0.00  0.00    +0.230 C 
ATOM      2  O   UNL A   1      -3.746  -3.500   2.337  0.00  0.00    -0.274 OA
ATOM      3  N   UNL A   1      -3.556  -4.490   0.274  0.00  0.00    -0.314 N 
ATOM      4  H   UNL A   1      -2.977  -4.592  -0.515  0.00  0.00    +0.000 HD
ENDROOT
BRANCH   1   5
ATOM      5  C   UNL A   1      -1.951  -2.737   0.903  0.00  0.00    +0.088 C 
BRANCH   5   8
ATOM      6  C   UNL A   1      -0.942  -3.328  -1.328  0.00  0.00    +0.246 C 
ATOM      7  O   UNL A   1      -1.302  -3.656  -2.454  0.00  0.00    -0.270 OA
ATOM      8  N   UNL A   1      -1.787  -2.578  -0.545  0.00  0.00    -0.303 N 
ATOM      9  H   UNL A   1      -2.322  -1.882  -0.990  0.00  0.00    +0.000 HD
BRANCH   6  15
ATOM     10  C   UNL A   1       1.266  -2.847  -0.184  0.00  0.00    +0.044 A 
ATOM     11  C   UNL A   1       2.482  -3.361   0.299  0.00  0.00    -0.040 A 
ATOM     12  C   UNL A   1       2.827  -4.704   0.120  0.00  0.00    -0.060 A 
ATOM     13  C   UNL A   1       1.957  -5.568  -0.539  0.00  0.00    -0.061 A 
ATOM     14  C   UNL A   1       0.731  -5.093  -1.000  0.00  0.00    -0.048 A 
ATOM     15  C   UNL A   1       0.374  -3.751  -0.798  0.00  0.00    +0.058 A 
BRANCH  10  16
ATOM     16  N   UNL A   1       0.941  -1.481   0.016  0.00  0.00    -0.314 N 
ATOM     17  H   UNL A   1       0.000  -1.287   0.232  0.00  0.00    +0.000 HD
BRANCH  16  23
ATOM     18  C   UNL A   1       1.980   3.266   1.208  0.00  0.00    -0.039 C 
ATOM     19  C   UNL A   1       2.283   1.980   0.487  0.00  0.00    -0.046 A 
ATOM     20  C   UNL A   1       3.399   1.934  -0.363  0.00  0.00    -0.058 A 
ATOM     21  C   UNL A   1       3.711   0.775  -1.065  0.00  0.00    -0.060 A 
ATOM     22  C   UNL A   1       2.913  -0.357  -0.924  0.00  0.00    -0.040 A 
ATOM     23  C   UNL A   1       1.809  -0.358  -0.058  0.00  0.00    +0.035 A 
ATOM     24  C   UNL A   1       1.490   0.820   0.659  0.00  0.00    -0.026 A 
ATOM     25  C   UNL A   1       0.282   0.845   1.564  0.00  0.00    -0.038 C 
ENDBRANCH  16  23
ENDBRANCH  10  16
ENDBRANCH   6  15
ENDBRANCH   5   8
ENDBRANCH   1   5
BRANCH   3  26
ATOM     26  C   UNL A   1      -4.752  -5.303   0.363  0.00  0.00    +0.012 C 
BRANCH  26  27
ATOM     27  C   UNL A   1      -5.852  -4.711  -0.513  0.00  0.00    -0.037 C 
BRANCH  27  28
ATOM     28  C   UNL A   1      -7.121  -5.566  -0.509  0.00  0.00    -0.052 C 
BRANCH  28  29
ATOM     29  C   UNL A   1      -8.152  -4.992  -1.484  0.00  0.00    -0.053 C 
BRANCH  29  30
ATOM     30  C   UNL A   1      -9.431  -5.822  -1.595  0.00  0.00    -0.052 C 
BRANCH  30  31
ATOM     31  C   UNL A   1     -10.271  -5.820  -0.316  0.00  0.00    -0.037 C 
BRANCH  31  32
ATOM     32  C   UNL A   1     -11.657  -6.417  -0.570  0.00  0.00    +0.009 C 
BRANCH  32  33
ATOM     33  N   UNL A   1     -12.427  -6.409   0.682  0.00  0.00    -0.343 N 
ATOM     34  H   UNL A   1     -12.059  -6.153   1.558  0.00  0.00    +0.000 HD
BRANCH  33  35
ATOM     35  C   UNL A   1     -13.777  -6.821   0.464  0.00  0.00    +0.041 A 
ATOM     36  C   UNL A   1     -14.097  -8.186   0.597  0.00  0.00    -0.005 A 
ATOM     37  C   UNL A   1     -15.412  -8.572   0.335  0.00  0.00    +0.047 A 
ATOM     38  N   UNL A   1     -16.369  -7.707  -0.079  0.00  0.00    -0.251 NA
ATOM     39  C   UNL A   1     -16.062  -6.413  -0.222  0.00  0.00    +0.074 A 
ATOM     40  C   UNL A   1     -17.069  -5.559  -0.645  0.00  0.00    -0.017 A 
ATOM     41  C   UNL A   1     -16.837  -4.198  -0.826  0.00  0.00    +0.043 A 
ATOM     42 CL   UNL A   1     -18.113  -3.172  -1.354  0.00  0.00    -0.083 Cl
ATOM     43  C   UNL A   1     -15.581  -3.665  -0.585  0.00  0.00    -0.043 A 
ATOM     44  C   UNL A   1     -14.555  -4.509  -0.159  0.00  0.00    -0.049 A 
ATOM     45  C   UNL A   1     -14.773  -5.898   0.031  0.00  0.00    +0.022 A 
ATOM     46  C   UNL A   1     -15.852 -10.009   0.441  0.00  0.00    -0.010 C 
ATOM     47  C   UNL A   1     -14.941 -10.855   1.321  0.00  0.00    -0.047 C 
ATOM     48  C   UNL A   1     -13.489 -10.639   0.920  0.00  0.00    -0.049 C 
ATOM     49  C   UNL A   1     -13.088  -9.179   1.125  0.00  0.00    -0.024 C 
ENDBRANCH  33  35
ENDBRANCH  32  33
ENDBRANCH  31  32
ENDBRANCH  30  31
ENDBRANCH  29  30
ENDBRANCH  28  29
ENDBRANCH  27  28
ENDBRANCH  26  27
ENDBRANCH   3  26
TORSDOF 14
