@<TRIPOS>MOLECULE
*****
 45 49 0 0 0
SMALL
GASTEIGER

@<TRIPOS>ATOM
      1 C           5.5512    0.9546    0.0000 C.2     1  UNL1       -0.0066
      2 C           4.6972    1.3897    0.0000 C.2     1  UNL1       -0.0128
      3 C           4.6471    2.3468    0.0000 C.3     1  UNL1        0.1947
      4 O           5.4509    2.8688    0.0000 O.3     1  UNL1       -0.2366
      5 S           5.4007    3.8259    0.0000 S.3     1  UNL1        0.0002
      6 O           6.3578    3.8761    0.0000 O.2     1  UNL1       -0.3452
      7 O           5.3506    4.7830    0.0000 O.2     1  UNL1       -0.3452
      8 O           4.4436    3.7758    0.0000 O.co2   1  UNL1       -0.2682
      9 C           3.8934    0.8677    0.0000 C.3     1  UNL1        0.0208
     10 C           3.6942   -0.0697    0.0000 C.3     1  UNL1        0.0042
     11 C           2.7832   -0.3663    0.0000 C.3     1  UNL1        0.0027
     12 C           2.0705    0.2754    0.0000 C.3     1  UNL1        0.0276
     13 C           1.8663   -0.6855    0.0000 C.3     1  UNL1        0.0025
     14 C           2.2698    1.2129    0.0000 C.3     1  UNL1        0.0061
     15 C           1.5571    1.8546    0.0000 C.3     1  UNL1        0.0005
     16 C           1.7565    2.7926    0.0000 C.3     1  UNL1        0.0000
     17 C           1.0438    3.4343    0.0000 C.3     1  UNL1        0.0000
     18 C           0.1317    3.1380    0.0000 C.3     1  UNL1        0.0000
     19 C          -0.5805    3.7795    0.0000 C.3     1  UNL1        0.0002
     20 C           0.3537    4.0834    0.0000 C.3     1  UNL1        0.0000
     21 C          -0.3815    4.7172    0.0000 C.3     1  UNL1        0.0026
     22 C          -1.0940    5.3583    0.0000 C.3     1  UNL1        0.0320
     23 C          -2.0055    5.0619    0.0000 C.3     1  UNL1        0.1431
     24 O          -2.7442    5.7267    0.0000 O.3     1  UNL1       -0.2438
     25 S          -2.5379    6.6988    0.0000 S.3     1  UNL1       -0.0002
     26 O          -1.5657    6.4925    0.0000 O.2     1  UNL1       -0.3452
     27 O          -2.3315    7.6710    0.0000 O.2     1  UNL1       -0.3452
     28 O          -3.5101    6.9052    0.0000 O.co2   1  UNL1       -0.2682
     29 C          -2.2045    4.1243    0.0000 C.3     1  UNL1        0.0273
     30 C          -3.1767    4.3306    0.0000 C.3     1  UNL1        0.0025
     31 C          -2.8693    3.3855    0.0000 C.3     1  UNL1        0.0025
     32 C          -1.4920    3.4831    0.0000 C.3     1  UNL1        0.0023
     33 C          -1.6914    2.5450    0.0000 C.3     1  UNL1        0.0001
     34 C          -0.9793    1.9035    0.0000 C.3     1  UNL1        0.0000
     35 C          -0.0677    2.1999    0.0000 C.3     1  UNL1        0.0001
     36 C          -0.4762    0.2782    0.0000 C.3     1  UNL1        0.0000
     37 C           0.6450    1.5582    0.0000 C.3     1  UNL1        0.0024
     38 C          -0.2893    1.2547    0.0000 C.3     1  UNL1        0.0001
     39 C           0.4457    0.6207    0.0000 C.3     1  UNL1        0.0320
     40 C           1.1584   -0.0210    0.0000 C.3     1  UNL1        0.1431
     41 O           0.9590   -0.9590    0.0000 O.3     1  UNL1       -0.2438
     42 S           0.0000   -0.9590    0.0000 S.3     1  UNL1       -0.0002
     43 O           0.0000   -1.9181    0.0000 O.2     1  UNL1       -0.3452
     44 O          -0.9590   -0.9590    0.0000 O.2     1  UNL1       -0.3452
     45 O           0.0000   -0.0000    0.0000 O.co2   1  UNL1       -0.2682
@<TRIPOS>UNITY_ATOM_ATTR
8 1
charge -1
28 1
charge -1
45 1
charge -1
@<TRIPOS>BOND
     1     1     2    2
     2     2     3    1
     3     3     4    1
     4     4     5    1
     5     5     6    2
     6     5     7    2
     7     5     8    1
     8     2     9    1
     9     9    10    1
    10    10    11    1
    11    11    12    1
    12    12    13    1
    13    12    14    1
    14     9    14    1
    15    14    15    1
    16    15    16    1
    17    16    17    1
    18    17    18    1
    19    18    19    1
    20    19    20    1
    21    19    21    1
    22    21    22    1
    23    22    23    1
    24    23    24    1
    25    24    25    1
    26    25    26    2
    27    25    27    2
    28    25    28    1
    29    23    29    1
    30    29    30    1
    31    29    31    1
    32    29    32    1
    33    19    32    1
    34    32    33    1
    35    33    34    1
    36    34    35    1
    37    18    35    1
    38    35    36    1
    39    35    37    1
    40    15    37    1
    41    37    38    1
    42    37    39    1
    43    39    40    1
    44    12    40    1
    45    40    41    1
    46    41    42    1
    47    42    43    2
    48    42    44    2
    49    42    45    1
