REMARK  Name = cpd281.pdb
REMARK  14 active torsions:
REMARK  status: ('A' for Active; 'I' for Inactive)
REMARK    1  A    between atoms: C_2  and  C_3
REMARK    2  A    between atoms: C_2  and  C_9
REMARK    3  A    between atoms: C_3  and  O_4
REMARK    4  A    between atoms: O_4  and  S_5
REMARK    5  A    between atoms: C_12  and  C_13
REMARK    6  A    between atoms: C_19  and  C_20
REMARK    7  A    between atoms: C_23  and  O_24
REMARK    8  A    between atoms: O_24  and  S_25
REMARK    9  A    between atoms: C_29  and  C_30
REMARK   10  A    between atoms: C_29  and  C_31
REMARK   11  A    between atoms: C_35  and  C_36
REMARK   12  A    between atoms: C_37  and  C_38
REMARK   13  A    between atoms: C_40  and  O_41
REMARK   14  A    between atoms: O_41  and  S_42
REMARK                            x       y       z     vdW  Elec       q    Type
REMARK                         _______ _______ _______ _____ _____    ______ ____
ROOT
ATOM      1  C   UNL     1       5.290   1.459  -0.194  0.00  0.00    -0.014 C 
ATOM      2  C   UNL     1       5.504   0.140   0.637  0.00  0.00    -0.046 C 
ATOM      3  C   UNL     1       4.095  -0.531   0.800  0.00  0.00    -0.044 C 
ATOM      4  C   UNL     1       3.241   0.191  -0.255  0.00  0.00    +0.000 C 
ATOM      5  C   UNL     1       3.612  -0.505  -1.601  0.00  0.00    -0.057 C 
ATOM      6  C   UNL     1       3.785   1.655   0.003  0.00  0.00    -0.023 C 
ATOM      7  C   UNL     1       2.875   2.843  -0.432  0.00  0.00    -0.031 C 
ATOM      8  C   UNL     1       3.526   4.227  -0.649  0.00  0.00    -0.049 C 
ATOM      9  C   UNL     1       2.509   5.343  -1.035  0.00  0.00    -0.049 C 
ATOM     10  C   UNL     1       1.084   4.980  -0.586  0.00  0.00    -0.029 C 
ATOM     11  C   UNL     1       0.025   6.159  -0.406  0.00  0.00    -0.025 C 
ATOM     12  C   UNL     1       0.452   6.897   0.896  0.00  0.00    -0.059 C 
ATOM     13  C   UNL     1       0.021   7.204  -1.545  0.00  0.00    -0.045 C 
ATOM     14  C   UNL     1      -1.366   7.802  -1.865  0.00  0.00    -0.023 C 
ATOM     15  C   UNL     1      -2.364   7.918  -0.692  0.00  0.00    +0.095 C 
ATOM     16  C   UNL     1      -2.560   6.569   0.096  0.00  0.00    -0.003 C 
ATOM     17  C   UNL     1      -2.725   6.762   1.617  0.00  0.00    -0.057 C 
ATOM     18  C   UNL     1      -3.916   5.963  -0.389  0.00  0.00    -0.057 C 
ATOM     19  C   UNL     1      -1.422   5.561  -0.289  0.00  0.00    -0.028 C 
ATOM     20  C   UNL     1      -1.388   4.218   0.440  0.00  0.00    -0.049 C 
ATOM     21  C   UNL     1      -0.595   3.155  -0.359  0.00  0.00    -0.047 C 
ATOM     22  C   UNL     1       0.561   3.676  -1.306  0.00  0.00    -0.023 C 
ATOM     23  C   UNL     1      -0.025   3.937  -2.722  0.00  0.00    -0.059 C 
ATOM     24  C   UNL     1       1.780   2.563  -1.495  0.00  0.00    -0.021 C 
ATOM     25  C   UNL     1       2.467   2.665  -2.896  0.00  0.00    -0.059 C 
ATOM     26  C   UNL     1       1.214   1.119  -1.375  0.00  0.00    -0.018 C 
ATOM     27  C   UNL     1       1.710   0.275  -0.119  0.00  0.00    +0.096 C 
ENDROOT
BRANCH   1  29
ATOM     28  C   UNL     1       7.094   3.037  -0.823  0.00  0.00    -0.097 C 
ATOM     29  C   UNL     1       6.265   2.568   0.132  0.00  0.00    -0.046 C 
BRANCH  29  30
ATOM     30  C   UNL     1       6.330   3.149   1.531  0.00  0.00    +0.100 C 
BRANCH  30  31
ATOM     31  O   UNL     1       7.671   3.110   1.987  0.00  0.00    -0.209 OA
BRANCH  31  32
ATOM     32  S   UNL     1       8.270   4.450   2.691  0.00  0.00    +0.239 S 
ATOM     33  O   UNL     1       9.577   4.023   3.185  0.00  0.00    -0.116 OA
ATOM     34  O   UNL     1       8.331   5.424   1.605  0.00  0.00    -0.116 OA
ATOM     35  O   UNL     1       7.303   4.763   3.739  0.00  0.00    -0.022 OA
ENDBRANCH  31  32
ENDBRANCH  30  31
ENDBRANCH  29  30
ENDBRANCH   1  29
BRANCH  15  36
ATOM     36  O   UNL     1      -1.962   8.983   0.157  0.00  0.00    -0.210 OA
BRANCH  36  37
ATOM     37  S   UNL     1      -2.894  10.325   0.208  0.00  0.00    +0.239 S 
ATOM     38  O   UNL     1      -2.870  10.824  -1.166  0.00  0.00    -0.116 OA
ATOM     39  O   UNL     1      -2.218  11.184   1.174  0.00  0.00    -0.116 OA
ATOM     40  O   UNL     1      -4.201   9.838   0.644  0.00  0.00    -0.022 OA
ENDBRANCH  36  37
ENDBRANCH  15  36
BRANCH  27  41
ATOM     41  O   UNL     1       0.959  -0.959   0.000  0.00  0.00    -0.210 OA
BRANCH  41  42
ATOM     42  S   UNL     1       0.000  -0.959   0.000  0.00  0.00    +0.239 S 
ATOM     43  O   UNL     1       0.154  -1.844  -1.185  0.00  0.00    -0.116 OA
ATOM     44  O   UNL     1      -0.959  -0.959   0.000  0.00  0.00    -0.116 OA
ATOM     45  O   UNL     1       0.155  -1.541   1.358  0.00  0.00    -0.022 OA
ENDBRANCH  41  42
ENDBRANCH  27  41
TORSDOF 8
