MODEL 1
REMARK VINA RESULT:    -9.751      0.000      0.000
REMARK INTER + INTRA:         -14.921
REMARK INTER:                 -14.311
REMARK INTRA:                  -0.610
REMARK UNBOUND:                -0.610
REMARK  Name = cpd281.pdb
REMARK  14 active torsions:
REMARK  status: ('A' for Active; 'I' for Inactive)
REMARK    1  A    between atoms: C_2  and  C_3
REMARK    2  A    between atoms: C_2  and  C_9
REMARK    3  A    between atoms: C_3  and  O_4
REMARK    4  A    between atoms: O_4  and  S_5
REMARK    5  A    between atoms: C_12  and  C_13
REMARK    6  A    between atoms: C_19  and  C_20
REMARK    7  A    between atoms: C_23  and  O_24
REMARK    8  A    between atoms: O_24  and  S_25
REMARK    9  A    between atoms: C_29  and  C_30
REMARK   10  A    between atoms: C_29  and  C_31
REMARK   11  A    between atoms: C_35  and  C_36
REMARK   12  A    between atoms: C_37  and  C_38
REMARK   13  A    between atoms: C_40  and  O_41
REMARK   14  A    between atoms: O_41  and  S_42
REMARK                            x       y       z     vdW  Elec       q    Type
REMARK                         _______ _______ _______ _____ _____    ______ ____
ROOT
ATOM      1  C   UNL     1      37.973 -37.273 -30.131  0.00  0.00    -0.014 C 
ATOM      2  C   UNL     1      38.825 -37.773 -28.906  0.00  0.00    -0.046 C 
ATOM      3  C   UNL     1      37.821 -38.049 -27.732  0.00  0.00    -0.044 C 
ATOM      4  C   UNL     1      36.457 -38.087 -28.442  0.00  0.00    +0.000 C 
ATOM      5  C   UNL     1      36.386 -39.513 -29.073  0.00  0.00    -0.057 C 
ATOM      6  C   UNL     1      36.690 -36.855 -29.408  0.00  0.00    -0.023 C 
ATOM      7  C   UNL     1      35.426 -36.137 -29.969  0.00  0.00    -0.031 C 
ATOM      8  C   UNL     1      35.573 -35.278 -31.244  0.00  0.00    -0.049 C 
ATOM      9  C   UNL     1      34.253 -34.574 -31.680  0.00  0.00    -0.049 C 
ATOM     10  C   UNL     1      33.280 -34.430 -30.498  0.00  0.00    -0.029 C 
ATOM     11  C   UNL     1      32.145 -33.313 -30.584  0.00  0.00    -0.025 C 
ATOM     12  C   UNL     1      32.887 -31.959 -30.385  0.00  0.00    -0.059 C 
ATOM     13  C   UNL     1      31.414 -33.239 -31.944  0.00  0.00    -0.045 C 
ATOM     14  C   UNL     1      29.921 -32.853 -31.852  0.00  0.00    -0.023 C 
ATOM     15  C   UNL     1      29.511 -31.923 -30.690  0.00  0.00    +0.095 C 
ATOM     16  C   UNL     1      29.993 -32.434 -29.281  0.00  0.00    -0.003 C 
ATOM     17  C   UNL     1      30.439 -31.302 -28.334  0.00  0.00    -0.057 C 
ATOM     18  C   UNL     1      28.748 -33.078 -28.591  0.00  0.00    -0.057 C 
ATOM     19  C   UNL     1      31.070 -33.558 -29.466  0.00  0.00    -0.028 C 
ATOM     20  C   UNL     1      31.728 -34.125 -28.208  0.00  0.00    -0.049 C 
ATOM     21  C   UNL     1      32.343 -35.522 -28.465  0.00  0.00    -0.047 C 
ATOM     22  C   UNL     1      32.834 -35.837 -29.937  0.00  0.00    -0.023 C 
ATOM     23  C   UNL     1      31.665 -36.483 -30.732  0.00  0.00    -0.059 C 
ATOM     24  C   UNL     1      34.089 -36.924 -29.971  0.00  0.00    -0.021 C 
ATOM     25  C   UNL     1      34.080 -37.804 -31.264  0.00  0.00    -0.059 C 
ATOM     26  C   UNL     1      33.990 -37.899 -28.762  0.00  0.00    -0.018 C 
ATOM     27  C   UNL     1      35.153 -37.791 -27.680  0.00  0.00    +0.096 C 
ENDROOT
BRANCH   1  29
ATOM     28  C   UNL     1      38.119 -35.911 -32.195  0.00  0.00    -0.097 C 
ATOM     29  C   UNL     1      38.697 -36.310 -31.044  0.00  0.00    -0.046 C 
BRANCH  29  30
ATOM     30  C   UNL     1      40.078 -35.798 -30.683  0.00  0.00    +0.100 C 
BRANCH  30  31
ATOM     31  O   UNL     1      40.986 -36.149 -31.713  0.00  0.00    -0.209 OA
BRANCH  31  32
ATOM     32  S   UNL     1      42.363 -36.904 -31.283  0.00  0.00    +0.239 S 
ATOM     33  O   UNL     1      42.067 -37.423 -29.950  0.00  0.00    -0.116 OA
ATOM     34  O   UNL     1      42.534 -37.936 -32.302  0.00  0.00    -0.116 OA
ATOM     35  O   UNL     1      43.370 -35.847 -31.309  0.00  0.00    -0.022 OA
ENDBRANCH  31  32
ENDBRANCH  30  31
ENDBRANCH  29  30
ENDBRANCH   1  29
BRANCH  15  36
ATOM     36  O   UNL     1      29.963 -30.605 -30.967  0.00  0.00    -0.210 OA
BRANCH  36  37
ATOM     37  S   UNL     1      28.873 -29.511 -31.503  0.00  0.00    +0.239 S 
ATOM     38  O   UNL     1      29.273 -28.265 -30.851  0.00  0.00    -0.116 OA
ATOM     39  O   UNL     1      27.592 -30.044 -31.053  0.00  0.00    -0.116 OA
ATOM     40  O   UNL     1      29.050 -29.509 -32.954  0.00  0.00    -0.022 OA
ENDBRANCH  36  37
ENDBRANCH  15  36
BRANCH  27  41
ATOM     41  O   UNL     1      34.842 -38.588 -26.510  0.00  0.00    -0.210 OA
BRANCH  41  42
ATOM     42  S   UNL     1      33.984 -38.533 -26.085  0.00  0.00    +0.239 S 
ATOM     43  O   UNL     1      34.277 -39.927 -25.658  0.00  0.00    -0.116 OA
ATOM     44  O   UNL     1      33.126 -38.477 -25.660  0.00  0.00    -0.116 OA
ATOM     45  O   UNL     1      34.600 -37.406 -25.338  0.00  0.00    -0.022 OA
ENDBRANCH  41  42
ENDBRANCH  27  41
TORSDOF 8
ENDMDL
MODEL 2
REMARK VINA RESULT:    -8.352     16.551     20.687
REMARK INTER + INTRA:         -12.867
REMARK INTER:                 -11.122
REMARK INTRA:                  -1.745
REMARK UNBOUND:                -0.610
REMARK  Name = cpd281.pdb
REMARK  14 active torsions:
REMARK  status: ('A' for Active; 'I' for Inactive)
REMARK    1  A    between atoms: C_2  and  C_3
REMARK    2  A    between atoms: C_2  and  C_9
REMARK    3  A    between atoms: C_3  and  O_4
REMARK    4  A    between atoms: O_4  and  S_5
REMARK    5  A    between atoms: C_12  and  C_13
REMARK    6  A    between atoms: C_19  and  C_20
REMARK    7  A    between atoms: C_23  and  O_24
REMARK    8  A    between atoms: O_24  and  S_25
REMARK    9  A    between atoms: C_29  and  C_30
REMARK   10  A    between atoms: C_29  and  C_31
REMARK   11  A    between atoms: C_35  and  C_36
REMARK   12  A    between atoms: C_37  and  C_38
REMARK   13  A    between atoms: C_40  and  O_41
REMARK   14  A    between atoms: O_41  and  S_42
REMARK                            x       y       z     vdW  Elec       q    Type
REMARK                         _______ _______ _______ _____ _____    ______ ____
ROOT
ATOM      1  C   UNL     1      38.322 -19.041 -33.477  0.00  0.00    -0.014 C 
ATOM      2  C   UNL     1      38.128 -17.783 -32.552  0.00  0.00    -0.046 C 
ATOM      3  C   UNL     1      38.404 -16.518 -33.437  0.00  0.00    -0.044 C 
ATOM      4  C   UNL     1      38.340 -17.074 -34.869  0.00  0.00    +0.000 C 
ATOM      5  C   UNL     1      36.815 -17.176 -35.181  0.00  0.00    -0.057 C 
ATOM      6  C   UNL     1      39.140 -18.414 -34.608  0.00  0.00    -0.023 C 
ATOM      7  C   UNL     1      39.817 -19.094 -35.837  0.00  0.00    -0.031 C 
ATOM      8  C   UNL     1      40.180 -20.593 -35.741  0.00  0.00    -0.049 C 
ATOM      9  C   UNL     1      40.892 -21.146 -37.011  0.00  0.00    -0.049 C 
ATOM     10  C   UNL     1      41.557 -20.017 -37.816  0.00  0.00    -0.029 C 
ATOM     11  C   UNL     1      42.741 -20.397 -38.815  0.00  0.00    -0.025 C 
ATOM     12  C   UNL     1      43.959 -20.722 -37.901  0.00  0.00    -0.059 C 
ATOM     13  C   UNL     1      42.476 -21.646 -39.686  0.00  0.00    -0.045 C 
ATOM     14  C   UNL     1      43.089 -21.584 -41.102  0.00  0.00    -0.023 C 
ATOM     15  C   UNL     1      44.398 -20.781 -41.262  0.00  0.00    +0.095 C 
ATOM     16  C   UNL     1      44.309 -19.320 -40.682  0.00  0.00    -0.003 C 
ATOM     17  C   UNL     1      45.608 -18.848 -39.998  0.00  0.00    -0.057 C 
ATOM     18  C   UNL     1      44.119 -18.366 -41.904  0.00  0.00    -0.057 C 
ATOM     19  C   UNL     1      43.038 -19.189 -39.772  0.00  0.00    -0.028 C 
ATOM     20  C   UNL     1      42.822 -17.863 -39.043  0.00  0.00    -0.049 C 
ATOM     21  C   UNL     1      41.342 -17.674 -38.630  0.00  0.00    -0.047 C 
ATOM     22  C   UNL     1      40.494 -18.982 -38.355  0.00  0.00    -0.023 C 
ATOM     23  C   UNL     1      39.806 -19.425 -39.676  0.00  0.00    -0.059 C 
ATOM     24  C   UNL     1      39.281 -18.734 -37.248  0.00  0.00    -0.021 C 
ATOM     25  C   UNL     1      38.039 -19.647 -37.511  0.00  0.00    -0.059 C 
ATOM     26  C   UNL     1      38.781 -17.263 -37.318  0.00  0.00    -0.018 C 
ATOM     27  C   UNL     1      39.060 -16.366 -36.031  0.00  0.00    +0.096 C 
ENDROOT
BRANCH   1  29
ATOM     28  C   UNL     1      40.080 -20.323 -32.290  0.00  0.00    -0.097 C 
ATOM     29  C   UNL     1      38.815 -20.276 -32.757  0.00  0.00    -0.046 C 
BRANCH  29  30
ATOM     30  C   UNL     1      37.903 -21.473 -32.568  0.00  0.00    +0.100 C 
BRANCH  30  31
ATOM     31  O   UNL     1      37.838 -22.202 -33.782  0.00  0.00    -0.209 OA
BRANCH  31  32
ATOM     32  S   UNL     1      38.418 -23.723 -33.782  0.00  0.00    +0.239 S 
ATOM     33  O   UNL     1      39.446 -23.699 -32.744  0.00  0.00    -0.116 OA
ATOM     34  O   UNL     1      37.256 -24.545 -33.452  0.00  0.00    -0.116 OA
ATOM     35  O   UNL     1      38.932 -23.907 -35.136  0.00  0.00    -0.022 OA
ENDBRANCH  31  32
ENDBRANCH  30  31
ENDBRANCH  29  30
ENDBRANCH   1  29
BRANCH  15  36
ATOM     36  O   UNL     1      45.469 -21.521 -40.695  0.00  0.00    -0.210 OA
BRANCH  36  37
ATOM     37  S   UNL     1      46.640 -22.075 -41.692  0.00  0.00    +0.239 S 
ATOM     38  O   UNL     1      45.917 -22.890 -42.667  0.00  0.00    -0.116 OA
ATOM     39  O   UNL     1      47.523 -22.830 -40.810  0.00  0.00    -0.116 OA
ATOM     40  O   UNL     1      47.237 -20.864 -42.252  0.00  0.00    -0.022 OA
ENDBRANCH  36  37
ENDBRANCH  15  36
BRANCH  27  41
ATOM     41  O   UNL     1      38.745 -14.976 -36.295  0.00  0.00    -0.210 OA
BRANCH  41  42
ATOM     42  S   UNL     1      39.276 -14.452 -36.898  0.00  0.00    +0.239 S 
ATOM     43  O   UNL     1      37.998 -13.736 -37.155  0.00  0.00    -0.116 OA
ATOM     44  O   UNL     1      39.806 -13.928 -37.501  0.00  0.00    -0.116 OA
ATOM     45  O   UNL     1      40.055 -14.120 -35.677  0.00  0.00    -0.022 OA
ENDBRANCH  41  42
ENDBRANCH  27  41
TORSDOF 8
ENDMDL
MODEL 3
REMARK VINA RESULT:    -8.214      1.891      2.827
REMARK INTER + INTRA:         -12.666
REMARK INTER:                 -11.941
REMARK INTRA:                  -0.725
REMARK UNBOUND:                -0.610
REMARK  Name = cpd281.pdb
REMARK  14 active torsions:
REMARK  status: ('A' for Active; 'I' for Inactive)
REMARK    1  A    between atoms: C_2  and  C_3
REMARK    2  A    between atoms: C_2  and  C_9
REMARK    3  A    between atoms: C_3  and  O_4
REMARK    4  A    between atoms: O_4  and  S_5
REMARK    5  A    between atoms: C_12  and  C_13
REMARK    6  A    between atoms: C_19  and  C_20
REMARK    7  A    between atoms: C_23  and  O_24
REMARK    8  A    between atoms: O_24  and  S_25
REMARK    9  A    between atoms: C_29  and  C_30
REMARK   10  A    between atoms: C_29  and  C_31
REMARK   11  A    between atoms: C_35  and  C_36
REMARK   12  A    between atoms: C_37  and  C_38
REMARK   13  A    between atoms: C_40  and  O_41
REMARK   14  A    between atoms: O_41  and  S_42
REMARK                            x       y       z     vdW  Elec       q    Type
REMARK                         _______ _______ _______ _____ _____    ______ ____
ROOT
ATOM      1  C   UNL     1      35.738 -35.952 -30.098  0.00  0.00    -0.014 C 
ATOM      2  C   UNL     1      36.512 -36.516 -28.849  0.00  0.00    -0.046 C 
ATOM      3  C   UNL     1      35.455 -36.711 -27.706  0.00  0.00    -0.044 C 
ATOM      4  C   UNL     1      34.114 -36.644 -28.456  0.00  0.00    +0.000 C 
ATOM      5  C   UNL     1      33.950 -38.060 -29.091  0.00  0.00    -0.057 C 
ATOM      6  C   UNL     1      34.471 -35.434 -29.413  0.00  0.00    -0.023 C 
ATOM      7  C   UNL     1      33.283 -34.620 -30.009  0.00  0.00    -0.031 C 
ATOM      8  C   UNL     1      33.534 -33.777 -31.279  0.00  0.00    -0.049 C 
ATOM      9  C   UNL     1      32.286 -32.972 -31.752  0.00  0.00    -0.049 C 
ATOM     10  C   UNL     1      31.293 -32.752 -30.599  0.00  0.00    -0.029 C 
ATOM     11  C   UNL     1      30.252 -31.550 -30.718  0.00  0.00    -0.025 C 
ATOM     12  C   UNL     1      31.091 -30.258 -30.495  0.00  0.00    -0.059 C 
ATOM     13  C   UNL     1      29.569 -31.420 -32.098  0.00  0.00    -0.045 C 
ATOM     14  C   UNL     1      28.109 -30.919 -32.049  0.00  0.00    -0.023 C 
ATOM     15  C   UNL     1      27.738 -29.958 -30.899  0.00  0.00    +0.095 C 
ATOM     16  C   UNL     1      28.138 -30.504 -29.477  0.00  0.00    -0.003 C 
ATOM     17  C   UNL     1      28.643 -29.410 -28.516  0.00  0.00    -0.057 C 
ATOM     18  C   UNL     1      26.826 -31.049 -28.824  0.00  0.00    -0.057 C 
ATOM     19  C   UNL     1      29.129 -31.710 -29.632  0.00  0.00    -0.028 C 
ATOM     20  C   UNL     1      29.703 -32.324 -28.356  0.00  0.00    -0.049 C 
ATOM     21  C   UNL     1      30.215 -33.766 -28.597  0.00  0.00    -0.047 C 
ATOM     22  C   UNL     1      30.722 -34.119 -30.053  0.00  0.00    -0.023 C 
ATOM     23  C   UNL     1      29.530 -34.673 -30.883  0.00  0.00    -0.059 C 
ATOM     24  C   UNL     1      31.890 -35.301 -30.052  0.00  0.00    -0.021 C 
ATOM     25  C   UNL     1      31.850 -36.178 -31.346  0.00  0.00    -0.059 C 
ATOM     26  C   UNL     1      31.680 -36.264 -28.848  0.00  0.00    -0.018 C 
ATOM     27  C   UNL     1      32.815 -36.246 -27.732  0.00  0.00    +0.096 C 
ENDROOT
BRANCH   1  29
ATOM     28  C   UNL     1      36.394 -33.712 -30.929  0.00  0.00    -0.097 C 
ATOM     29  C   UNL     1      36.561 -35.049 -30.988  0.00  0.00    -0.046 C 
BRANCH  29  30
ATOM     30  C   UNL     1      37.565 -35.635 -31.961  0.00  0.00    +0.100 C 
BRANCH  30  31
ATOM     31  O   UNL     1      38.828 -35.726 -31.325  0.00  0.00    -0.209 OA
BRANCH  31  32
ATOM     32  S   UNL     1      40.078 -34.938 -32.009  0.00  0.00    +0.239 S 
ATOM     33  O   UNL     1      39.574 -33.577 -32.179  0.00  0.00    -0.116 OA
ATOM     34  O   UNL     1      41.153 -35.059 -31.028  0.00  0.00    -0.116 OA
ATOM     35  O   UNL     1      40.308 -35.656 -33.260  0.00  0.00    -0.022 OA
ENDBRANCH  31  32
ENDBRANCH  30  31
ENDBRANCH  29  30
ENDBRANCH   1  29
BRANCH  15  36
ATOM     36  O   UNL     1      28.300 -28.681 -31.161  0.00  0.00    -0.210 OA
BRANCH  36  37
ATOM     37  S   UNL     1      27.282 -27.426 -31.414  0.00  0.00    +0.239 S 
ATOM     38  O   UNL     1      27.771 -26.387 -30.509  0.00  0.00    -0.116 OA
ATOM     39  O   UNL     1      25.971 -27.963 -31.065  0.00  0.00    -0.116 OA
ATOM     40  O   UNL     1      27.447 -27.110 -32.831  0.00  0.00    -0.022 OA
ENDBRANCH  36  37
ENDBRANCH  15  36
BRANCH  27  41
ATOM     41  O   UNL     1      32.408 -37.015 -26.573  0.00  0.00    -0.210 OA
BRANCH  41  42
ATOM     42  S   UNL     1      31.713 -36.705 -25.990  0.00  0.00    +0.239 S 
ATOM     43  O   UNL     1      31.484 -38.153 -25.745  0.00  0.00    -0.116 OA
ATOM     44  O   UNL     1      31.018 -36.394 -25.406  0.00  0.00    -0.116 OA
ATOM     45  O   UNL     1      32.827 -36.023 -25.281  0.00  0.00    -0.022 OA
ENDBRANCH  41  42
ENDBRANCH  27  41
TORSDOF 8
ENDMDL
MODEL 4
REMARK VINA RESULT:    -8.078     18.232     21.112
REMARK INTER + INTRA:         -12.465
REMARK INTER:                 -11.284
REMARK INTRA:                  -1.181
REMARK UNBOUND:                -0.610
REMARK  Name = cpd281.pdb
REMARK  14 active torsions:
REMARK  status: ('A' for Active; 'I' for Inactive)
REMARK    1  A    between atoms: C_2  and  C_3
REMARK    2  A    between atoms: C_2  and  C_9
REMARK    3  A    between atoms: C_3  and  O_4
REMARK    4  A    between atoms: O_4  and  S_5
REMARK    5  A    between atoms: C_12  and  C_13
REMARK    6  A    between atoms: C_19  and  C_20
REMARK    7  A    between atoms: C_23  and  O_24
REMARK    8  A    between atoms: O_24  and  S_25
REMARK    9  A    between atoms: C_29  and  C_30
REMARK   10  A    between atoms: C_29  and  C_31
REMARK   11  A    between atoms: C_35  and  C_36
REMARK   12  A    between atoms: C_37  and  C_38
REMARK   13  A    between atoms: C_40  and  O_41
REMARK   14  A    between atoms: O_41  and  S_42
REMARK                            x       y       z     vdW  Elec       q    Type
REMARK                         _______ _______ _______ _____ _____    ______ ____
ROOT
ATOM      1  C   UNL     1      46.360 -17.433 -39.878  0.00  0.00    -0.014 C 
ATOM      2  C   UNL     1      46.449 -16.028 -40.581  0.00  0.00    -0.046 C 
ATOM      3  C   UNL     1      45.889 -14.972 -39.564  0.00  0.00    -0.044 C 
ATOM      4  C   UNL     1      45.893 -15.737 -38.230  0.00  0.00    +0.000 C 
ATOM      5  C   UNL     1      47.375 -15.676 -37.748  0.00  0.00    -0.057 C 
ATOM      6  C   UNL     1      45.343 -17.116 -38.779  0.00  0.00    -0.023 C 
ATOM      7  C   UNL     1      44.659 -18.072 -37.756  0.00  0.00    -0.031 C 
ATOM      8  C   UNL     1      44.547 -19.571 -38.112  0.00  0.00    -0.049 C 
ATOM      9  C   UNL     1      43.803 -20.416 -37.033  0.00  0.00    -0.049 C 
ATOM     10  C   UNL     1      42.891 -19.534 -36.165  0.00  0.00    -0.029 C 
ATOM     11  C   UNL     1      41.685 -20.231 -35.387  0.00  0.00    -0.025 C 
ATOM     12  C   UNL     1      40.633 -20.570 -36.483  0.00  0.00    -0.059 C 
ATOM     13  C   UNL     1      42.052 -21.555 -34.678  0.00  0.00    -0.045 C 
ATOM     14  C   UNL     1      41.295 -21.807 -33.356  0.00  0.00    -0.023 C 
ATOM     15  C   UNL     1      39.867 -21.230 -33.247  0.00  0.00    +0.095 C 
ATOM     16  C   UNL     1      39.786 -19.697 -33.595  0.00  0.00    -0.003 C 
ATOM     17  C   UNL     1      38.506 -19.306 -34.361  0.00  0.00    -0.057 C 
ATOM     18  C   UNL     1      39.697 -18.935 -32.234  0.00  0.00    -0.057 C 
ATOM     19  C   UNL     1      41.107 -19.246 -34.310  0.00  0.00    -0.028 C 
ATOM     20  C   UNL     1      41.186 -17.803 -34.808  0.00  0.00    -0.049 C 
ATOM     21  C   UNL     1      42.653 -17.346 -35.001  0.00  0.00    -0.047 C 
ATOM     22  C   UNL     1      43.718 -18.462 -35.353  0.00  0.00    -0.023 C 
ATOM     23  C   UNL     1      44.328 -19.012 -34.033  0.00  0.00    -0.059 C 
ATOM     24  C   UNL     1      44.985 -17.873 -36.252  0.00  0.00    -0.021 C 
ATOM     25  C   UNL     1      46.320 -18.636 -35.969  0.00  0.00    -0.059 C 
ATOM     26  C   UNL     1      45.239 -16.377 -35.909  0.00  0.00    -0.018 C 
ATOM     27  C   UNL     1      44.956 -15.333 -37.078  0.00  0.00    +0.096 C 
ENDROOT
BRANCH   1  29
ATOM     28  C   UNL     1      45.091 -18.583 -41.669  0.00  0.00    -0.097 C 
ATOM     29  C   UNL     1      46.143 -18.592 -40.824  0.00  0.00    -0.046 C 
BRANCH  29  30
ATOM     30  C   UNL     1      47.091 -19.776 -40.822  0.00  0.00    +0.100 C 
BRANCH  30  31
ATOM     31  O   UNL     1      46.691 -20.692 -41.826  0.00  0.00    -0.209 OA
BRANCH  31  32
ATOM     32  S   UNL     1      46.316 -22.206 -41.363  0.00  0.00    +0.239 S 
ATOM     33  O   UNL     1      47.585 -22.739 -40.873  0.00  0.00    -0.116 OA
ATOM     34  O   UNL     1      45.306 -22.020 -40.325  0.00  0.00    -0.116 OA
ATOM     35  O   UNL     1      45.828 -22.841 -42.584  0.00  0.00    -0.022 OA
ENDBRANCH  31  32
ENDBRANCH  30  31
ENDBRANCH  29  30
ENDBRANCH   1  29
BRANCH  15  36
ATOM     36  O   UNL     1      38.988 -22.010 -34.045  0.00  0.00    -0.210 OA
BRANCH  36  37
ATOM     37  S   UNL     1      38.478 -23.447 -33.454  0.00  0.00    +0.239 S 
ATOM     38  O   UNL     1      38.379 -24.299 -34.638  0.00  0.00    -0.116 OA
ATOM     39  O   UNL     1      37.199 -23.133 -32.827  0.00  0.00    -0.116 OA
ATOM     40  O   UNL     1      39.528 -23.843 -32.518  0.00  0.00    -0.022 OA
ENDBRANCH  36  37
ENDBRANCH  15  36
BRANCH  27  41
ATOM     41  O   UNL     1      45.021 -13.974 -36.579  0.00  0.00    -0.210 OA
BRANCH  41  42
ATOM     42  S   UNL     1      44.370 -13.640 -35.959  0.00  0.00    +0.239 S 
ATOM     43  O   UNL     1      45.481 -12.762 -35.504  0.00  0.00    -0.116 OA
ATOM     44  O   UNL     1      43.719 -13.307 -35.338  0.00  0.00    -0.116 OA
ATOM     45  O   UNL     1      43.617 -13.272 -37.186  0.00  0.00    -0.022 OA
ENDBRANCH  41  42
ENDBRANCH  27  41
TORSDOF 8
ENDMDL
MODEL 5
REMARK VINA RESULT:    -8.055      2.568      3.330
REMARK INTER + INTRA:         -12.432
REMARK INTER:                 -10.820
REMARK INTRA:                  -1.612
REMARK UNBOUND:                -0.610
REMARK  Name = cpd281.pdb
REMARK  14 active torsions:
REMARK  status: ('A' for Active; 'I' for Inactive)
REMARK    1  A    between atoms: C_2  and  C_3
REMARK    2  A    between atoms: C_2  and  C_9
REMARK    3  A    between atoms: C_3  and  O_4
REMARK    4  A    between atoms: O_4  and  S_5
REMARK    5  A    between atoms: C_12  and  C_13
REMARK    6  A    between atoms: C_19  and  C_20
REMARK    7  A    between atoms: C_23  and  O_24
REMARK    8  A    between atoms: O_24  and  S_25
REMARK    9  A    between atoms: C_29  and  C_30
REMARK   10  A    between atoms: C_29  and  C_31
REMARK   11  A    between atoms: C_35  and  C_36
REMARK   12  A    between atoms: C_37  and  C_38
REMARK   13  A    between atoms: C_40  and  O_41
REMARK   14  A    between atoms: O_41  and  S_42
REMARK                            x       y       z     vdW  Elec       q    Type
REMARK                         _______ _______ _______ _____ _____    ______ ____
ROOT
ATOM      1  C   UNL     1      36.638 -38.856 -29.863  0.00  0.00    -0.014 C 
ATOM      2  C   UNL     1      36.727 -40.350 -29.378  0.00  0.00    -0.046 C 
ATOM      3  C   UNL     1      35.302 -40.978 -29.571  0.00  0.00    -0.044 C 
ATOM      4  C   UNL     1      34.603 -39.977 -30.506  0.00  0.00    +0.000 C 
ATOM      5  C   UNL     1      35.144 -40.326 -31.927  0.00  0.00    -0.057 C 
ATOM      6  C   UNL     1      35.122 -38.651 -29.815  0.00  0.00    -0.023 C 
ATOM      7  C   UNL     1      34.290 -37.353 -30.043  0.00  0.00    -0.031 C 
ATOM      8  C   UNL     1      34.978 -35.989 -29.814  0.00  0.00    -0.049 C 
ATOM      9  C   UNL     1      34.032 -34.768 -30.027  0.00  0.00    -0.049 C 
ATOM     10  C   UNL     1      32.557 -35.170 -29.870  0.00  0.00    -0.029 C 
ATOM     11  C   UNL     1      31.495 -34.030 -29.529  0.00  0.00    -0.025 C 
ATOM     12  C   UNL     1      31.751 -33.664 -28.038  0.00  0.00    -0.059 C 
ATOM     13  C   UNL     1      31.653 -32.732 -30.354  0.00  0.00    -0.045 C 
ATOM     14  C   UNL     1      30.327 -32.013 -30.683  0.00  0.00    -0.023 C 
ATOM     15  C   UNL     1      29.182 -32.154 -29.655  0.00  0.00    +0.095 C 
ATOM     16  C   UNL     1      28.870 -33.648 -29.270  0.00  0.00    -0.003 C 
ATOM     17  C   UNL     1      28.505 -33.839 -27.784  0.00  0.00    -0.057 C 
ATOM     18  C   UNL     1      27.585 -34.053 -30.062  0.00  0.00    -0.057 C 
ATOM     19  C   UNL     1      30.039 -34.575 -29.753  0.00  0.00    -0.028 C 
ATOM     20  C   UNL     1      29.963 -36.059 -29.394  0.00  0.00    -0.049 C 
ATOM     21  C   UNL     1      30.845 -36.919 -30.332  0.00  0.00    -0.047 C 
ATOM     22  C   UNL     1      32.122 -36.226 -30.960  0.00  0.00    -0.023 C 
ATOM     23  C   UNL     1      31.732 -35.591 -32.324  0.00  0.00    -0.059 C 
ATOM     24  C   UNL     1      33.344 -37.307 -31.272  0.00  0.00    -0.021 C 
ATOM     25  C   UNL     1      34.213 -36.885 -32.501  0.00  0.00    -0.059 C 
ATOM     26  C   UNL     1      32.753 -38.709 -31.598  0.00  0.00    -0.018 C 
ATOM     27  C   UNL     1      33.069 -39.864 -30.548  0.00  0.00    +0.096 C 
ENDROOT
BRANCH   1  29
ATOM     28  C   UNL     1      37.503 -37.786 -27.802  0.00  0.00    -0.097 C 
ATOM     29  C   UNL     1      37.572 -37.909 -29.144  0.00  0.00    -0.046 C 
BRANCH  29  30
ATOM     30  C   UNL     1      38.578 -37.081 -29.920  0.00  0.00    +0.100 C 
BRANCH  30  31
ATOM     31  O   UNL     1      39.887 -37.482 -29.556  0.00  0.00    -0.209 OA
BRANCH  31  32
ATOM     32  S   UNL     1      41.104 -37.100 -30.567  0.00  0.00    +0.239 S 
ATOM     33  O   UNL     1      41.893 -36.135 -29.804  0.00  0.00    -0.116 OA
ATOM     34  O   UNL     1      41.781 -38.371 -30.804  0.00  0.00    -0.116 OA
ATOM     35  O   UNL     1      40.432 -36.538 -31.735  0.00  0.00    -0.022 OA
ENDBRANCH  31  32
ENDBRANCH  30  31
ENDBRANCH  29  30
ENDBRANCH   1  29
BRANCH  15  36
ATOM     36  O   UNL     1      29.478 -31.356 -28.518  0.00  0.00    -0.210 OA
BRANCH  36  37
ATOM     37  S   UNL     1      28.487 -30.102 -28.174  0.00  0.00    +0.239 S 
ATOM     38  O   UNL     1      27.258 -30.414 -28.902  0.00  0.00    -0.116 OA
ATOM     39  O   UNL     1      29.208 -28.938 -28.678  0.00  0.00    -0.116 OA
ATOM     40  O   UNL     1      28.347 -30.143 -26.720  0.00  0.00    -0.022 OA
ENDBRANCH  36  37
ENDBRANCH  15  36
BRANCH  27  41
ATOM     41  O   UNL     1      32.297 -41.054 -30.844  0.00  0.00    -0.210 OA
BRANCH  41  42
ATOM     42  S   UNL     1      31.344 -41.069 -30.733  0.00  0.00    +0.239 S 
ATOM     43  O   UNL     1      31.385 -42.059 -31.841  0.00  0.00    -0.116 OA
ATOM     44  O   UNL     1      30.392 -41.084 -30.621  0.00  0.00    -0.116 OA
ATOM     45  O   UNL     1      31.669 -41.518 -29.354  0.00  0.00    -0.022 OA
ENDBRANCH  41  42
ENDBRANCH  27  41
TORSDOF 8
ENDMDL
MODEL 6
REMARK VINA RESULT:    -8.013      5.509      8.538
REMARK INTER + INTRA:         -12.370
REMARK INTER:                 -10.825
REMARK INTRA:                  -1.545
REMARK UNBOUND:                -0.610
REMARK  Name = cpd281.pdb
REMARK  14 active torsions:
REMARK  status: ('A' for Active; 'I' for Inactive)
REMARK    1  A    between atoms: C_2  and  C_3
REMARK    2  A    between atoms: C_2  and  C_9
REMARK    3  A    between atoms: C_3  and  O_4
REMARK    4  A    between atoms: O_4  and  S_5
REMARK    5  A    between atoms: C_12  and  C_13
REMARK    6  A    between atoms: C_19  and  C_20
REMARK    7  A    between atoms: C_23  and  O_24
REMARK    8  A    between atoms: O_24  and  S_25
REMARK    9  A    between atoms: C_29  and  C_30
REMARK   10  A    between atoms: C_29  and  C_31
REMARK   11  A    between atoms: C_35  and  C_36
REMARK   12  A    between atoms: C_37  and  C_38
REMARK   13  A    between atoms: C_40  and  O_41
REMARK   14  A    between atoms: O_41  and  S_42
REMARK                            x       y       z     vdW  Elec       q    Type
REMARK                         _______ _______ _______ _____ _____    ______ ____
ROOT
ATOM      1  C   UNL     1      36.275 -36.402 -29.898  0.00  0.00    -0.014 C 
ATOM      2  C   UNL     1      36.340 -34.837 -30.049  0.00  0.00    -0.046 C 
ATOM      3  C   UNL     1      34.953 -34.375 -30.620  0.00  0.00    -0.044 C 
ATOM      4  C   UNL     1      34.055 -35.601 -30.387  0.00  0.00    +0.000 C 
ATOM      5  C   UNL     1      33.661 -35.516 -28.880  0.00  0.00    -0.057 C 
ATOM      6  C   UNL     1      35.097 -36.709 -30.826  0.00  0.00    -0.023 C 
ATOM      7  C   UNL     1      34.527 -38.086 -31.281  0.00  0.00    -0.031 C 
ATOM      8  C   UNL     1      35.463 -39.315 -31.253  0.00  0.00    -0.049 C 
ATOM      9  C   UNL     1      34.795 -40.622 -31.776  0.00  0.00    -0.049 C 
ATOM     10  C   UNL     1      33.598 -40.311 -32.690  0.00  0.00    -0.029 C 
ATOM     11  C   UNL     1      33.120 -41.433 -33.717  0.00  0.00    -0.025 C 
ATOM     12  C   UNL     1      34.208 -41.458 -34.830  0.00  0.00    -0.059 C 
ATOM     13  C   UNL     1      33.037 -42.859 -33.125  0.00  0.00    -0.045 C 
ATOM     14  C   UNL     1      31.903 -43.731 -33.705  0.00  0.00    -0.023 C 
ATOM     15  C   UNL     1      31.499 -43.468 -35.172  0.00  0.00    +0.095 C 
ATOM     16  C   UNL     1      31.180 -41.955 -35.469  0.00  0.00    -0.003 C 
ATOM     17  C   UNL     1      31.655 -41.486 -36.859  0.00  0.00    -0.057 C 
ATOM     18  C   UNL     1      29.624 -41.825 -35.503  0.00  0.00    -0.057 C 
ATOM     19  C   UNL     1      31.707 -41.062 -34.292  0.00  0.00    -0.028 C 
ATOM     20  C   UNL     1      31.570 -39.546 -34.435  0.00  0.00    -0.049 C 
ATOM     21  C   UNL     1      31.626 -38.836 -33.060  0.00  0.00    -0.047 C 
ATOM     22  C   UNL     1      32.457 -39.544 -31.914  0.00  0.00    -0.023 C 
ATOM     23  C   UNL     1      31.511 -40.479 -31.109  0.00  0.00    -0.059 C 
ATOM     24  C   UNL     1      33.092 -38.461 -30.826  0.00  0.00    -0.021 C 
ATOM     25  C   UNL     1      33.212 -39.063 -29.388  0.00  0.00    -0.059 C 
ATOM     26  C   UNL     1      32.176 -37.209 -30.715  0.00  0.00    -0.018 C 
ATOM     27  C   UNL     1      32.796 -35.839 -31.240  0.00  0.00    +0.096 C 
ENDROOT
BRANCH   1  29
ATOM     28  C   UNL     1      38.045 -37.956 -29.129  0.00  0.00    -0.097 C 
ATOM     29  C   UNL     1      37.604 -37.102 -30.075  0.00  0.00    -0.046 C 
BRANCH  29  30
ATOM     30  C   UNL     1      38.453 -36.841 -31.304  0.00  0.00    +0.100 C 
BRANCH  30  31
ATOM     31  O   UNL     1      39.580 -36.066 -30.932  0.00  0.00    -0.209 OA
BRANCH  31  32
ATOM     32  S   UNL     1      40.422 -35.338 -32.119  0.00  0.00    +0.239 S 
ATOM     33  O   UNL     1      39.899 -35.952 -33.337  0.00  0.00    -0.116 OA
ATOM     34  O   UNL     1      40.089 -33.923 -31.973  0.00  0.00    -0.116 OA
ATOM     35  O   UNL     1      41.812 -35.672 -31.825  0.00  0.00    -0.022 OA
ENDBRANCH  31  32
ENDBRANCH  30  31
ENDBRANCH  29  30
ENDBRANCH   1  29
BRANCH  15  36
ATOM     36  O   UNL     1      32.504 -43.984 -36.031  0.00  0.00    -0.210 OA
BRANCH  36  37
ATOM     37  S   UNL     1      32.143 -45.290 -36.946  0.00  0.00    +0.239 S 
ATOM     38  O   UNL     1      30.887 -45.780 -36.382  0.00  0.00    -0.116 OA
ATOM     39  O   UNL     1      33.282 -46.181 -36.749  0.00  0.00    -0.116 OA
ATOM     40  O   UNL     1      32.022 -44.757 -38.301  0.00  0.00    -0.022 OA
ENDBRANCH  36  37
ENDBRANCH  15  36
BRANCH  27  41
ATOM     41  O   UNL     1      31.785 -34.800 -31.283  0.00  0.00    -0.210 OA
BRANCH  41  42
ATOM     42  S   UNL     1      31.111 -34.792 -31.965  0.00  0.00    +0.239 S 
ATOM     43  O   UNL     1      30.303 -34.079 -30.940  0.00  0.00    -0.116 OA
ATOM     44  O   UNL     1      30.436 -34.783 -32.647  0.00  0.00    -0.116 OA
ATOM     45  O   UNL     1      32.124 -34.030 -32.740  0.00  0.00    -0.022 OA
ENDBRANCH  41  42
ENDBRANCH  27  41
TORSDOF 8
ENDMDL
MODEL 7
REMARK VINA RESULT:    -7.943      5.516      8.603
REMARK INTER + INTRA:         -12.267
REMARK INTER:                 -10.774
REMARK INTRA:                  -1.493
REMARK UNBOUND:                -0.610
REMARK  Name = cpd281.pdb
REMARK  14 active torsions:
REMARK  status: ('A' for Active; 'I' for Inactive)
REMARK    1  A    between atoms: C_2  and  C_3
REMARK    2  A    between atoms: C_2  and  C_9
REMARK    3  A    between atoms: C_3  and  O_4
REMARK    4  A    between atoms: O_4  and  S_5
REMARK    5  A    between atoms: C_12  and  C_13
REMARK    6  A    between atoms: C_19  and  C_20
REMARK    7  A    between atoms: C_23  and  O_24
REMARK    8  A    between atoms: O_24  and  S_25
REMARK    9  A    between atoms: C_29  and  C_30
REMARK   10  A    between atoms: C_29  and  C_31
REMARK   11  A    between atoms: C_35  and  C_36
REMARK   12  A    between atoms: C_37  and  C_38
REMARK   13  A    between atoms: C_40  and  O_41
REMARK   14  A    between atoms: O_41  and  S_42
REMARK                            x       y       z     vdW  Elec       q    Type
REMARK                         _______ _______ _______ _____ _____    ______ ____
ROOT
ATOM      1  C   UNL     1      33.444 -36.196 -28.149  0.00  0.00    -0.014 C 
ATOM      2  C   UNL     1      32.988 -36.181 -26.643  0.00  0.00    -0.046 C 
ATOM      3  C   UNL     1      33.085 -37.658 -26.121  0.00  0.00    -0.044 C 
ATOM      4  C   UNL     1      33.951 -38.348 -27.188  0.00  0.00    +0.000 C 
ATOM      5  C   UNL     1      35.413 -37.939 -26.829  0.00  0.00    -0.057 C 
ATOM      6  C   UNL     1      33.281 -37.686 -28.460  0.00  0.00    -0.023 C 
ATOM      7  C   UNL     1      33.429 -38.436 -29.818  0.00  0.00    -0.031 C 
ATOM      8  C   UNL     1      33.232 -37.637 -31.125  0.00  0.00    -0.049 C 
ATOM      9  C   UNL     1      33.357 -38.505 -32.414  0.00  0.00    -0.049 C 
ATOM     10  C   UNL     1      33.098 -39.990 -32.115  0.00  0.00    -0.029 C 
ATOM     11  C   UNL     1      32.664 -40.940 -33.321  0.00  0.00    -0.025 C 
ATOM     12  C   UNL     1      31.191 -40.550 -33.639  0.00  0.00    -0.059 C 
ATOM     13  C   UNL     1      33.479 -40.748 -34.620  0.00  0.00    -0.045 C 
ATOM     14  C   UNL     1      33.699 -42.039 -35.438  0.00  0.00    -0.023 C 
ATOM     15  C   UNL     1      32.592 -43.113 -35.359  0.00  0.00    +0.095 C 
ATOM     16  C   UNL     1      32.206 -43.504 -33.883  0.00  0.00    -0.003 C 
ATOM     17  C   UNL     1      30.700 -43.773 -33.691  0.00  0.00    -0.057 C 
ATOM     18  C   UNL     1      32.907 -44.869 -33.587  0.00  0.00    -0.057 C 
ATOM     19  C   UNL     1      32.787 -42.443 -32.885  0.00  0.00    -0.028 C 
ATOM     20  C   UNL     1      32.445 -42.601 -31.404  0.00  0.00    -0.049 C 
ATOM     21  C   UNL     1      33.457 -41.853 -30.502  0.00  0.00    -0.047 C 
ATOM     22  C   UNL     1      34.167 -40.578 -31.114  0.00  0.00    -0.023 C 
ATOM     23  C   UNL     1      35.490 -41.019 -31.801  0.00  0.00    -0.059 C 
ATOM     24  C   UNL     1      34.584 -39.463 -29.955  0.00  0.00    -0.021 C 
ATOM     25  C   UNL     1      35.868 -38.658 -30.338  0.00  0.00    -0.059 C 
ATOM     26  C   UNL     1      34.886 -40.176 -28.605  0.00  0.00    -0.018 C 
ATOM     27  C   UNL     1      33.878 -39.870 -27.411  0.00  0.00    +0.096 C 
ENDROOT
BRANCH   1  29
ATOM     28  C   UNL     1      31.503 -35.311 -29.409  0.00  0.00    -0.097 C 
ATOM     29  C   UNL     1      32.782 -35.147 -29.013  0.00  0.00    -0.046 C 
BRANCH  29  30
ATOM     30  C   UNL     1      33.550 -33.916 -29.453  0.00  0.00    +0.100 C 
BRANCH  30  31
ATOM     31  O   UNL     1      34.013 -34.107 -30.778  0.00  0.00    -0.209 OA
BRANCH  31  32
ATOM     32  S   UNL     1      33.602 -32.993 -31.892  0.00  0.00    +0.239 S 
ATOM     33  O   UNL     1      34.763 -32.108 -31.936  0.00  0.00    -0.116 OA
ATOM     34  O   UNL     1      33.395 -33.769 -33.111  0.00  0.00    -0.116 OA
ATOM     35  O   UNL     1      32.395 -32.376 -31.348  0.00  0.00    -0.022 OA
ENDBRANCH  31  32
ENDBRANCH  30  31
ENDBRANCH  29  30
ENDBRANCH   1  29
BRANCH  15  36
ATOM     36  O   UNL     1      31.469 -42.679 -36.111  0.00  0.00    -0.210 OA
BRANCH  36  37
ATOM     37  S   UNL     1      31.272 -43.274 -37.621  0.00  0.00    +0.239 S 
ATOM     38  O   UNL     1      32.078 -44.495 -37.627  0.00  0.00    -0.116 OA
ATOM     39  O   UNL     1      31.778 -42.213 -38.484  0.00  0.00    -0.116 OA
ATOM     40  O   UNL     1      29.834 -43.508 -37.730  0.00  0.00    -0.022 OA
ENDBRANCH  36  37
ENDBRANCH  15  36
BRANCH  27  41
ATOM     41  O   UNL     1      34.134 -40.745 -26.285  0.00  0.00    -0.210 OA
BRANCH  41  42
ATOM     42  S   UNL     1      33.933 -41.682 -26.328  0.00  0.00    +0.239 S 
ATOM     43  O   UNL     1      34.628 -41.734 -25.015  0.00  0.00    -0.116 OA
ATOM     44  O   UNL     1      33.731 -42.619 -26.371  0.00  0.00    -0.116 OA
ATOM     45  O   UNL     1      32.522 -41.218 -26.377  0.00  0.00    -0.022 OA
ENDBRANCH  41  42
ENDBRANCH  27  41
TORSDOF 8
ENDMDL
MODEL 8
REMARK VINA RESULT:    -7.879     17.653     21.296
REMARK INTER + INTRA:         -12.173
REMARK INTER:                 -10.816
REMARK INTRA:                  -1.358
REMARK UNBOUND:                -0.610
REMARK  Name = cpd281.pdb
REMARK  14 active torsions:
REMARK  status: ('A' for Active; 'I' for Inactive)
REMARK    1  A    between atoms: C_2  and  C_3
REMARK    2  A    between atoms: C_2  and  C_9
REMARK    3  A    between atoms: C_3  and  O_4
REMARK    4  A    between atoms: O_4  and  S_5
REMARK    5  A    between atoms: C_12  and  C_13
REMARK    6  A    between atoms: C_19  and  C_20
REMARK    7  A    between atoms: C_23  and  O_24
REMARK    8  A    between atoms: O_24  and  S_25
REMARK    9  A    between atoms: C_29  and  C_30
REMARK   10  A    between atoms: C_29  and  C_31
REMARK   11  A    between atoms: C_35  and  C_36
REMARK   12  A    between atoms: C_37  and  C_38
REMARK   13  A    between atoms: C_40  and  O_41
REMARK   14  A    between atoms: O_41  and  S_42
REMARK                            x       y       z     vdW  Elec       q    Type
REMARK                         _______ _______ _______ _____ _____    ______ ____
ROOT
ATOM      1  C   UNL     1      38.887 -18.425 -32.741  0.00  0.00    -0.014 C 
ATOM      2  C   UNL     1      37.551 -19.250 -32.852  0.00  0.00    -0.046 C 
ATOM      3  C   UNL     1      37.876 -20.535 -33.691  0.00  0.00    -0.044 C 
ATOM      4  C   UNL     1      39.413 -20.587 -33.669  0.00  0.00    +0.000 C 
ATOM      5  C   UNL     1      39.762 -21.194 -32.275  0.00  0.00    -0.057 C 
ATOM      6  C   UNL     1      39.677 -19.043 -33.898  0.00  0.00    -0.023 C 
ATOM      7  C   UNL     1      41.062 -18.633 -34.482  0.00  0.00    -0.031 C 
ATOM      8  C   UNL     1      41.545 -17.180 -34.279  0.00  0.00    -0.049 C 
ATOM      9  C   UNL     1      42.920 -16.879 -34.948  0.00  0.00    -0.049 C 
ATOM     10  C   UNL     1      43.217 -17.870 -36.086  0.00  0.00    -0.029 C 
ATOM     11  C   UNL     1      44.267 -17.441 -37.207  0.00  0.00    -0.025 C 
ATOM     12  C   UNL     1      43.531 -16.375 -38.070  0.00  0.00    -0.059 C 
ATOM     13  C   UNL     1      45.557 -16.782 -36.666  0.00  0.00    -0.045 C 
ATOM     14  C   UNL     1      46.830 -17.095 -37.481  0.00  0.00    -0.023 C 
ATOM     15  C   UNL     1      46.648 -17.334 -38.996  0.00  0.00    +0.095 C 
ATOM     16  C   UNL     1      45.551 -18.413 -39.330  0.00  0.00    -0.003 C 
ATOM     17  C   UNL     1      44.718 -18.077 -40.584  0.00  0.00    -0.057 C 
ATOM     18  C   UNL     1      46.314 -19.729 -39.685  0.00  0.00    -0.057 C 
ATOM     19  C   UNL     1      44.680 -18.694 -38.056  0.00  0.00    -0.028 C 
ATOM     20  C   UNL     1      43.500 -19.654 -38.202  0.00  0.00    -0.049 C 
ATOM     21  C   UNL     1      43.068 -20.240 -36.836  0.00  0.00    -0.047 C 
ATOM     22  C   UNL     1      43.331 -19.351 -35.553  0.00  0.00    -0.023 C 
ATOM     23  C   UNL     1      44.732 -19.701 -34.975  0.00  0.00    -0.059 C 
ATOM     24  C   UNL     1      42.233 -19.641 -34.340  0.00  0.00    -0.021 C 
ATOM     25  C   UNL     1      42.847 -19.431 -32.918  0.00  0.00    -0.059 C 
ATOM     26  C   UNL     1      41.738 -21.115 -34.404  0.00  0.00    -0.018 C 
ATOM     27  C   UNL     1      40.201 -21.322 -34.768  0.00  0.00    +0.096 C 
ENDROOT
BRANCH   1  29
ATOM     28  C   UNL     1      38.060 -16.270 -33.643  0.00  0.00    -0.097 C 
ATOM     29  C   UNL     1      38.691 -16.928 -32.649  0.00  0.00    -0.046 C 
BRANCH  29  30
ATOM     30  C   UNL     1      39.213 -16.156 -31.453  0.00  0.00    +0.100 C 
BRANCH  30  31
ATOM     31  O   UNL     1      39.196 -14.771 -31.752  0.00  0.00    -0.209 OA
BRANCH  31  32
ATOM     32  S   UNL     1      38.431 -13.782 -30.710  0.00  0.00    +0.239 S 
ATOM     33  O   UNL     1      38.987 -14.155 -29.412  0.00  0.00    -0.116 OA
ATOM     34  O   UNL     1      38.802 -12.442 -31.156  0.00  0.00    -0.116 OA
ATOM     35  O   UNL     1      37.019 -14.113 -30.879  0.00  0.00    -0.022 OA
ENDBRANCH  31  32
ENDBRANCH  30  31
ENDBRANCH  29  30
ENDBRANCH   1  29
BRANCH  15  36
ATOM     36  O   UNL     1      46.394 -16.092 -39.636  0.00  0.00    -0.210 OA
BRANCH  36  37
ATOM     37  S   UNL     1      47.527 -15.500 -40.654  0.00  0.00    +0.239 S 
ATOM     38  O   UNL     1      46.809 -14.496 -41.436  0.00  0.00    -0.116 OA
ATOM     39  O   UNL     1      47.955 -16.667 -41.418  0.00  0.00    -0.116 OA
ATOM     40  O   UNL     1      48.551 -14.949 -39.769  0.00  0.00    -0.022 OA
ENDBRANCH  36  37
ENDBRANCH  15  36
BRANCH  27  41
ATOM     41  O   UNL     1      39.913 -22.722 -35.004  0.00  0.00    -0.210 OA
BRANCH  41  42
ATOM     42  S   UNL     1      39.396 -23.002 -35.762  0.00  0.00    +0.239 S 
ATOM     43  O   UNL     1      40.721 -23.332 -36.350  0.00  0.00    -0.116 OA
ATOM     44  O   UNL     1      38.878 -23.282 -36.519  0.00  0.00    -0.116 OA
ATOM     45  O   UNL     1      38.781 -23.949 -34.796  0.00  0.00    -0.022 OA
ENDBRANCH  41  42
ENDBRANCH  27  41
TORSDOF 8
ENDMDL
MODEL 9
REMARK VINA RESULT:    -7.700     18.709     21.729
REMARK INTER + INTRA:         -11.911
REMARK INTER:                 -10.206
REMARK INTRA:                  -1.705
REMARK UNBOUND:                -0.610
REMARK  Name = cpd281.pdb
REMARK  14 active torsions:
REMARK  status: ('A' for Active; 'I' for Inactive)
REMARK    1  A    between atoms: C_2  and  C_3
REMARK    2  A    between atoms: C_2  and  C_9
REMARK    3  A    between atoms: C_3  and  O_4
REMARK    4  A    between atoms: O_4  and  S_5
REMARK    5  A    between atoms: C_12  and  C_13
REMARK    6  A    between atoms: C_19  and  C_20
REMARK    7  A    between atoms: C_23  and  O_24
REMARK    8  A    between atoms: O_24  and  S_25
REMARK    9  A    between atoms: C_29  and  C_30
REMARK   10  A    between atoms: C_29  and  C_31
REMARK   11  A    between atoms: C_35  and  C_36
REMARK   12  A    between atoms: C_37  and  C_38
REMARK   13  A    between atoms: C_40  and  O_41
REMARK   14  A    between atoms: O_41  and  S_42
REMARK                            x       y       z     vdW  Elec       q    Type
REMARK                         _______ _______ _______ _____ _____    ______ ____
ROOT
ATOM      1  C   UNL     1      41.471 -21.280 -37.333  0.00  0.00    -0.014 C 
ATOM      2  C   UNL     1      40.976 -21.449 -38.818  0.00  0.00    -0.046 C 
ATOM      3  C   UNL     1      41.677 -20.328 -39.663  0.00  0.00    -0.044 C 
ATOM      4  C   UNL     1      42.810 -19.852 -38.739  0.00  0.00    +0.000 C 
ATOM      5  C   UNL     1      43.930 -20.925 -38.909  0.00  0.00    -0.057 C 
ATOM      6  C   UNL     1      41.986 -19.840 -37.388  0.00  0.00    -0.023 C 
ATOM      7  C   UNL     1      42.514 -18.932 -36.237  0.00  0.00    -0.031 C 
ATOM      8  C   UNL     1      42.057 -19.235 -34.792  0.00  0.00    -0.049 C 
ATOM      9  C   UNL     1      42.612 -18.232 -33.737  0.00  0.00    -0.049 C 
ATOM     10  C   UNL     1      43.007 -16.897 -34.389  0.00  0.00    -0.029 C 
ATOM     11  C   UNL     1      43.090 -15.600 -33.465  0.00  0.00    -0.025 C 
ATOM     12  C   UNL     1      41.612 -15.227 -33.149  0.00  0.00    -0.059 C 
ATOM     13  C   UNL     1      43.807 -15.814 -32.113  0.00  0.00    -0.045 C 
ATOM     14  C   UNL     1      44.607 -14.594 -31.607  0.00  0.00    -0.023 C 
ATOM     15  C   UNL     1      44.073 -13.198 -31.998  0.00  0.00    +0.095 C 
ATOM     16  C   UNL     1      43.819 -13.038 -33.544  0.00  0.00    -0.003 C 
ATOM     17  C   UNL     1      42.571 -12.197 -33.879  0.00  0.00    -0.057 C 
ATOM     18  C   UNL     1      45.026 -12.222 -34.110  0.00  0.00    -0.057 C 
ATOM     19  C   UNL     1      43.831 -14.447 -34.231  0.00  0.00    -0.028 C 
ATOM     20  C   UNL     1      43.515 -14.509 -35.725  0.00  0.00    -0.049 C 
ATOM     21  C   UNL     1      44.055 -15.810 -36.369  0.00  0.00    -0.047 C 
ATOM     22  C   UNL     1      44.173 -17.083 -35.437  0.00  0.00    -0.023 C 
ATOM     23  C   UNL     1      45.589 -17.111 -34.797  0.00  0.00    -0.059 C 
ATOM     24  C   UNL     1      44.005 -18.506 -36.278  0.00  0.00    -0.021 C 
ATOM     25  C   UNL     1      44.831 -19.673 -35.644  0.00  0.00    -0.059 C 
ATOM     26  C   UNL     1      44.516 -18.333 -37.737  0.00  0.00    -0.018 C 
ATOM     27  C   UNL     1      43.415 -18.444 -38.882  0.00  0.00    +0.096 C 
ENDROOT
BRANCH   1  29
ATOM     28  C   UNL     1      39.296 -21.041 -36.171  0.00  0.00    -0.097 C 
ATOM     29  C   UNL     1      40.465 -21.704 -36.287  0.00  0.00    -0.046 C 
BRANCH  29  30
ATOM     30  C   UNL     1      40.765 -22.861 -35.355  0.00  0.00    +0.100 C 
BRANCH  30  31
ATOM     31  O   UNL     1      40.768 -22.390 -34.018  0.00  0.00    -0.209 OA
BRANCH  31  32
ATOM     32  S   UNL     1      39.745 -23.094 -32.966  0.00  0.00    +0.239 S 
ATOM     33  O   UNL     1      38.921 -21.984 -32.494  0.00  0.00    -0.116 OA
ATOM     34  O   UNL     1      39.023 -24.073 -33.773  0.00  0.00    -0.116 OA
ATOM     35  O   UNL     1      40.621 -23.668 -31.948  0.00  0.00    -0.022 OA
ENDBRANCH  31  32
ENDBRANCH  30  31
ENDBRANCH  29  30
ENDBRANCH   1  29
BRANCH  15  36
ATOM     36  O   UNL     1      42.912 -12.913 -31.230  0.00  0.00    -0.210 OA
BRANCH  36  37
ATOM     37  S   UNL     1      43.054 -11.884 -29.969  0.00  0.00    +0.239 S 
ATOM     38  O   UNL     1      43.067 -12.760 -28.798  0.00  0.00    -0.116 OA
ATOM     39  O   UNL     1      41.871 -11.036 -30.075  0.00  0.00    -0.116 OA
ATOM     40  O   UNL     1      44.317 -11.191 -30.211  0.00  0.00    -0.022 OA
ENDBRANCH  36  37
ENDBRANCH  15  36
BRANCH  27  41
ATOM     41  O   UNL     1      43.968 -18.057 -40.165  0.00  0.00    -0.210 OA
BRANCH  41  42
ATOM     42  S   UNL     1      44.358 -17.191 -40.297  0.00  0.00    +0.239 S 
ATOM     43  O   UNL     1      45.304 -17.923 -41.181  0.00  0.00    -0.116 OA
ATOM     44  O   UNL     1      44.748 -16.325 -40.430  0.00  0.00    -0.116 OA
ATOM     45  O   UNL     1      43.013 -16.836 -40.819  0.00  0.00    -0.022 OA
ENDBRANCH  41  42
ENDBRANCH  27  41
TORSDOF 8
ENDMDL
MODEL 10
REMARK VINA RESULT:    -7.610     17.622     21.550
REMARK INTER + INTRA:         -11.778
REMARK INTER:                 -10.065
REMARK INTRA:                  -1.713
REMARK UNBOUND:                -0.610
REMARK  Name = cpd281.pdb
REMARK  14 active torsions:
REMARK  status: ('A' for Active; 'I' for Inactive)
REMARK    1  A    between atoms: C_2  and  C_3
REMARK    2  A    between atoms: C_2  and  C_9
REMARK    3  A    between atoms: C_3  and  O_4
REMARK    4  A    between atoms: O_4  and  S_5
REMARK    5  A    between atoms: C_12  and  C_13
REMARK    6  A    between atoms: C_19  and  C_20
REMARK    7  A    between atoms: C_23  and  O_24
REMARK    8  A    between atoms: O_24  and  S_25
REMARK    9  A    between atoms: C_29  and  C_30
REMARK   10  A    between atoms: C_29  and  C_31
REMARK   11  A    between atoms: C_35  and  C_36
REMARK   12  A    between atoms: C_37  and  C_38
REMARK   13  A    between atoms: C_40  and  O_41
REMARK   14  A    between atoms: O_41  and  S_42
REMARK                            x       y       z     vdW  Elec       q    Type
REMARK                         _______ _______ _______ _____ _____    ______ ____
ROOT
ATOM      1  C   UNL     1      38.922 -18.178 -34.122  0.00  0.00    -0.014 C 
ATOM      2  C   UNL     1      39.035 -17.419 -32.749  0.00  0.00    -0.046 C 
ATOM      3  C   UNL     1      40.155 -16.333 -32.918  0.00  0.00    -0.044 C 
ATOM      4  C   UNL     1      40.333 -16.250 -34.443  0.00  0.00    +0.000 C 
ATOM      5  C   UNL     1      39.149 -15.358 -34.927  0.00  0.00    -0.057 C 
ATOM      6  C   UNL     1      40.269 -17.803 -34.744  0.00  0.00    -0.023 C 
ATOM      7  C   UNL     1      40.923 -18.302 -36.068  0.00  0.00    -0.031 C 
ATOM      8  C   UNL     1      40.485 -19.671 -36.634  0.00  0.00    -0.049 C 
ATOM      9  C   UNL     1      41.242 -20.082 -37.933  0.00  0.00    -0.049 C 
ATOM     10  C   UNL     1      42.588 -19.348 -38.052  0.00  0.00    -0.029 C 
ATOM     11  C   UNL     1      43.717 -19.984 -38.981  0.00  0.00    -0.025 C 
ATOM     12  C   UNL     1      44.244 -21.220 -38.196  0.00  0.00    -0.059 C 
ATOM     13  C   UNL     1      43.215 -20.492 -40.352  0.00  0.00    -0.045 C 
ATOM     14  C   UNL     1      44.228 -20.334 -41.507  0.00  0.00    -0.023 C 
ATOM     15  C   UNL     1      45.725 -20.422 -41.139  0.00  0.00    +0.095 C 
ATOM     16  C   UNL     1      46.137 -19.457 -39.965  0.00  0.00    -0.003 C 
ATOM     17  C   UNL     1      47.182 -20.063 -39.007  0.00  0.00    -0.057 C 
ATOM     18  C   UNL     1      46.847 -18.231 -40.624  0.00  0.00    -0.057 C 
ATOM     19  C   UNL     1      44.851 -18.929 -39.238  0.00  0.00    -0.028 C 
ATOM     20  C   UNL     1      45.045 -18.043 -38.008  0.00  0.00    -0.049 C 
ATOM     21  C   UNL     1      43.786 -17.191 -37.714  0.00  0.00    -0.047 C 
ATOM     22  C   UNL     1      42.390 -17.785 -38.164  0.00  0.00    -0.023 C 
ATOM     23  C   UNL     1      42.074 -17.298 -39.606  0.00  0.00    -0.059 C 
ATOM     24  C   UNL     1      41.138 -17.266 -37.203  0.00  0.00    -0.021 C 
ATOM     25  C   UNL     1      39.789 -17.163 -37.988  0.00  0.00    -0.059 C 
ATOM     26  C   UNL     1      41.442 -15.848 -36.641  0.00  0.00    -0.018 C 
ATOM     27  C   UNL     1      41.649 -15.749 -35.066  0.00  0.00    +0.096 C 
ENDROOT
BRANCH   1  29
ATOM     28  C   UNL     1      37.462 -20.085 -34.732  0.00  0.00    -0.097 C 
ATOM     29  C   UNL     1      38.500 -19.625 -34.003  0.00  0.00    -0.046 C 
BRANCH  29  30
ATOM     30  C   UNL     1      39.225 -20.563 -33.058  0.00  0.00    +0.100 C 
BRANCH  30  31
ATOM     31  O   UNL     1      38.760 -21.885 -33.271  0.00  0.00    -0.209 OA
BRANCH  31  32
ATOM     32  S   UNL     1      39.874 -23.054 -33.478  0.00  0.00    +0.239 S 
ATOM     33  O   UNL     1      39.922 -23.229 -34.928  0.00  0.00    -0.116 OA
ATOM     34  O   UNL     1      41.092 -22.489 -32.904  0.00  0.00    -0.116 OA
ATOM     35  O   UNL     1      39.329 -24.197 -32.752  0.00  0.00    -0.022 OA
ENDBRANCH  31  32
ENDBRANCH  30  31
ENDBRANCH  29  30
ENDBRANCH   1  29
BRANCH  15  36
ATOM     36  O   UNL     1      46.059 -21.775 -40.865  0.00  0.00    -0.210 OA
BRANCH  36  37
ATOM     37  S   UNL     1      47.259 -22.467 -41.733  0.00  0.00    +0.239 S 
ATOM     38  O   UNL     1      46.555 -23.213 -42.775  0.00  0.00    -0.116 OA
ATOM     39  O   UNL     1      47.958 -23.300 -40.761  0.00  0.00    -0.116 OA
ATOM     40  O   UNL     1      48.039 -21.336 -42.232  0.00  0.00    -0.022 OA
ENDBRANCH  36  37
ENDBRANCH  15  36
BRANCH  27  41
ATOM     41  O   UNL     1      42.132 -14.435 -34.692  0.00  0.00    -0.210 OA
BRANCH  41  42
ATOM     42  S   UNL     1      43.017 -14.146 -34.924  0.00  0.00    +0.239 S 
ATOM     43  O   UNL     1      42.437 -12.782 -34.801  0.00  0.00    -0.116 OA
ATOM     44  O   UNL     1      43.901 -13.858 -35.155  0.00  0.00    -0.116 OA
ATOM     45  O   UNL     1      43.409 -14.875 -33.690  0.00  0.00    -0.022 OA
ENDBRANCH  41  42
ENDBRANCH  27  41
TORSDOF 8
ENDMDL
MODEL 11
REMARK VINA RESULT:    -7.564      2.647      5.617
REMARK INTER + INTRA:         -11.711
REMARK INTER:                 -10.283
REMARK INTRA:                  -1.428
REMARK UNBOUND:                -0.610
REMARK  Name = cpd281.pdb
REMARK  14 active torsions:
REMARK  status: ('A' for Active; 'I' for Inactive)
REMARK    1  A    between atoms: C_2  and  C_3
REMARK    2  A    between atoms: C_2  and  C_9
REMARK    3  A    between atoms: C_3  and  O_4
REMARK    4  A    between atoms: O_4  and  S_5
REMARK    5  A    between atoms: C_12  and  C_13
REMARK    6  A    between atoms: C_19  and  C_20
REMARK    7  A    between atoms: C_23  and  O_24
REMARK    8  A    between atoms: O_24  and  S_25
REMARK    9  A    between atoms: C_29  and  C_30
REMARK   10  A    between atoms: C_29  and  C_31
REMARK   11  A    between atoms: C_35  and  C_36
REMARK   12  A    between atoms: C_37  and  C_38
REMARK   13  A    between atoms: C_40  and  O_41
REMARK   14  A    between atoms: O_41  and  S_42
REMARK                            x       y       z     vdW  Elec       q    Type
REMARK                         _______ _______ _______ _____ _____    ______ ____
ROOT
ATOM      1  C   UNL     1      34.422 -40.038 -29.114  0.00  0.00    -0.014 C 
ATOM      2  C   UNL     1      35.723 -40.474 -29.885  0.00  0.00    -0.046 C 
ATOM      3  C   UNL     1      36.452 -39.158 -30.331  0.00  0.00    -0.044 C 
ATOM      4  C   UNL     1      35.778 -38.077 -29.471  0.00  0.00    +0.000 C 
ATOM      5  C   UNL     1      36.470 -38.198 -28.078  0.00  0.00    -0.057 C 
ATOM      6  C   UNL     1      34.289 -38.597 -29.612  0.00  0.00    -0.023 C 
ATOM      7  C   UNL     1      33.146 -37.566 -29.370  0.00  0.00    -0.031 C 
ATOM      8  C   UNL     1      31.737 -38.098 -29.024  0.00  0.00    -0.049 C 
ATOM      9  C   UNL     1      30.670 -36.975 -28.852  0.00  0.00    -0.049 C 
ATOM     10  C   UNL     1      31.090 -35.688 -29.581  0.00  0.00    -0.029 C 
ATOM     11  C   UNL     1      29.956 -34.637 -29.971  0.00  0.00    -0.025 C 
ATOM     12  C   UNL     1      29.187 -35.286 -31.159  0.00  0.00    -0.059 C 
ATOM     13  C   UNL     1      28.923 -34.356 -28.856  0.00  0.00    -0.045 C 
ATOM     14  C   UNL     1      28.388 -32.908 -28.823  0.00  0.00    -0.023 C 
ATOM     15  C   UNL     1      28.304 -32.164 -30.174  0.00  0.00    +0.095 C 
ATOM     16  C   UNL     1      29.653 -32.192 -30.987  0.00  0.00    -0.003 C 
ATOM     17  C   UNL     1      29.452 -32.330 -32.509  0.00  0.00    -0.057 C 
ATOM     18  C   UNL     1      30.321 -30.793 -30.787  0.00  0.00    -0.057 C 
ATOM     19  C   UNL     1      30.614 -33.271 -30.380  0.00  0.00    -0.028 C 
ATOM     20  C   UNL     1      31.948 -33.512 -31.087  0.00  0.00    -0.049 C 
ATOM     21  C   UNL     1      32.983 -34.172 -30.145  0.00  0.00    -0.047 C 
ATOM     22  C   UNL     1      32.422 -35.088 -28.983  0.00  0.00    -0.023 C 
ATOM     23  C   UNL     1      32.200 -34.217 -27.715  0.00  0.00    -0.059 C 
ATOM     24  C   UNL     1      33.483 -36.292 -28.551  0.00  0.00    -0.021 C 
ATOM     25  C   UNL     1      33.365 -36.676 -27.040  0.00  0.00    -0.059 C 
ATOM     26  C   UNL     1      34.949 -35.826 -28.785  0.00  0.00    -0.018 C 
ATOM     27  C   UNL     1      35.759 -36.603 -29.915  0.00  0.00    +0.096 C 
ENDROOT
BRANCH   1  29
ATOM     28  C   UNL     1      32.692 -41.221 -30.435  0.00  0.00    -0.097 C 
ATOM     29  C   UNL     1      33.269 -41.009 -29.235  0.00  0.00    -0.046 C 
BRANCH  29  30
ATOM     30  C   UNL     1      32.744 -41.736 -28.012  0.00  0.00    +0.100 C 
BRANCH  30  31
ATOM     31  O   UNL     1      33.765 -41.789 -27.031  0.00  0.00    -0.209 OA
BRANCH  31  32
ATOM     32  S   UNL     1      34.646 -43.154 -26.929  0.00  0.00    +0.239 S 
ATOM     33  O   UNL     1      34.316 -43.869 -28.159  0.00  0.00    -0.116 OA
ATOM     34  O   UNL     1      36.026 -42.681 -26.864  0.00  0.00    -0.116 OA
ATOM     35  O   UNL     1      34.163 -43.798 -25.710  0.00  0.00    -0.022 OA
ENDBRANCH  31  32
ENDBRANCH  30  31
ENDBRANCH  29  30
ENDBRANCH   1  29
BRANCH  15  36
ATOM     36  O   UNL     1      27.215 -32.682 -30.923  0.00  0.00    -0.210 OA
BRANCH  36  37
ATOM     37  S   UNL     1      25.960 -31.687 -31.253  0.00  0.00    +0.239 S 
ATOM     38  O   UNL     1      26.375 -30.400 -30.698  0.00  0.00    -0.116 OA
ATOM     39  O   UNL     1      24.833 -32.306 -30.565  0.00  0.00    -0.116 OA
ATOM     40  O   UNL     1      25.861 -31.705 -32.711  0.00  0.00    -0.022 OA
ENDBRANCH  36  37
ENDBRANCH  15  36
BRANCH  27  41
ATOM     41  O   UNL     1      37.023 -35.947 -30.184  0.00  0.00    -0.210 OA
BRANCH  41  42
ATOM     42  S   UNL     1      37.369 -35.883 -31.076  0.00  0.00    +0.239 S 
ATOM     43  O   UNL     1      36.919 -34.469 -30.984  0.00  0.00    -0.116 OA
ATOM     44  O   UNL     1      37.715 -35.819 -31.968  0.00  0.00    -0.116 OA
ATOM     45  O   UNL     1      38.653 -36.273 -30.440  0.00  0.00    -0.022 OA
ENDBRANCH  41  42
ENDBRANCH  27  41
TORSDOF 8
ENDMDL
MODEL 12
REMARK VINA RESULT:    -7.537      3.838      8.627
REMARK INTER + INTRA:         -11.671
REMARK INTER:                 -10.385
REMARK INTRA:                  -1.286
REMARK UNBOUND:                -0.610
REMARK  Name = cpd281.pdb
REMARK  14 active torsions:
REMARK  status: ('A' for Active; 'I' for Inactive)
REMARK    1  A    between atoms: C_2  and  C_3
REMARK    2  A    between atoms: C_2  and  C_9
REMARK    3  A    between atoms: C_3  and  O_4
REMARK    4  A    between atoms: O_4  and  S_5
REMARK    5  A    between atoms: C_12  and  C_13
REMARK    6  A    between atoms: C_19  and  C_20
REMARK    7  A    between atoms: C_23  and  O_24
REMARK    8  A    between atoms: O_24  and  S_25
REMARK    9  A    between atoms: C_29  and  C_30
REMARK   10  A    between atoms: C_29  and  C_31
REMARK   11  A    between atoms: C_35  and  C_36
REMARK   12  A    between atoms: C_37  and  C_38
REMARK   13  A    between atoms: C_40  and  O_41
REMARK   14  A    between atoms: O_41  and  S_42
REMARK                            x       y       z     vdW  Elec       q    Type
REMARK                         _______ _______ _______ _____ _____    ______ ____
ROOT
ATOM      1  C   UNL     1      33.960 -34.202 -30.631  0.00  0.00    -0.014 C 
ATOM      2  C   UNL     1      35.371 -33.837 -31.223  0.00  0.00    -0.046 C 
ATOM      3  C   UNL     1      36.372 -34.943 -30.736  0.00  0.00    -0.044 C 
ATOM      4  C   UNL     1      35.441 -36.066 -30.252  0.00  0.00    +0.000 C 
ATOM      5  C   UNL     1      34.996 -36.795 -31.557  0.00  0.00    -0.057 C 
ATOM      6  C   UNL     1      34.383 -35.153 -29.508  0.00  0.00    -0.023 C 
ATOM      7  C   UNL     1      33.518 -35.821 -28.397  0.00  0.00    -0.031 C 
ATOM      8  C   UNL     1      32.189 -35.144 -27.993  0.00  0.00    -0.049 C 
ATOM      9  C   UNL     1      31.439 -35.878 -26.841  0.00  0.00    -0.049 C 
ATOM     10  C   UNL     1      32.400 -36.744 -26.011  0.00  0.00    -0.029 C 
ATOM     11  C   UNL     1      31.969 -37.141 -24.527  0.00  0.00    -0.025 C 
ATOM     12  C   UNL     1      32.122 -35.836 -23.694  0.00  0.00    -0.059 C 
ATOM     13  C   UNL     1      30.502 -37.607 -24.382  0.00  0.00    -0.045 C 
ATOM     14  C   UNL     1      30.276 -38.698 -23.313  0.00  0.00    -0.023 C 
ATOM     15  C   UNL     1      31.217 -38.681 -22.089  0.00  0.00    +0.095 C 
ATOM     16  C   UNL     1      32.743 -38.655 -22.475  0.00  0.00    -0.003 C 
ATOM     17  C   UNL     1      33.602 -37.783 -21.537  0.00  0.00    -0.057 C 
ATOM     18  C   UNL     1      33.277 -40.111 -22.282  0.00  0.00    -0.057 C 
ATOM     19  C   UNL     1      32.899 -38.287 -23.992  0.00  0.00    -0.028 C 
ATOM     20  C   UNL     1      34.317 -38.125 -24.540  0.00  0.00    -0.049 C 
ATOM     21  C   UNL     1      34.355 -38.285 -26.079  0.00  0.00    -0.047 C 
ATOM     22  C   UNL     1      33.047 -37.892 -26.880  0.00  0.00    -0.023 C 
ATOM     23  C   UNL     1      32.146 -39.150 -27.024  0.00  0.00    -0.059 C 
ATOM     24  C   UNL     1      33.378 -37.366 -28.421  0.00  0.00    -0.021 C 
ATOM     25  C   UNL     1      32.228 -37.705 -29.425  0.00  0.00    -0.059 C 
ATOM     26  C   UNL     1      34.664 -38.054 -28.961  0.00  0.00    -0.018 C 
ATOM     27  C   UNL     1      35.914 -37.101 -29.215  0.00  0.00    +0.096 C 
ENDROOT
BRANCH   1  29
ATOM     28  C   UNL     1      33.569 -31.953 -29.667  0.00  0.00    -0.097 C 
ATOM     29  C   UNL     1      33.075 -33.010 -30.344  0.00  0.00    -0.046 C 
BRANCH  29  30
ATOM     30  C   UNL     1      31.629 -32.999 -30.798  0.00  0.00    +0.100 C 
BRANCH  30  31
ATOM     31  O   UNL     1      30.842 -32.335 -29.824  0.00  0.00    -0.209 OA
BRANCH  31  32
ATOM     32  S   UNL     1      29.972 -31.046 -30.305  0.00  0.00    +0.239 S 
ATOM     33  O   UNL     1      30.395 -29.987 -29.391  0.00  0.00    -0.116 OA
ATOM     34  O   UNL     1      30.382 -30.838 -31.690  0.00  0.00    -0.116 OA
ATOM     35  O   UNL     1      28.586 -31.470 -30.135  0.00  0.00    -0.022 OA
ENDBRANCH  31  32
ENDBRANCH  30  31
ENDBRANCH  29  30
ENDBRANCH   1  29
BRANCH  15  36
ATOM     36  O   UNL     1      30.859 -37.600 -21.241  0.00  0.00    -0.210 OA
BRANCH  36  37
ATOM     37  S   UNL     1      29.998 -37.929 -19.891  0.00  0.00    +0.239 S 
ATOM     38  O   UNL     1      29.452 -39.262 -20.136  0.00  0.00    -0.116 OA
ATOM     39  O   UNL     1      28.999 -36.867 -19.845  0.00  0.00    -0.116 OA
ATOM     40  O   UNL     1      30.985 -37.876 -18.815  0.00  0.00    -0.022 OA
ENDBRANCH  36  37
ENDBRANCH  15  36
BRANCH  27  41
ATOM     41  O   UNL     1      37.102 -37.878 -29.508  0.00  0.00    -0.210 OA
BRANCH  41  42
ATOM     42  S   UNL     1      37.849 -37.890 -28.907  0.00  0.00    +0.239 S 
ATOM     43  O   UNL     1      37.507 -39.329 -28.756  0.00  0.00    -0.116 OA
ATOM     44  O   UNL     1      38.596 -37.902 -28.306  0.00  0.00    -0.116 OA
ATOM     45  O   UNL     1      38.618 -37.454 -30.101  0.00  0.00    -0.022 OA
ENDBRANCH  41  42
ENDBRANCH  27  41
TORSDOF 8
ENDMDL
MODEL 13
REMARK VINA RESULT:    -7.449     17.239     19.299
REMARK INTER + INTRA:         -11.543
REMARK INTER:                  -9.777
REMARK INTRA:                  -1.765
REMARK UNBOUND:                -0.610
REMARK  Name = cpd281.pdb
REMARK  14 active torsions:
REMARK  status: ('A' for Active; 'I' for Inactive)
REMARK    1  A    between atoms: C_2  and  C_3
REMARK    2  A    between atoms: C_2  and  C_9
REMARK    3  A    between atoms: C_3  and  O_4
REMARK    4  A    between atoms: O_4  and  S_5
REMARK    5  A    between atoms: C_12  and  C_13
REMARK    6  A    between atoms: C_19  and  C_20
REMARK    7  A    between atoms: C_23  and  O_24
REMARK    8  A    between atoms: O_24  and  S_25
REMARK    9  A    between atoms: C_29  and  C_30
REMARK   10  A    between atoms: C_29  and  C_31
REMARK   11  A    between atoms: C_35  and  C_36
REMARK   12  A    between atoms: C_37  and  C_38
REMARK   13  A    between atoms: C_40  and  O_41
REMARK   14  A    between atoms: O_41  and  S_42
REMARK                            x       y       z     vdW  Elec       q    Type
REMARK                         _______ _______ _______ _____ _____    ______ ____
ROOT
ATOM      1  C   UNL     1      44.780 -19.562 -37.839  0.00  0.00    -0.014 C 
ATOM      2  C   UNL     1      46.119 -18.743 -37.725  0.00  0.00    -0.046 C 
ATOM      3  C   UNL     1      46.107 -18.040 -36.323  0.00  0.00    -0.044 C 
ATOM      4  C   UNL     1      44.999 -18.790 -35.566  0.00  0.00    +0.000 C 
ATOM      5  C   UNL     1      45.677 -20.113 -35.092  0.00  0.00    -0.057 C 
ATOM      6  C   UNL     1      43.954 -18.871 -36.753  0.00  0.00    -0.023 C 
ATOM      7  C   UNL     1      42.455 -19.065 -36.373  0.00  0.00    -0.031 C 
ATOM      8  C   UNL     1      41.491 -19.619 -37.445  0.00  0.00    -0.049 C 
ATOM      9  C   UNL     1      40.013 -19.724 -36.963  0.00  0.00    -0.049 C 
ATOM     10  C   UNL     1      39.741 -18.775 -35.784  0.00  0.00    -0.029 C 
ATOM     11  C   UNL     1      38.233 -18.343 -35.494  0.00  0.00    -0.025 C 
ATOM     12  C   UNL     1      37.868 -17.344 -36.629  0.00  0.00    -0.059 C 
ATOM     13  C   UNL     1      37.207 -19.498 -35.552  0.00  0.00    -0.045 C 
ATOM     14  C   UNL     1      36.033 -19.366 -34.558  0.00  0.00    -0.023 C 
ATOM     15  C   UNL     1      35.581 -17.934 -34.198  0.00  0.00    +0.095 C 
ATOM     16  C   UNL     1      36.761 -17.010 -33.717  0.00  0.00    -0.003 C 
ATOM     17  C   UNL     1      36.638 -15.551 -34.200  0.00  0.00    -0.057 C 
ATOM     18  C   UNL     1      36.662 -16.935 -32.159  0.00  0.00    -0.057 C 
ATOM     19  C   UNL     1      38.135 -17.676 -34.076  0.00  0.00    -0.028 C 
ATOM     20  C   UNL     1      39.407 -16.887 -33.767  0.00  0.00    -0.049 C 
ATOM     21  C   UNL     1      40.644 -17.814 -33.672  0.00  0.00    -0.047 C 
ATOM     22  C   UNL     1      40.615 -19.148 -34.523  0.00  0.00    -0.023 C 
ATOM     23  C   UNL     1      40.009 -20.287 -33.657  0.00  0.00    -0.059 C 
ATOM     24  C   UNL     1      42.134 -19.650 -34.972  0.00  0.00    -0.021 C 
ATOM     25  C   UNL     1      42.235 -21.205 -35.092  0.00  0.00    -0.059 C 
ATOM     26  C   UNL     1      43.182 -19.211 -33.909  0.00  0.00    -0.018 C 
ATOM     27  C   UNL     1      44.256 -18.137 -34.387  0.00  0.00    +0.096 C 
ENDROOT
BRANCH   1  29
ATOM     28  C   UNL     1      44.001 -18.594 -39.983  0.00  0.00    -0.097 C 
ATOM     29  C   UNL     1      44.249 -19.698 -39.248  0.00  0.00    -0.046 C 
BRANCH  29  30
ATOM     30  C   UNL     1      43.977 -21.067 -39.840  0.00  0.00    +0.100 C 
BRANCH  30  31
ATOM     31  O   UNL     1      45.136 -21.870 -39.701  0.00  0.00    -0.209 OA
BRANCH  31  32
ATOM     32  S   UNL     1      46.124 -22.000 -40.988  0.00  0.00    +0.239 S 
ATOM     33  O   UNL     1      47.197 -21.053 -40.693  0.00  0.00    -0.116 OA
ATOM     34  O   UNL     1      46.542 -23.399 -40.975  0.00  0.00    -0.116 OA
ATOM     35  O   UNL     1      45.284 -21.624 -42.121  0.00  0.00    -0.022 OA
ENDBRANCH  31  32
ENDBRANCH  30  31
ENDBRANCH  29  30
ENDBRANCH   1  29
BRANCH  15  36
ATOM     36  O   UNL     1      34.876 -17.378 -35.298  0.00  0.00    -0.210 OA
BRANCH  36  37
ATOM     37  S   UNL     1      33.265 -17.145 -35.147  0.00  0.00    +0.239 S 
ATOM     38  O   UNL     1      33.089 -16.806 -33.735  0.00  0.00    -0.116 OA
ATOM     39  O   UNL     1      32.688 -18.427 -35.536  0.00  0.00    -0.116 OA
ATOM     40  O   UNL     1      32.973 -16.047 -36.066  0.00  0.00    -0.022 OA
ENDBRANCH  36  37
ENDBRANCH  15  36
BRANCH  27  41
ATOM     41  O   UNL     1      45.034 -17.653 -33.264  0.00  0.00    -0.210 OA
BRANCH  41  42
ATOM     42  S   UNL     1      44.620 -17.179 -32.540  0.00  0.00    +0.239 S 
ATOM     43  O   UNL     1      45.897 -17.460 -31.831  0.00  0.00    -0.116 OA
ATOM     44  O   UNL     1      44.207 -16.706 -31.816  0.00  0.00    -0.116 OA
ATOM     45  O   UNL     1      44.568 -16.056 -33.510  0.00  0.00    -0.022 OA
ENDBRANCH  41  42
ENDBRANCH  27  41
TORSDOF 8
ENDMDL
MODEL 14
REMARK VINA RESULT:    -7.310     27.897     31.259
REMARK INTER + INTRA:         -11.338
REMARK INTER:                  -9.598
REMARK INTRA:                  -1.740
REMARK UNBOUND:                -0.610
REMARK  Name = cpd281.pdb
REMARK  14 active torsions:
REMARK  status: ('A' for Active; 'I' for Inactive)
REMARK    1  A    between atoms: C_2  and  C_3
REMARK    2  A    between atoms: C_2  and  C_9
REMARK    3  A    between atoms: C_3  and  O_4
REMARK    4  A    between atoms: O_4  and  S_5
REMARK    5  A    between atoms: C_12  and  C_13
REMARK    6  A    between atoms: C_19  and  C_20
REMARK    7  A    between atoms: C_23  and  O_24
REMARK    8  A    between atoms: O_24  and  S_25
REMARK    9  A    between atoms: C_29  and  C_30
REMARK   10  A    between atoms: C_29  and  C_31
REMARK   11  A    between atoms: C_35  and  C_36
REMARK   12  A    between atoms: C_37  and  C_38
REMARK   13  A    between atoms: C_40  and  O_41
REMARK   14  A    between atoms: O_41  and  S_42
REMARK                            x       y       z     vdW  Elec       q    Type
REMARK                         _______ _______ _______ _____ _____    ______ ____
ROOT
ATOM      1  C   UNL     1      46.652 -34.760 -56.710  0.00  0.00    -0.014 C 
ATOM      2  C   UNL     1      45.288 -34.322 -56.060  0.00  0.00    -0.046 C 
ATOM      3  C   UNL     1      45.547 -32.957 -55.330  0.00  0.00    -0.044 C 
ATOM      4  C   UNL     1      46.888 -32.494 -55.922  0.00  0.00    +0.000 C 
ATOM      5  C   UNL     1      46.512 -31.883 -57.308  0.00  0.00    -0.057 C 
ATOM      6  C   UNL     1      47.621 -33.896 -55.899  0.00  0.00    -0.023 C 
ATOM      7  C   UNL     1      49.180 -33.888 -55.900  0.00  0.00    -0.031 C 
ATOM      8  C   UNL     1      49.922 -35.164 -56.354  0.00  0.00    -0.049 C 
ATOM      9  C   UNL     1      51.474 -35.050 -56.266  0.00  0.00    -0.049 C 
ATOM     10  C   UNL     1      51.899 -33.962 -55.267  0.00  0.00    -0.029 C 
ATOM     11  C   UNL     1      53.366 -34.037 -54.647  0.00  0.00    -0.025 C 
ATOM     12  C   UNL     1      53.323 -35.218 -53.635  0.00  0.00    -0.059 C 
ATOM     13  C   UNL     1      54.484 -34.349 -55.668  0.00  0.00    -0.045 C 
ATOM     14  C   UNL     1      55.836 -33.664 -55.371  0.00  0.00    -0.023 C 
ATOM     15  C   UNL     1      56.179 -33.409 -53.887  0.00  0.00    +0.095 C 
ATOM     16  C   UNL     1      55.042 -32.652 -53.105  0.00  0.00    -0.003 C 
ATOM     17  C   UNL     1      54.864 -33.138 -51.652  0.00  0.00    -0.057 C 
ATOM     18  C   UNL     1      55.499 -31.163 -52.985  0.00  0.00    -0.057 C 
ATOM     19  C   UNL     1      53.716 -32.678 -53.942  0.00  0.00    -0.028 C 
ATOM     20  C   UNL     1      52.466 -32.067 -53.309  0.00  0.00    -0.049 C 
ATOM     21  C   UNL     1      51.413 -31.687 -54.379  0.00  0.00    -0.047 C 
ATOM     22  C   UNL     1      51.403 -32.532 -55.716  0.00  0.00    -0.023 C 
ATOM     23  C   UNL     1      52.335 -31.846 -56.754  0.00  0.00    -0.059 C 
ATOM     24  C   UNL     1      49.895 -32.609 -56.411  0.00  0.00    -0.021 C 
ATOM     25  C   UNL     1      49.963 -32.715 -57.969  0.00  0.00    -0.059 C 
ATOM     26  C   UNL     1      49.085 -31.323 -56.081  0.00  0.00    -0.018 C 
ATOM     27  C   UNL     1      47.803 -31.521 -55.157  0.00  0.00    +0.096 C 
ENDROOT
BRANCH   1  29
ATOM     28  C   UNL     1      46.918 -36.846 -58.020  0.00  0.00    -0.097 C 
ATOM     29  C   UNL     1      46.845 -36.256 -56.809  0.00  0.00    -0.046 C 
BRANCH  29  30
ATOM     30  C   UNL     1      46.943 -37.104 -55.556  0.00  0.00    +0.100 C 
BRANCH  30  31
ATOM     31  O   UNL     1      45.803 -37.942 -55.474  0.00  0.00    -0.209 OA
BRANCH  31  32
ATOM     32  S   UNL     1      44.814 -37.750 -54.195  0.00  0.00    +0.239 S 
ATOM     33  O   UNL     1      43.568 -37.277 -54.793  0.00  0.00    -0.116 OA
ATOM     34  O   UNL     1      44.727 -39.086 -53.611  0.00  0.00    -0.116 OA
ATOM     35  O   UNL     1      45.496 -36.763 -53.364  0.00  0.00    -0.022 OA
ENDBRANCH  31  32
ENDBRANCH  30  31
ENDBRANCH  29  30
ENDBRANCH   1  29
BRANCH  15  36
ATOM     36  O   UNL     1      56.526 -34.641 -53.272  0.00  0.00    -0.210 OA
BRANCH  36  37
ATOM     37  S   UNL     1      58.052 -34.824 -52.713  0.00  0.00    +0.239 S 
ATOM     38  O   UNL     1      58.220 -33.714 -51.777  0.00  0.00    -0.116 OA
ATOM     39  O   UNL     1      58.877 -34.732 -53.913  0.00  0.00    -0.116 OA
ATOM     40  O   UNL     1      58.048 -36.142 -52.083  0.00  0.00    -0.022 OA
ENDBRANCH  36  37
ENDBRANCH  15  36
BRANCH  27  41
ATOM     41  O   UNL     1      47.261 -30.240 -54.749  0.00  0.00    -0.210 OA
BRANCH  41  42
ATOM     42  S   UNL     1      47.767 -29.639 -54.199  0.00  0.00    +0.239 S 
ATOM     43  O   UNL     1      46.974 -28.586 -54.888  0.00  0.00    -0.116 OA
ATOM     44  O   UNL     1      48.272 -29.038 -53.648  0.00  0.00    -0.116 OA
ATOM     45  O   UNL     1      47.145 -30.390 -53.078  0.00  0.00    -0.022 OA
ENDBRANCH  41  42
ENDBRANCH  27  41
TORSDOF 8
ENDMDL
MODEL 15
REMARK VINA RESULT:    -7.299     18.162     19.856
REMARK INTER + INTRA:         -11.323
REMARK INTER:                  -9.692
REMARK INTRA:                  -1.631
REMARK UNBOUND:                -0.610
REMARK  Name = cpd281.pdb
REMARK  14 active torsions:
REMARK  status: ('A' for Active; 'I' for Inactive)
REMARK    1  A    between atoms: C_2  and  C_3
REMARK    2  A    between atoms: C_2  and  C_9
REMARK    3  A    between atoms: C_3  and  O_4
REMARK    4  A    between atoms: O_4  and  S_5
REMARK    5  A    between atoms: C_12  and  C_13
REMARK    6  A    between atoms: C_19  and  C_20
REMARK    7  A    between atoms: C_23  and  O_24
REMARK    8  A    between atoms: O_24  and  S_25
REMARK    9  A    between atoms: C_29  and  C_30
REMARK   10  A    between atoms: C_29  and  C_31
REMARK   11  A    between atoms: C_35  and  C_36
REMARK   12  A    between atoms: C_37  and  C_38
REMARK   13  A    between atoms: C_40  and  O_41
REMARK   14  A    between atoms: O_41  and  S_42
REMARK                            x       y       z     vdW  Elec       q    Type
REMARK                         _______ _______ _______ _____ _____    ______ ____
ROOT
ATOM      1  C   UNL     1      45.736 -19.381 -37.951  0.00  0.00    -0.014 C 
ATOM      2  C   UNL     1      47.041 -18.656 -37.452  0.00  0.00    -0.046 C 
ATOM      3  C   UNL     1      46.715 -18.048 -36.042  0.00  0.00    -0.044 C 
ATOM      4  C   UNL     1      45.424 -18.778 -35.638  0.00  0.00    +0.000 C 
ATOM      5  C   UNL     1      45.906 -20.169 -35.122  0.00  0.00    -0.057 C 
ATOM      6  C   UNL     1      44.699 -18.714 -37.044  0.00  0.00    -0.023 C 
ATOM      7  C   UNL     1      43.146 -18.840 -37.054  0.00  0.00    -0.031 C 
ATOM      8  C   UNL     1      42.451 -19.259 -38.368  0.00  0.00    -0.049 C 
ATOM      9  C   UNL     1      40.896 -19.305 -38.266  0.00  0.00    -0.049 C 
ATOM     10  C   UNL     1      40.386 -18.422 -37.116  0.00  0.00    -0.029 C 
ATOM     11  C   UNL     1      38.873 -17.918 -37.164  0.00  0.00    -0.025 C 
ATOM     12  C   UNL     1      38.842 -16.824 -38.271  0.00  0.00    -0.059 C 
ATOM     13  C   UNL     1      37.843 -19.000 -37.560  0.00  0.00    -0.045 C 
ATOM     14  C   UNL     1      36.468 -18.862 -36.872  0.00  0.00    -0.023 C 
ATOM     15  C   UNL     1      36.004 -17.432 -36.518  0.00  0.00    +0.095 C 
ATOM     16  C   UNL     1      37.070 -16.617 -35.694  0.00  0.00    -0.003 C 
ATOM     17  C   UNL     1      37.133 -15.124 -36.074  0.00  0.00    -0.057 C 
ATOM     18  C   UNL     1      36.596 -16.640 -34.206  0.00  0.00    -0.057 C 
ATOM     19  C   UNL     1      38.460 -17.341 -35.763  0.00  0.00    -0.028 C 
ATOM     20  C   UNL     1      39.651 -16.656 -35.094  0.00  0.00    -0.049 C 
ATOM     21  C   UNL     1      40.784 -17.662 -34.778  0.00  0.00    -0.047 C 
ATOM     22  C   UNL     1      40.907 -18.931 -35.715  0.00  0.00    -0.023 C 
ATOM     23  C   UNL     1      40.057 -20.087 -35.115  0.00  0.00    -0.059 C 
ATOM     24  C   UNL     1      42.466 -19.496 -35.823  0.00  0.00    -0.021 C 
ATOM     25  C   UNL     1      42.525 -21.043 -36.039  0.00  0.00    -0.059 C 
ATOM     26  C   UNL     1      43.239 -19.195 -34.507  0.00  0.00    -0.018 C 
ATOM     27  C   UNL     1      44.444 -18.160 -34.624  0.00  0.00    +0.096 C 
ENDROOT
BRANCH   1  29
ATOM     28  C   UNL     1      45.668 -18.238 -40.148  0.00  0.00    -0.097 C 
ATOM     29  C   UNL     1      45.561 -19.388 -39.453  0.00  0.00    -0.046 C 
BRANCH  29  30
ATOM     30  C   UNL     1      45.249 -20.679 -40.184  0.00  0.00    +0.100 C 
BRANCH  30  31
ATOM     31  O   UNL     1      46.238 -21.643 -39.866  0.00  0.00    -0.209 OA
BRANCH  31  32
ATOM     32  S   UNL     1      47.104 -22.271 -41.093  0.00  0.00    +0.239 S 
ATOM     33  O   UNL     1      48.132 -23.061 -40.419  0.00  0.00    -0.116 OA
ATOM     34  O   UNL     1      46.134 -23.067 -41.841  0.00  0.00    -0.116 OA
ATOM     35  O   UNL     1      47.613 -21.102 -41.804  0.00  0.00    -0.022 OA
ENDBRANCH  31  32
ENDBRANCH  30  31
ENDBRANCH  29  30
ENDBRANCH   1  29
BRANCH  15  36
ATOM     36  O   UNL     1      35.617 -16.761 -37.707  0.00  0.00    -0.210 OA
BRANCH  36  37
ATOM     37  S   UNL     1      34.040 -16.800 -38.138  0.00  0.00    +0.239 S 
ATOM     38  O   UNL     1      33.345 -17.158 -36.903  0.00  0.00    -0.116 OA
ATOM     39  O   UNL     1      33.987 -17.821 -39.178  0.00  0.00    -0.116 OA
ATOM     40  O   UNL     1      33.763 -15.444 -38.608  0.00  0.00    -0.022 OA
ENDBRANCH  36  37
ENDBRANCH  15  36
BRANCH  27  41
ATOM     41  O   UNL     1      44.943 -17.802 -33.311  0.00  0.00    -0.210 OA
BRANCH  41  42
ATOM     42  S   UNL     1      44.386 -17.353 -32.673  0.00  0.00    +0.239 S 
ATOM     43  O   UNL     1      45.218 -18.071 -31.672  0.00  0.00    -0.116 OA
ATOM     44  O   UNL     1      43.829 -16.904 -32.035  0.00  0.00    -0.116 OA
ATOM     45  O   UNL     1      44.923 -16.120 -33.304  0.00  0.00    -0.022 OA
ENDBRANCH  41  42
ENDBRANCH  27  41
TORSDOF 8
ENDMDL
MODEL 16
REMARK VINA RESULT:    -7.212     27.525     31.140
REMARK INTER + INTRA:         -11.195
REMARK INTER:                  -9.730
REMARK INTRA:                  -1.465
REMARK UNBOUND:                -0.610
REMARK  Name = cpd281.pdb
REMARK  14 active torsions:
REMARK  status: ('A' for Active; 'I' for Inactive)
REMARK    1  A    between atoms: C_2  and  C_3
REMARK    2  A    between atoms: C_2  and  C_9
REMARK    3  A    between atoms: C_3  and  O_4
REMARK    4  A    between atoms: O_4  and  S_5
REMARK    5  A    between atoms: C_12  and  C_13
REMARK    6  A    between atoms: C_19  and  C_20
REMARK    7  A    between atoms: C_23  and  O_24
REMARK    8  A    between atoms: O_24  and  S_25
REMARK    9  A    between atoms: C_29  and  C_30
REMARK   10  A    between atoms: C_29  and  C_31
REMARK   11  A    between atoms: C_35  and  C_36
REMARK   12  A    between atoms: C_37  and  C_38
REMARK   13  A    between atoms: C_40  and  O_41
REMARK   14  A    between atoms: O_41  and  S_42
REMARK                            x       y       z     vdW  Elec       q    Type
REMARK                         _______ _______ _______ _____ _____    ______ ____
ROOT
ATOM      1  C   UNL     1      46.327 -35.072 -55.572  0.00  0.00    -0.014 C 
ATOM      2  C   UNL     1      45.040 -34.493 -54.876  0.00  0.00    -0.046 C 
ATOM      3  C   UNL     1      45.397 -33.044 -54.390  0.00  0.00    -0.044 C 
ATOM      4  C   UNL     1      46.685 -32.723 -55.166  0.00  0.00    +0.000 C 
ATOM      5  C   UNL     1      46.193 -32.315 -56.589  0.00  0.00    -0.057 C 
ATOM      6  C   UNL     1      47.387 -34.131 -54.994  0.00  0.00    -0.023 C 
ATOM      7  C   UNL     1      48.938 -34.179 -55.137  0.00  0.00    -0.031 C 
ATOM      8  C   UNL     1      49.607 -35.535 -55.455  0.00  0.00    -0.049 C 
ATOM      9  C   UNL     1      51.162 -35.464 -55.526  0.00  0.00    -0.049 C 
ATOM     10  C   UNL     1      51.703 -34.254 -54.747  0.00  0.00    -0.029 C 
ATOM     11  C   UNL     1      53.220 -34.287 -54.258  0.00  0.00    -0.025 C 
ATOM     12  C   UNL     1      53.248 -35.300 -53.077  0.00  0.00    -0.059 C 
ATOM     13  C   UNL     1      54.230 -34.788 -55.316  0.00  0.00    -0.045 C 
ATOM     14  C   UNL     1      55.618 -34.115 -55.251  0.00  0.00    -0.023 C 
ATOM     15  C   UNL     1      56.105 -33.653 -53.861  0.00  0.00    +0.095 C 
ATOM     16  C   UNL     1      55.064 -32.746 -53.104  0.00  0.00    -0.003 C 
ATOM     17  C   UNL     1      55.014 -33.002 -51.584  0.00  0.00    -0.057 C 
ATOM     18  C   UNL     1      55.562 -31.273 -53.256  0.00  0.00    -0.057 C 
ATOM     19  C   UNL     1      53.664 -32.851 -53.805  0.00  0.00    -0.028 C 
ATOM     20  C   UNL     1      52.493 -32.107 -53.163  0.00  0.00    -0.049 C 
ATOM     21  C   UNL     1      51.352 -31.855 -54.178  0.00  0.00    -0.047 C 
ATOM     22  C   UNL     1      51.197 -32.891 -55.364  0.00  0.00    -0.023 C 
ATOM     23  C   UNL     1      52.042 -32.403 -56.575  0.00  0.00    -0.059 C 
ATOM     24  C   UNL     1      49.630 -33.018 -55.900  0.00  0.00    -0.021 C 
ATOM     25  C   UNL     1      49.547 -33.360 -57.423  0.00  0.00    -0.059 C 
ATOM     26  C   UNL     1      48.882 -31.669 -55.699  0.00  0.00    -0.018 C 
ATOM     27  C   UNL     1      47.689 -31.679 -54.645  0.00  0.00    +0.096 C 
ENDROOT
BRANCH   1  29
ATOM     28  C   UNL     1      46.815 -37.126 -54.275  0.00  0.00    -0.097 C 
ATOM     29  C   UNL     1      46.478 -36.572 -55.458  0.00  0.00    -0.046 C 
BRANCH  29  30
ATOM     30  C   UNL     1      46.268 -37.461 -56.668  0.00  0.00    +0.100 C 
BRANCH  30  31
ATOM     31  O   UNL     1      45.966 -38.775 -56.231  0.00  0.00    -0.209 OA
BRANCH  31  32
ATOM     32  S   UNL     1      46.726 -40.011 -56.969  0.00  0.00    +0.239 S 
ATOM     33  O   UNL     1      46.280 -39.908 -58.357  0.00  0.00    -0.116 OA
ATOM     34  O   UNL     1      48.144 -39.723 -56.774  0.00  0.00    -0.116 OA
ATOM     35  O   UNL     1      46.240 -41.196 -56.268  0.00  0.00    -0.022 OA
ENDBRANCH  31  32
ENDBRANCH  30  31
ENDBRANCH  29  30
ENDBRANCH   1  29
BRANCH  15  36
ATOM     36  O   UNL     1      56.483 -34.790 -53.098  0.00  0.00    -0.210 OA
BRANCH  36  37
ATOM     37  S   UNL     1      58.057 -34.963 -52.696  0.00  0.00    +0.239 S 
ATOM     38  O   UNL     1      58.765 -34.823 -53.968  0.00  0.00    -0.116 OA
ATOM     39  O   UNL     1      58.125 -36.298 -52.112  0.00  0.00    -0.116 OA
ATOM     40  O   UNL     1      58.308 -33.877 -51.750  0.00  0.00    -0.022 OA
ENDBRANCH  36  37
ENDBRANCH  15  36
BRANCH  27  41
ATOM     41  O   UNL     1      47.216 -30.333 -54.390  0.00  0.00    -0.210 OA
BRANCH  41  42
ATOM     42  S   UNL     1      47.787 -29.672 -53.994  0.00  0.00    +0.239 S 
ATOM     43  O   UNL     1      47.042 -28.728 -54.869  0.00  0.00    -0.116 OA
ATOM     44  O   UNL     1      48.358 -29.011 -53.598  0.00  0.00    -0.116 OA
ATOM     45  O   UNL     1      47.163 -30.120 -52.722  0.00  0.00    -0.022 OA
ENDBRANCH  41  42
ENDBRANCH  27  41
TORSDOF 8
ENDMDL
MODEL 17
REMARK VINA RESULT:    -7.073     26.603     28.983
REMARK INTER + INTRA:         -10.990
REMARK INTER:                  -9.055
REMARK INTRA:                  -1.936
REMARK UNBOUND:                -0.610
REMARK  Name = cpd281.pdb
REMARK  14 active torsions:
REMARK  status: ('A' for Active; 'I' for Inactive)
REMARK    1  A    between atoms: C_2  and  C_3
REMARK    2  A    between atoms: C_2  and  C_9
REMARK    3  A    between atoms: C_3  and  O_4
REMARK    4  A    between atoms: O_4  and  S_5
REMARK    5  A    between atoms: C_12  and  C_13
REMARK    6  A    between atoms: C_19  and  C_20
REMARK    7  A    between atoms: C_23  and  O_24
REMARK    8  A    between atoms: O_24  and  S_25
REMARK    9  A    between atoms: C_29  and  C_30
REMARK   10  A    between atoms: C_29  and  C_31
REMARK   11  A    between atoms: C_35  and  C_36
REMARK   12  A    between atoms: C_37  and  C_38
REMARK   13  A    between atoms: C_40  and  O_41
REMARK   14  A    between atoms: O_41  and  S_42
REMARK                            x       y       z     vdW  Elec       q    Type
REMARK                         _______ _______ _______ _____ _____    ______ ____
ROOT
ATOM      1  C   UNL     1      55.589 -35.364 -51.627  0.00  0.00    -0.014 C 
ATOM      2  C   UNL     1      56.015 -35.342 -50.112  0.00  0.00    -0.046 C 
ATOM      3  C   UNL     1      54.923 -36.143 -49.320  0.00  0.00    -0.044 C 
ATOM      4  C   UNL     1      54.176 -36.905 -50.427  0.00  0.00    +0.000 C 
ATOM      5  C   UNL     1      55.092 -38.126 -50.747  0.00  0.00    -0.057 C 
ATOM      6  C   UNL     1      54.109 -35.726 -51.482  0.00  0.00    -0.023 C 
ATOM      7  C   UNL     1      52.996 -35.802 -52.570  0.00  0.00    -0.031 C 
ATOM      8  C   UNL     1      53.175 -34.978 -53.864  0.00  0.00    -0.049 C 
ATOM      9  C   UNL     1      51.976 -35.098 -54.853  0.00  0.00    -0.049 C 
ATOM     10  C   UNL     1      50.693 -35.530 -54.125  0.00  0.00    -0.029 C 
ATOM     11  C   UNL     1      49.290 -35.210 -54.813  0.00  0.00    -0.025 C 
ATOM     12  C   UNL     1      49.094 -33.675 -54.648  0.00  0.00    -0.059 C 
ATOM     13  C   UNL     1      49.226 -35.521 -56.326  0.00  0.00    -0.045 C 
ATOM     14  C   UNL     1      47.850 -36.013 -56.825  0.00  0.00    -0.023 C 
ATOM     15  C   UNL     1      46.606 -35.478 -56.081  0.00  0.00    +0.095 C 
ATOM     16  C   UNL     1      46.681 -35.671 -54.521  0.00  0.00    -0.003 C 
ATOM     17  C   UNL     1      46.077 -34.496 -53.725  0.00  0.00    -0.057 C 
ATOM     18  C   UNL     1      45.781 -36.902 -54.180  0.00  0.00    -0.057 C 
ATOM     19  C   UNL     1      48.151 -36.023 -54.101  0.00  0.00    -0.028 C 
ATOM     20  C   UNL     1      48.447 -36.163 -52.608  0.00  0.00    -0.049 C 
ATOM     21  C   UNL     1      49.729 -36.995 -52.357  0.00  0.00    -0.047 C 
ATOM     22  C   UNL     1      50.843 -36.963 -53.480  0.00  0.00    -0.023 C 
ATOM     23  C   UNL     1      50.587 -38.127 -54.478  0.00  0.00    -0.059 C 
ATOM     24  C   UNL     1      52.371 -37.190 -52.868  0.00  0.00    -0.021 C 
ATOM     25  C   UNL     1      53.318 -37.909 -53.884  0.00  0.00    -0.059 C 
ATOM     26  C   UNL     1      52.314 -38.084 -51.596  0.00  0.00    -0.018 C 
ATOM     27  C   UNL     1      52.726 -37.381 -50.228  0.00  0.00    +0.096 C 
ENDROOT
BRANCH   1  29
ATOM     28  C   UNL     1      56.807 -34.285 -53.496  0.00  0.00    -0.097 C 
ATOM     29  C   UNL     1      56.015 -34.145 -52.414  0.00  0.00    -0.046 C 
BRANCH  29  30
ATOM     30  C   UNL     1      55.571 -32.760 -51.986  0.00  0.00    +0.100 C 
BRANCH  30  31
ATOM     31  O   UNL     1      55.746 -31.862 -53.068  0.00  0.00    -0.209 OA
BRANCH  31  32
ATOM     32  S   UNL     1      54.411 -31.225 -53.747  0.00  0.00    +0.239 S 
ATOM     33  O   UNL     1      53.334 -31.661 -52.860  0.00  0.00    -0.116 OA
ATOM     34  O   UNL     1      54.655 -29.786 -53.728  0.00  0.00    -0.116 OA
ATOM     35  O   UNL     1      54.372 -31.820 -55.079  0.00  0.00    -0.022 OA
ENDBRANCH  31  32
ENDBRANCH  30  31
ENDBRANCH  29  30
ENDBRANCH   1  29
BRANCH  15  36
ATOM     36  O   UNL     1      46.394 -34.122 -56.446  0.00  0.00    -0.210 OA
BRANCH  36  37
ATOM     37  S   UNL     1      45.009 -33.739 -57.227  0.00  0.00    +0.239 S 
ATOM     38  O   UNL     1      44.994 -32.277 -57.223  0.00  0.00    -0.116 OA
ATOM     39  O   UNL     1      43.967 -34.356 -56.414  0.00  0.00    -0.116 OA
ATOM     40  O   UNL     1      45.170 -34.331 -58.553  0.00  0.00    -0.022 OA
ENDBRANCH  36  37
ENDBRANCH  15  36
BRANCH  27  41
ATOM     41  O   UNL     1      52.431 -38.241 -49.099  0.00  0.00    -0.210 OA
BRANCH  41  42
ATOM     42  S   UNL     1      51.527 -38.446 -48.853  0.00  0.00    +0.239 S 
ATOM     43  O   UNL     1      52.123 -39.690 -48.298  0.00  0.00    -0.116 OA
ATOM     44  O   UNL     1      50.623 -38.650 -48.607  0.00  0.00    -0.116 OA
ATOM     45  O   UNL     1      51.621 -37.189 -48.066  0.00  0.00    -0.022 OA
ENDBRANCH  41  42
ENDBRANCH  27  41
TORSDOF 8
ENDMDL
MODEL 18
REMARK VINA RESULT:    -7.055     22.455     25.472
REMARK INTER + INTRA:         -10.965
REMARK INTER:                  -9.278
REMARK INTRA:                  -1.687
REMARK UNBOUND:                -0.610
REMARK  Name = cpd281.pdb
REMARK  14 active torsions:
REMARK  status: ('A' for Active; 'I' for Inactive)
REMARK    1  A    between atoms: C_2  and  C_3
REMARK    2  A    between atoms: C_2  and  C_9
REMARK    3  A    between atoms: C_3  and  O_4
REMARK    4  A    between atoms: O_4  and  S_5
REMARK    5  A    between atoms: C_12  and  C_13
REMARK    6  A    between atoms: C_19  and  C_20
REMARK    7  A    between atoms: C_23  and  O_24
REMARK    8  A    between atoms: O_24  and  S_25
REMARK    9  A    between atoms: C_29  and  C_30
REMARK   10  A    between atoms: C_29  and  C_31
REMARK   11  A    between atoms: C_35  and  C_36
REMARK   12  A    between atoms: C_37  and  C_38
REMARK   13  A    between atoms: C_40  and  O_41
REMARK   14  A    between atoms: O_41  and  S_42
REMARK                            x       y       z     vdW  Elec       q    Type
REMARK                         _______ _______ _______ _____ _____    ______ ____
ROOT
ATOM      1  C   UNL     1      43.926 -19.772 -38.593  0.00  0.00    -0.014 C 
ATOM      2  C   UNL     1      43.130 -20.143 -37.287  0.00  0.00    -0.046 C 
ATOM      3  C   UNL     1      42.522 -18.808 -36.729  0.00  0.00    -0.044 C 
ATOM      4  C   UNL     1      42.649 -17.843 -37.919  0.00  0.00    +0.000 C 
ATOM      5  C   UNL     1      41.449 -18.207 -38.847  0.00  0.00    -0.057 C 
ATOM      6  C   UNL     1      44.103 -18.267 -38.378  0.00  0.00    -0.023 C 
ATOM      7  C   UNL     1      44.919 -17.236 -39.214  0.00  0.00    -0.031 C 
ATOM      8  C   UNL     1      46.096 -17.751 -40.071  0.00  0.00    -0.049 C 
ATOM      9  C   UNL     1      46.863 -16.621 -40.823  0.00  0.00    -0.049 C 
ATOM     10  C   UNL     1      46.657 -15.258 -40.143  0.00  0.00    -0.029 C 
ATOM     11  C   UNL     1      47.730 -14.109 -40.413  0.00  0.00    -0.025 C 
ATOM     12  C   UNL     1      48.993 -14.532 -39.609  0.00  0.00    -0.059 C 
ATOM     13  C   UNL     1      48.156 -13.956 -41.891  0.00  0.00    -0.045 C 
ATOM     14  C   UNL     1      48.469 -12.508 -42.325  0.00  0.00    -0.023 C 
ATOM     15  C   UNL     1      49.037 -11.562 -41.244  0.00  0.00    +0.095 C 
ATOM     16  C   UNL     1      48.171 -11.525 -39.929  0.00  0.00    -0.003 C 
ATOM     17  C   UNL     1      49.011 -11.419 -38.641  0.00  0.00    -0.057 C 
ATOM     18  C   UNL     1      47.336 -10.206 -39.984  0.00  0.00    -0.057 C 
ATOM     19  C   UNL     1      47.164 -12.728 -39.925  0.00  0.00    -0.028 C 
ATOM     20  C   UNL     1      46.291 -12.916 -38.685  0.00  0.00    -0.049 C 
ATOM     21  C   UNL     1      45.031 -13.760 -38.997  0.00  0.00    -0.047 C 
ATOM     22  C   UNL     1      45.141 -14.817 -40.169  0.00  0.00    -0.023 C 
ATOM     23  C   UNL     1      44.710 -14.142 -41.501  0.00  0.00    -0.059 C 
ATOM     24  C   UNL     1      44.132 -16.119 -39.950  0.00  0.00    -0.021 C 
ATOM     25  C   UNL     1      43.639 -16.725 -41.305  0.00  0.00    -0.059 C 
ATOM     26  C   UNL     1      42.863 -15.689 -39.160  0.00  0.00    -0.018 C 
ATOM     27  C   UNL     1      42.696 -16.319 -37.707  0.00  0.00    +0.096 C 
ENDROOT
BRANCH   1  29
ATOM     28  C   UNL     1      46.105 -20.766 -37.957  0.00  0.00    -0.097 C 
ATOM     29  C   UNL     1      45.118 -20.660 -38.871  0.00  0.00    -0.046 C 
BRANCH  29  30
ATOM     30  C   UNL     1      45.222 -21.423 -40.177  0.00  0.00    +0.100 C 
BRANCH  30  31
ATOM     31  O   UNL     1      46.310 -22.328 -40.100  0.00  0.00    -0.209 OA
BRANCH  31  32
ATOM     32  S   UNL     1      47.180 -22.582 -41.452  0.00  0.00    +0.239 S 
ATOM     33  O   UNL     1      46.204 -23.132 -42.390  0.00  0.00    -0.116 OA
ATOM     34  O   UNL     1      47.671 -21.255 -41.812  0.00  0.00    -0.116 OA
ATOM     35  O   UNL     1      48.214 -23.525 -41.037  0.00  0.00    -0.022 OA
ENDBRANCH  31  32
ENDBRANCH  30  31
ENDBRANCH  29  30
ENDBRANCH   1  29
BRANCH  15  36
ATOM     36  O   UNL     1      50.390 -11.910 -40.987  0.00  0.00    -0.210 OA
BRANCH  36  37
ATOM     37  S   UNL     1      51.555 -10.842 -41.404  0.00  0.00    +0.239 S 
ATOM     38  O   UNL     1      50.945  -9.538 -41.153  0.00  0.00    -0.116 OA
ATOM     39  O   UNL     1      51.806 -11.130 -42.812  0.00  0.00    -0.116 OA
ATOM     40  O   UNL     1      52.670 -11.162 -40.515  0.00  0.00    -0.022 OA
ENDBRANCH  36  37
ENDBRANCH  15  36
BRANCH  27  41
ATOM     41  O   UNL     1      41.604 -15.687 -36.995  0.00  0.00    -0.210 OA
BRANCH  41  42
ATOM     42  S   UNL     1      41.650 -14.766 -36.730  0.00  0.00    +0.239 S 
ATOM     43  O   UNL     1      40.178 -14.793 -36.938  0.00  0.00    -0.116 OA
ATOM     44  O   UNL     1      41.696 -13.846 -36.465  0.00  0.00    -0.116 OA
ATOM     45  O   UNL     1      42.209 -15.319 -35.469  0.00  0.00    -0.022 OA
ENDBRANCH  41  42
ENDBRANCH  27  41
TORSDOF 8
ENDMDL
MODEL 19
REMARK VINA RESULT:    -7.014     26.282     30.349
REMARK INTER + INTRA:         -10.903
REMARK INTER:                  -9.102
REMARK INTRA:                  -1.801
REMARK UNBOUND:                -0.610
REMARK  Name = cpd281.pdb
REMARK  14 active torsions:
REMARK  status: ('A' for Active; 'I' for Inactive)
REMARK    1  A    between atoms: C_2  and  C_3
REMARK    2  A    between atoms: C_2  and  C_9
REMARK    3  A    between atoms: C_3  and  O_4
REMARK    4  A    between atoms: O_4  and  S_5
REMARK    5  A    between atoms: C_12  and  C_13
REMARK    6  A    between atoms: C_19  and  C_20
REMARK    7  A    between atoms: C_23  and  O_24
REMARK    8  A    between atoms: O_24  and  S_25
REMARK    9  A    between atoms: C_29  and  C_30
REMARK   10  A    between atoms: C_29  and  C_31
REMARK   11  A    between atoms: C_35  and  C_36
REMARK   12  A    between atoms: C_37  and  C_38
REMARK   13  A    between atoms: C_40  and  O_41
REMARK   14  A    between atoms: O_41  and  S_42
REMARK                            x       y       z     vdW  Elec       q    Type
REMARK                         _______ _______ _______ _____ _____    ______ ____
ROOT
ATOM      1  C   UNL     1      58.167 -50.546 -45.473  0.00  0.00    -0.014 C 
ATOM      2  C   UNL     1      59.540 -50.777 -46.207  0.00  0.00    -0.046 C 
ATOM      3  C   UNL     1      59.712 -49.602 -47.233  0.00  0.00    -0.044 C 
ATOM      4  C   UNL     1      58.670 -48.574 -46.764  0.00  0.00    +0.000 C 
ATOM      5  C   UNL     1      59.348 -47.854 -45.557  0.00  0.00    -0.057 C 
ATOM      6  C   UNL     1      57.495 -49.591 -46.462  0.00  0.00    -0.023 C 
ATOM      7  C   UNL     1      56.042 -49.026 -46.463  0.00  0.00    -0.031 C 
ATOM      8  C   UNL     1      54.943 -49.823 -45.726  0.00  0.00    -0.049 C 
ATOM      9  C   UNL     1      53.526 -49.183 -45.837  0.00  0.00    -0.049 C 
ATOM     10  C   UNL     1      53.425 -48.259 -47.062  0.00  0.00    -0.029 C 
ATOM     11  C   UNL     1      51.977 -47.936 -47.648  0.00  0.00    -0.025 C 
ATOM     12  C   UNL     1      51.523 -49.244 -48.359  0.00  0.00    -0.059 C 
ATOM     13  C   UNL     1      50.909 -47.599 -46.582  0.00  0.00    -0.045 C 
ATOM     14  C   UNL     1      49.860 -46.558 -47.029  0.00  0.00    -0.023 C 
ATOM     15  C   UNL     1      49.505 -46.525 -48.532  0.00  0.00    +0.095 C 
ATOM     16  C   UNL     1      50.766 -46.413 -49.468  0.00  0.00    -0.003 C 
ATOM     17  C   UNL     1      50.643 -47.232 -50.769  0.00  0.00    -0.057 C 
ATOM     18  C   UNL     1      50.847 -44.922 -49.930  0.00  0.00    -0.057 C 
ATOM     19  C   UNL     1      52.064 -46.729 -48.648  0.00  0.00    -0.028 C 
ATOM     20  C   UNL     1      53.392 -46.758 -49.405  0.00  0.00    -0.049 C 
ATOM     21  C   UNL     1      54.596 -46.557 -48.452  0.00  0.00    -0.047 C 
ATOM     22  C   UNL     1      54.422 -47.040 -46.955  0.00  0.00    -0.023 C 
ATOM     23  C   UNL     1      53.876 -45.859 -46.104  0.00  0.00    -0.059 C 
ATOM     24  C   UNL     1      55.861 -47.498 -46.262  0.00  0.00    -0.021 C 
ATOM     25  C   UNL     1      55.890 -47.233 -44.721  0.00  0.00    -0.059 C 
ATOM     26  C   UNL     1      57.038 -46.690 -46.880  0.00  0.00    -0.018 C 
ATOM     27  C   UNL     1      58.090 -47.528 -47.733  0.00  0.00    +0.096 C 
ENDROOT
BRANCH   1  29
ATOM     28  C   UNL     1      57.180 -52.772 -45.935  0.00  0.00    -0.097 C 
ATOM     29  C   UNL     1      57.474 -51.816 -45.030  0.00  0.00    -0.046 C 
BRANCH  29  30
ATOM     30  C   UNL     1      57.094 -52.017 -43.577  0.00  0.00    +0.100 C 
BRANCH  30  31
ATOM     31  O   UNL     1      58.229 -51.780 -42.763  0.00  0.00    -0.209 OA
BRANCH  31  32
ATOM     32  S   UNL     1      59.126 -53.065 -42.321  0.00  0.00    +0.239 S 
ATOM     33  O   UNL     1      60.353 -52.909 -43.098  0.00  0.00    -0.116 OA
ATOM     34  O   UNL     1      59.303 -52.895 -40.882  0.00  0.00    -0.116 OA
ATOM     35  O   UNL     1      58.312 -54.214 -42.705  0.00  0.00    -0.022 OA
ENDBRANCH  31  32
ENDBRANCH  30  31
ENDBRANCH  29  30
ENDBRANCH   1  29
BRANCH  15  36
ATOM     36  O   UNL     1      48.702 -47.653 -48.845  0.00  0.00    -0.210 OA
BRANCH  36  37
ATOM     37  S   UNL     1      47.165 -47.395 -49.339  0.00  0.00    +0.239 S 
ATOM     38  O   UNL     1      47.063 -48.153 -50.585  0.00  0.00    -0.116 OA
ATOM     39  O   UNL     1      47.090 -45.948 -49.506  0.00  0.00    -0.116 OA
ATOM     40  O   UNL     1      46.344 -47.921 -48.251  0.00  0.00    -0.022 OA
ENDBRANCH  36  37
ENDBRANCH  15  36
BRANCH  27  41
ATOM     41  O   UNL     1      59.008 -46.646 -48.427  0.00  0.00    -0.210 OA
BRANCH  41  42
ATOM     42  S   UNL     1      58.723 -46.126 -49.181  0.00  0.00    +0.239 S 
ATOM     43  O   UNL     1      59.741 -45.155 -48.699  0.00  0.00    -0.116 OA
ATOM     44  O   UNL     1      58.438 -45.606 -49.935  0.00  0.00    -0.116 OA
ATOM     45  O   UNL     1      59.169 -47.306 -49.966  0.00  0.00    -0.022 OA
ENDBRANCH  41  42
ENDBRANCH  27  41
TORSDOF 8
ENDMDL
MODEL 20
REMARK VINA RESULT:    -6.851     26.575     29.612
REMARK INTER + INTRA:         -10.664
REMARK INTER:                  -9.021
REMARK INTRA:                  -1.643
REMARK UNBOUND:                -0.610
REMARK  Name = cpd281.pdb
REMARK  14 active torsions:
REMARK  status: ('A' for Active; 'I' for Inactive)
REMARK    1  A    between atoms: C_2  and  C_3
REMARK    2  A    between atoms: C_2  and  C_9
REMARK    3  A    between atoms: C_3  and  O_4
REMARK    4  A    between atoms: O_4  and  S_5
REMARK    5  A    between atoms: C_12  and  C_13
REMARK    6  A    between atoms: C_19  and  C_20
REMARK    7  A    between atoms: C_23  and  O_24
REMARK    8  A    between atoms: O_24  and  S_25
REMARK    9  A    between atoms: C_29  and  C_30
REMARK   10  A    between atoms: C_29  and  C_31
REMARK   11  A    between atoms: C_35  and  C_36
REMARK   12  A    between atoms: C_37  and  C_38
REMARK   13  A    between atoms: C_40  and  O_41
REMARK   14  A    between atoms: O_41  and  S_42
REMARK                            x       y       z     vdW  Elec       q    Type
REMARK                         _______ _______ _______ _____ _____    ______ ____
ROOT
ATOM      1  C   UNL     1      56.635 -50.592 -44.670  0.00  0.00    -0.014 C 
ATOM      2  C   UNL     1      58.093 -50.972 -45.124  0.00  0.00    -0.046 C 
ATOM      3  C   UNL     1      58.516 -49.933 -46.220  0.00  0.00    -0.044 C 
ATOM      4  C   UNL     1      57.482 -48.808 -46.050  0.00  0.00    +0.000 C 
ATOM      5  C   UNL     1      57.994 -47.988 -44.826  0.00  0.00    -0.057 C 
ATOM      6  C   UNL     1      56.206 -49.724 -45.855  0.00  0.00    -0.023 C 
ATOM      7  C   UNL     1      54.817 -49.093 -46.169  0.00  0.00    -0.031 C 
ATOM      8  C   UNL     1      53.557 -49.745 -45.557  0.00  0.00    -0.049 C 
ATOM      9  C   UNL     1      52.226 -49.054 -45.981  0.00  0.00    -0.049 C 
ATOM     10  C   UNL     1      52.396 -48.272 -47.294  0.00  0.00    -0.029 C 
ATOM     11  C   UNL     1      51.093 -47.947 -48.155  0.00  0.00    -0.025 C 
ATOM     12  C   UNL     1      50.678 -49.304 -48.794  0.00  0.00    -0.059 C 
ATOM     13  C   UNL     1      49.886 -47.439 -47.334  0.00  0.00    -0.045 C 
ATOM     14  C   UNL     1      49.001 -46.405 -48.064  0.00  0.00    -0.023 C 
ATOM     15  C   UNL     1      48.908 -46.527 -49.601  0.00  0.00    +0.095 C 
ATOM     16  C   UNL     1      50.314 -46.585 -50.308  0.00  0.00    -0.003 C 
ATOM     17  C   UNL     1      50.356 -47.540 -51.518  0.00  0.00    -0.057 C 
ATOM     18  C   UNL     1      50.572 -45.162 -50.901  0.00  0.00    -0.057 C 
ATOM     19  C   UNL     1      51.430 -46.869 -49.244  0.00  0.00    -0.028 C 
ATOM     20  C   UNL     1      52.862 -47.048 -49.750  0.00  0.00    -0.049 C 
ATOM     21  C   UNL     1      53.899 -46.800 -48.627  0.00  0.00    -0.047 C 
ATOM     22  C   UNL     1      53.442 -47.099 -47.142  0.00  0.00    -0.023 C 
ATOM     23  C   UNL     1      52.842 -45.803 -46.528  0.00  0.00    -0.059 C 
ATOM     24  C   UNL     1      54.708 -47.545 -46.164  0.00  0.00    -0.021 C 
ATOM     25  C   UNL     1      54.495 -47.107 -44.678  0.00  0.00    -0.059 C 
ATOM     26  C   UNL     1      56.025 -46.872 -46.647  0.00  0.00    -0.018 C 
ATOM     27  C   UNL     1      57.146 -47.852 -47.210  0.00  0.00    +0.096 C 
ENDROOT
BRANCH   1  29
ATOM     28  C   UNL     1      55.552 -52.783 -45.079  0.00  0.00    -0.097 C 
ATOM     29  C   UNL     1      55.793 -51.767 -44.225  0.00  0.00    -0.046 C 
BRANCH  29  30
ATOM     30  C   UNL     1      55.203 -51.806 -42.829  0.00  0.00    +0.100 C 
BRANCH  30  31
ATOM     31  O   UNL     1      55.284 -53.130 -42.329  0.00  0.00    -0.209 OA
BRANCH  31  32
ATOM     32  S   UNL     1      53.950 -53.762 -41.642  0.00  0.00    +0.239 S 
ATOM     33  O   UNL     1      54.479 -54.773 -40.730  0.00  0.00    -0.116 OA
ATOM     34  O   UNL     1      53.322 -52.625 -40.975  0.00  0.00    -0.116 OA
ATOM     35  O   UNL     1      53.194 -54.304 -42.768  0.00  0.00    -0.022 OA
ENDBRANCH  31  32
ENDBRANCH  30  31
ENDBRANCH  29  30
ENDBRANCH   1  29
BRANCH  15  36
ATOM     36  O   UNL     1      48.094 -47.643 -49.930  0.00  0.00    -0.210 OA
BRANCH  36  37
ATOM     37  S   UNL     1      46.637 -47.361 -50.615  0.00  0.00    +0.239 S 
ATOM     38  O   UNL     1      46.420 -45.930 -50.409  0.00  0.00    -0.116 OA
ATOM     39  O   UNL     1      45.727 -48.223 -49.868  0.00  0.00    -0.116 OA
ATOM     40  O   UNL     1      46.818 -47.743 -52.014  0.00  0.00    -0.022 OA
ENDBRANCH  36  37
ENDBRANCH  15  36
BRANCH  27  41
ATOM     41  O   UNL     1      58.226 -47.102 -47.820  0.00  0.00    -0.210 OA
BRANCH  41  42
ATOM     42  S   UNL     1      58.093 -46.612 -48.634  0.00  0.00    +0.239 S 
ATOM     43  O   UNL     1      59.038 -45.641 -48.022  0.00  0.00    -0.116 OA
ATOM     44  O   UNL     1      57.960 -46.123 -49.448  0.00  0.00    -0.116 OA
ATOM     45  O   UNL     1      58.635 -47.837 -49.277  0.00  0.00    -0.022 OA
ENDBRANCH  41  42
ENDBRANCH  27  41
TORSDOF 8
ENDMDL
