REMARK  Name = cpd79.pdb
REMARK  16 active torsions:
REMARK  status: ('A' for Active; 'I' for Inactive)
REMARK    1  A    between atoms: C_1  and  O_2
REMARK    2  A    between atoms: O_2  and  C_3
REMARK    3  A    between atoms: C_5  and  C_6
REMARK    4  A    between atoms: N_8  and  C_9
REMARK    5  A    between atoms: C_9  and  C_10
REMARK    6  A    between atoms: C_10  and  C_11
REMARK    7  A    between atoms: C_11  and  C_12
REMARK    8  A    between atoms: C_12  and  C_13
REMARK    9  A    between atoms: C_13  and  C_14
REMARK   10  A    between atoms: C_14  and  C_15
REMARK   11  A    between atoms: N_17  and  N_18
REMARK   12  A    between atoms: N_18  and  C_19
REMARK   13  A    between atoms: C_34  and  O_35
REMARK   14  A    between atoms: O_35  and  C_36
REMARK   15  A    between atoms: C_37  and  O_38
REMARK   16  A    between atoms: O_38  and  C_39
REMARK                            x       y       z     vdW  Elec       q    Type
REMARK                         _______ _______ _______ _____ _____    ______ ____
ROOT
ATOM      1  C   UNL A   1      -6.468   4.958   0.296  0.00  0.00    -0.045 C 
ENDROOT
BRANCH   1   2
ATOM      2  C   UNL A   1      -5.188   4.350  -0.278  0.00  0.00    -0.053 C 
BRANCH   2   3
ATOM      3  C   UNL A   1      -4.868   3.025   0.419  0.00  0.00    -0.052 C 
BRANCH   3   4
ATOM      4  C   UNL A   1      -3.566   2.406  -0.088  0.00  0.00    -0.037 C 
BRANCH   4   5
ATOM      5  C   UNL A   1      -3.308   1.063   0.592  0.00  0.00    +0.012 C 
BRANCH   5   8
ATOM      6  C   UNL A   1      -0.863   0.826   0.772  0.00  0.00    +0.244 C 
ATOM      7  O   UNL A   1      -0.770   1.659   1.665  0.00  0.00    -0.270 OA
ATOM      8  N   UNL A   1      -2.055   0.471   0.175  0.00  0.00    -0.311 N 
ATOM      9  H   UNL A   1      -2.053  -0.197  -0.548  0.00  0.00    +0.000 HD
BRANCH   6  12
ATOM     10  C   UNL A   1       1.489  -1.775  -0.673  0.00  0.00    +0.166 A 
ATOM     11  C   UNL A   1       0.322  -1.169  -0.207  0.00  0.00    -0.004 A 
ATOM     12  C   UNL A   1       0.358   0.156   0.251  0.00  0.00    +0.044 A 
ATOM     13  C   UNL A   1       1.561   0.875   0.268  0.00  0.00    -0.004 A 
ATOM     14  C   UNL A   1       2.736   0.286  -0.198  0.00  0.00    +0.166 A 
ATOM     15  C   UNL A   1       2.691  -1.043  -0.655  0.00  0.00    +0.204 A 
BRANCH  10  17
ATOM     16  C   UNL A   1       0.375  -3.826  -1.192  0.00  0.00    +0.079 C 
ATOM     17  O   UNL A   1       1.571  -3.060  -1.144  0.00  0.00    -0.491 OA
ENDBRANCH  10  17
BRANCH  14  18
ATOM     18  O   UNL A   1       3.959   0.904  -0.240  0.00  0.00    -0.491 OA
ATOM     19  C   UNL A   1       4.026   2.256   0.192  0.00  0.00    +0.079 C 
ENDBRANCH  14  18
BRANCH  15  20
ATOM     20  O   UNL A   1       3.835  -1.623  -1.159  0.00  0.00    -0.488 OA
ATOM     21  C   UNL A   1       4.556  -2.265  -0.108  0.00  0.00    +0.079 C 
ENDBRANCH  15  20
ENDBRANCH   6  12
ENDBRANCH   5   8
ENDBRANCH   4   5
ENDBRANCH   3   4
ENDBRANCH   2   3
ENDBRANCH   1   2
BRANCH   1  22
ATOM     22  C   UNL A   1      -6.881   6.234  -0.436  0.00  0.00    +0.025 C 
BRANCH  22  23
ATOM     23  C   UNL A   1      -8.053   6.910   0.248  0.00  0.00    +0.229 C 
ATOM     24  O   UNL A   1      -7.988   8.045   0.716  0.00  0.00    -0.274 OA
ATOM     25  N   UNL A   1      -9.206   6.147   0.277  0.00  0.00    -0.236 N 
ATOM     26  H   UNL A   1      -9.323   5.364  -0.308  0.00  0.00    +0.000 HD
BRANCH  25  27
ATOM     27  N   UNL A   1     -10.210   6.549   1.191  0.00  0.00    -0.264 N 
ATOM     28  H   UNL A   1     -10.042   7.014   2.042  0.00  0.00    +0.000 HD
BRANCH  27  29
ATOM     29  C   UNL A   1     -11.500   6.183   0.701  0.00  0.00    +0.058 A 
ATOM     30  C   UNL A   1     -12.289   7.106  -0.014  0.00  0.00    -0.003 A 
ATOM     31  C   UNL A   1     -13.517   6.657  -0.504  0.00  0.00    +0.047 A 
ATOM     32  N   UNL A   1     -13.944   5.377  -0.378  0.00  0.00    -0.251 NA
ATOM     33  C   UNL A   1     -13.182   4.496   0.282  0.00  0.00    +0.073 A 
ATOM     34  C   UNL A   1     -13.638   3.189   0.403  0.00  0.00    -0.036 A 
ATOM     35  C   UNL A   1     -12.913   2.211   1.087  0.00  0.00    -0.060 A 
ATOM     36  C   UNL A   1     -11.702   2.543   1.677  0.00  0.00    -0.061 A 
ATOM     37  C   UNL A   1     -11.225   3.847   1.566  0.00  0.00    -0.051 A 
ATOM     38  C   UNL A   1     -11.945   4.840   0.855  0.00  0.00    +0.023 A 
ATOM     39  C   UNL A   1     -14.444   7.563  -1.272  0.00  0.00    -0.010 C 
ATOM     40  C   UNL A   1     -14.173   9.043  -1.030  0.00  0.00    -0.047 C 
ATOM     41  C   UNL A   1     -12.690   9.326  -1.211  0.00  0.00    -0.049 C 
ATOM     42  C   UNL A   1     -11.863   8.545  -0.191  0.00  0.00    -0.024 C 
ENDBRANCH  27  29
ENDBRANCH  25  27
ENDBRANCH  22  23
ENDBRANCH   1  22
TORSDOF 13
