@<TRIPOS>MOLECULE
*****
 39 42 0 0 0
SMALL
GASTEIGER

@<TRIPOS>ATOM
      1 C          -1.7321   -2.0000    0.0000 C.3     1  UNL1        0.2526
      2 O          -0.8660   -1.5000    0.0000 O.3     1  UNL1       -0.4683
      3 C          -0.8660   -0.5000    0.0000 C.ar    1  UNL1        0.1756
      4 C          -1.7321   -0.0000    0.0000 C.ar    1  UNL1        0.0448
      5 C          -1.7321    1.0000    0.0000 C.ar    1  UNL1        0.0613
      6 C          -2.5981    1.5000    0.0000 C.2     1  UNL1        0.2650
      7 O          -2.5981    2.5000    0.0000 O.2     1  UNL1       -0.2684
      8 N          -3.4641    1.0000    0.0000 N.am    1  UNL1       -0.2017
      9 C          -4.3301    1.5000    0.0000 C.3     1  UNL1        0.1155
     10 C          -4.3301    2.5000    0.0000 C.3     1  UNL1        0.0234
     11 C          -5.1962    3.0000    0.0000 C.3     1  UNL1        0.0018
     12 C          -5.1962    4.0000    0.0000 C.3     1  UNL1        0.0006
     13 C          -6.0622    4.5000    0.0000 C.3     1  UNL1        0.0097
     14 C          -6.0622    5.5000    0.0000 C.3     1  UNL1        0.0885
     15 C          -6.9282    6.0000    0.0000 C.2     1  UNL1        0.2606
     16 O          -6.9282    7.0000    0.0000 O.2     1  UNL1       -0.2717
     17 N          -7.7942    5.5000    0.0000 N.am    1  UNL1       -0.0905
     18 N          -8.6603    6.0000    0.0000 N.pl3   1  UNL1       -0.1256
     19 C          -9.5263    5.5000    0.0000 C.ar    1  UNL1        0.0877
     20 C         -10.3923    6.0000    0.0000 C.ar    1  UNL1        0.0081
     21 C         -11.2583    5.5000    0.0000 C.ar    1  UNL1        0.0563
     22 N         -11.2583    4.5000    0.0000 N.ar    1  UNL1       -0.2499
     23 C         -10.3923    4.0000    0.0000 C.ar    1  UNL1        0.0822
     24 C         -10.3923    3.0000    0.0000 C.ar    1  UNL1        0.0191
     25 C          -9.5263    2.5000    0.0000 C.ar    1  UNL1        0.0015
     26 C          -8.6603    3.0000    0.0000 C.ar    1  UNL1        0.0001
     27 C          -8.6603    4.0000    0.0000 C.ar    1  UNL1        0.0028
     28 C          -9.5263    4.5000    0.0000 C.ar    1  UNL1        0.0341
     29 C         -12.1244    6.0000    0.0000 C.3     1  UNL1        0.0455
     30 C         -12.1244    7.0000    0.0000 C.3     1  UNL1        0.0066
     31 C         -11.2583    7.5000    0.0000 C.3     1  UNL1        0.0052
     32 C         -10.3923    7.0000    0.0000 C.3     1  UNL1        0.0289
     33 C          -0.8660    1.5000    0.0000 C.ar    1  UNL1        0.0448
     34 C          -0.0000    1.0000    0.0000 C.ar    1  UNL1        0.1756
     35 O           0.8660    1.5000    0.0000 O.3     1  UNL1       -0.4683
     36 C           0.8660    2.5000    0.0000 C.3     1  UNL1        0.2526
     37 C           0.0000    0.0000    0.0000 C.ar    1  UNL1        0.2061
     38 O           0.8660   -0.5000    0.0000 O.3     1  UNL1       -0.4654
     39 C           1.7321    0.0000    0.0000 C.3     1  UNL1        0.2528
@<TRIPOS>BOND
     1     1     2    1
     2     2     3    1
     3     3     4   ar
     4     4     5   ar
     5     5     6    1
     6     6     7    2
     7     6     8   am
     8     8     9    1
     9     9    10    1
    10    10    11    1
    11    11    12    1
    12    12    13    1
    13    13    14    1
    14    14    15    1
    15    15    16    2
    16    15    17   am
    17    17    18    1
    18    18    19    1
    19    19    20   ar
    20    20    21   ar
    21    21    22   ar
    22    22    23   ar
    23    23    24   ar
    24    24    25   ar
    25    25    26   ar
    26    26    27   ar
    27    27    28   ar
    28    19    28   ar
    29    23    28   ar
    30    21    29    1
    31    29    30    1
    32    30    31    1
    33    31    32    1
    34    20    32    1
    35     5    33   ar
    36    33    34   ar
    37    34    35    1
    38    35    36    1
    39    34    37   ar
    40     3    37   ar
    41    37    38    1
    42    38    39    1
