MODEL 1
REMARK VINA RESULT:    -8.468      0.000      0.000
REMARK INTER + INTRA:         -12.586
REMARK INTER:                 -11.934
REMARK INTRA:                  -0.652
REMARK UNBOUND:                -0.652
REMARK  Name = cpd127.pdb
REMARK  7 active torsions:
REMARK  status: ('A' for Active; 'I' for Inactive)
REMARK    1  A    between atoms: C_4  and  C_5
REMARK    2  A    between atoms: C_5  and  N_6
REMARK    3  A    between atoms: C_9  and  C_10
REMARK    4  A    between atoms: C_10  and  C_11
REMARK    5  A    between atoms: C_11  and  N_12
REMARK    6  A    between atoms: N_12  and  C_13
REMARK    7  A    between atoms: C_16  and  C_17
REMARK                            x       y       z     vdW  Elec       q    Type
REMARK                         _______ _______ _______ _____ _____    ______ ____
ROOT
ATOM      1  C   UNL     1      33.086 -37.956 -25.934  0.00  0.00    -0.035 C 
ENDROOT
BRANCH   1   5
ATOM      2  N   UNL     1      33.925 -38.899 -21.830  0.00  0.00    -0.298 N 
ATOM      3  C   UNL     1      34.126 -40.021 -22.763  0.00  0.00    -0.001 C 
ATOM      4  C   UNL     1      33.572 -39.760 -24.175  0.00  0.00    -0.037 C 
ATOM      5  C   UNL     1      33.582 -38.266 -24.512  0.00  0.00    -0.037 C 
ATOM      6  C   UNL     1      32.737 -37.503 -23.470  0.00  0.00    -0.037 C 
ATOM      7  C   UNL     1      32.671 -38.199 -22.104  0.00  0.00    -0.001 C 
ATOM      8  H   UNL     1      34.688 -38.240 -21.982  0.00  0.00    +0.000 HD
BRANCH   2   9
ATOM      9  C   UNL     1      34.000 -39.334 -20.426  0.00  0.00    +0.024 C 
BRANCH   9  13
ATOM     10  C   UNL     1      37.956 -40.627 -19.262  0.00  0.00    -0.062 A 
ATOM     11  C   UNL     1      37.003 -41.565 -19.655  0.00  0.00    -0.061 A 
ATOM     12  C   UNL     1      35.725 -41.147 -20.028  0.00  0.00    -0.057 A 
ATOM     13  C   UNL     1      35.385 -39.785 -20.010  0.00  0.00    -0.033 A 
ATOM     14  C   UNL     1      36.354 -38.852 -19.615  0.00  0.00    -0.057 A 
ATOM     15  C   UNL     1      37.632 -39.272 -19.242  0.00  0.00    -0.061 A 
ENDBRANCH   9  13
ENDBRANCH   2   9
ENDBRANCH   1   5
BRANCH   1  16
ATOM     16  C   UNL     1      34.142 -37.267 -26.807  0.00  0.00    +0.011 C 
BRANCH  16  17
ATOM     17  N   UNL     1      35.373 -38.057 -26.781  0.00  0.00    -0.328 N 
ATOM     18  H   UNL     1      35.536 -38.778 -26.131  0.00  0.00    +0.000 HD
BRANCH  17  19
ATOM     19  C   UNL     1      36.299 -37.692 -27.766  0.00  0.00    +0.141 A 
ATOM     20  C   UNL     1      36.052 -36.674 -28.671  0.00  0.00    -0.018 A 
ATOM     21  C   UNL     1      37.018 -36.354 -29.627  0.00  0.00    -0.031 A 
ATOM     22  C   UNL     1      38.213 -37.061 -29.653  0.00  0.00    +0.093 A 
ATOM     23  N   UNL     1      38.431 -38.035 -28.741  0.00  0.00    -0.147 NA
ATOM     24  N   UNL     1      37.474 -38.344 -27.794  0.00  0.00    -0.134 NA
BRANCH  22  25
ATOM     25  C   UNL     1      39.298 -36.810 -30.621  0.00  0.00    +0.002 A 
ATOM     26  C   UNL     1      40.568 -37.405 -30.493  0.00  0.00    -0.053 A 
ATOM     27  C   UNL     1      41.586 -37.159 -31.422  0.00  0.00    -0.061 A 
ATOM     28  C   UNL     1      41.358 -36.307 -32.499  0.00  0.00    -0.062 A 
ATOM     29  C   UNL     1      40.115 -35.699 -32.646  0.00  0.00    -0.061 A 
ATOM     30  C   UNL     1      39.101 -35.947 -31.716  0.00  0.00    -0.053 A 
ENDBRANCH  22  25
ENDBRANCH  17  19
ENDBRANCH  16  17
ENDBRANCH   1  16
TORSDOF 7
ENDMDL
MODEL 2
REMARK VINA RESULT:    -8.104      0.835      1.254
REMARK INTER + INTRA:         -12.073
REMARK INTER:                 -11.303
REMARK INTRA:                  -0.771
REMARK UNBOUND:                -0.652
REMARK  Name = cpd127.pdb
REMARK  7 active torsions:
REMARK  status: ('A' for Active; 'I' for Inactive)
REMARK    1  A    between atoms: C_4  and  C_5
REMARK    2  A    between atoms: C_5  and  N_6
REMARK    3  A    between atoms: C_9  and  C_10
REMARK    4  A    between atoms: C_10  and  C_11
REMARK    5  A    between atoms: C_11  and  N_12
REMARK    6  A    between atoms: N_12  and  C_13
REMARK    7  A    between atoms: C_16  and  C_17
REMARK                            x       y       z     vdW  Elec       q    Type
REMARK                         _______ _______ _______ _____ _____    ______ ____
ROOT
ATOM      1  C   UNL     1      32.949 -37.424 -26.211  0.00  0.00    -0.035 C 
ENDROOT
BRANCH   1   5
ATOM      2  N   UNL     1      33.807 -38.463 -22.135  0.00  0.00    -0.298 N 
ATOM      3  C   UNL     1      32.605 -39.111 -22.685  0.00  0.00    -0.001 C 
ATOM      4  C   UNL     1      32.154 -38.535 -24.038  0.00  0.00    -0.037 C 
ATOM      5  C   UNL     1      33.338 -37.967 -24.826  0.00  0.00    -0.037 C 
ATOM      6  C   UNL     1      34.024 -36.865 -23.991  0.00  0.00    -0.037 C 
ATOM      7  C   UNL     1      33.849 -37.043 -22.477  0.00  0.00    -0.001 C 
ATOM      8  H   UNL     1      34.615 -38.911 -22.567  0.00  0.00    +0.000 HD
BRANCH   2   9
ATOM      9  C   UNL     1      33.924 -38.668 -20.681  0.00  0.00    +0.024 C 
BRANCH   9  13
ATOM     10  C   UNL     1      37.631 -40.537 -19.483  0.00  0.00    -0.062 A 
ATOM     11  C   UNL     1      37.366 -39.217 -19.122  0.00  0.00    -0.061 A 
ATOM     12  C   UNL     1      36.171 -38.614 -19.511  0.00  0.00    -0.057 A 
ATOM     13  C   UNL     1      35.226 -39.323 -20.269  0.00  0.00    -0.033 A 
ATOM     14  C   UNL     1      35.503 -40.651 -20.622  0.00  0.00    -0.057 A 
ATOM     15  C   UNL     1      36.700 -41.254 -20.231  0.00  0.00    -0.061 A 
ENDBRANCH   9  13
ENDBRANCH   2   9
ENDBRANCH   1   5
BRANCH   1  16
ATOM     16  C   UNL     1      34.144 -36.892 -27.010  0.00  0.00    +0.011 C 
BRANCH  16  17
ATOM     17  N   UNL     1      34.795 -38.007 -27.699  0.00  0.00    -0.328 N 
ATOM     18  H   UNL     1      34.457 -38.931 -27.664  0.00  0.00    +0.000 HD
BRANCH  17  19
ATOM     19  C   UNL     1      35.943 -37.638 -28.411  0.00  0.00    +0.141 A 
ATOM     20  C   UNL     1      35.969 -36.541 -29.254  0.00  0.00    -0.018 A 
ATOM     21  C   UNL     1      37.147 -36.223 -29.933  0.00  0.00    -0.031 A 
ATOM     22  C   UNL     1      38.275 -37.011 -29.749  0.00  0.00    +0.093 A 
ATOM     23  N   UNL     1      38.222 -38.064 -28.902  0.00  0.00    -0.147 NA
ATOM     24  N   UNL     1      37.055 -38.371 -28.229  0.00  0.00    -0.134 NA
BRANCH  22  25
ATOM     25  C   UNL     1      39.568 -36.770 -30.419  0.00  0.00    +0.002 A 
ATOM     26  C   UNL     1      40.669 -37.632 -30.255  0.00  0.00    -0.053 A 
ATOM     27  C   UNL     1      41.887 -37.390 -30.899  0.00  0.00    -0.061 A 
ATOM     28  C   UNL     1      42.034 -36.275 -31.720  0.00  0.00    -0.062 A 
ATOM     29  C   UNL     1      40.965 -35.402 -31.895  0.00  0.00    -0.061 A 
ATOM     30  C   UNL     1      39.749 -35.647 -31.249  0.00  0.00    -0.053 A 
ENDBRANCH  22  25
ENDBRANCH  17  19
ENDBRANCH  16  17
ENDBRANCH   1  16
TORSDOF 7
ENDMDL
MODEL 3
REMARK VINA RESULT:    -7.550     18.904     24.660
REMARK INTER + INTRA:         -11.292
REMARK INTER:                 -10.486
REMARK INTRA:                  -0.806
REMARK UNBOUND:                -0.652
REMARK  Name = cpd127.pdb
REMARK  7 active torsions:
REMARK  status: ('A' for Active; 'I' for Inactive)
REMARK    1  A    between atoms: C_4  and  C_5
REMARK    2  A    between atoms: C_5  and  N_6
REMARK    3  A    between atoms: C_9  and  C_10
REMARK    4  A    between atoms: C_10  and  C_11
REMARK    5  A    between atoms: C_11  and  N_12
REMARK    6  A    between atoms: N_12  and  C_13
REMARK    7  A    between atoms: C_16  and  C_17
REMARK                            x       y       z     vdW  Elec       q    Type
REMARK                         _______ _______ _______ _____ _____    ______ ____
ROOT
ATOM      1  C   UNL     1      46.974 -18.152 -35.380  0.00  0.00    -0.035 C 
ENDROOT
BRANCH   1   5
ATOM      2  N   UNL     1      46.903 -18.711 -39.636  0.00  0.00    -0.298 N 
ATOM      3  C   UNL     1      46.971 -17.303 -39.211  0.00  0.00    -0.001 C 
ATOM      4  C   UNL     1      46.726 -17.096 -37.706  0.00  0.00    -0.037 C 
ATOM      5  C   UNL     1      47.150 -18.326 -36.898  0.00  0.00    -0.037 C 
ATOM      6  C   UNL     1      46.362 -19.558 -37.391  0.00  0.00    -0.037 C 
ATOM      7  C   UNL     1      45.916 -19.454 -38.856  0.00  0.00    -0.001 C 
ATOM      8  H   UNL     1      47.818 -19.125 -39.455  0.00  0.00    +0.000 HD
BRANCH   2   9
ATOM      9  C   UNL     1      46.649 -18.836 -41.081  0.00  0.00    +0.024 C 
BRANCH   9  13
ATOM     10  C   UNL     1      46.622 -22.936 -42.448  0.00  0.00    -0.062 A 
ATOM     11  C   UNL     1      47.725 -22.437 -41.759  0.00  0.00    -0.061 A 
ATOM     12  C   UNL     1      47.735 -21.113 -41.320  0.00  0.00    -0.057 A 
ATOM     13  C   UNL     1      46.640 -20.270 -41.568  0.00  0.00    -0.033 A 
ATOM     14  C   UNL     1      45.534 -20.785 -42.260  0.00  0.00    -0.057 A 
ATOM     15  C   UNL     1      45.526 -22.111 -42.698  0.00  0.00    -0.061 A 
ENDBRANCH   9  13
ENDBRANCH   2   9
ENDBRANCH   1   5
BRANCH   1  16
ATOM     16  C   UNL     1      46.089 -19.231 -34.745  0.00  0.00    +0.011 C 
BRANCH  16  17
ATOM     17  N   UNL     1      45.324 -18.639 -33.648  0.00  0.00    -0.328 N 
ATOM     18  H   UNL     1      45.690 -17.951 -33.047  0.00  0.00    +0.000 HD
BRANCH  17  19
ATOM     19  C   UNL     1      44.022 -19.140 -33.533  0.00  0.00    +0.141 A 
ATOM     20  C   UNL     1      43.038 -18.484 -32.813  0.00  0.00    -0.018 A 
ATOM     21  C   UNL     1      41.757 -19.034 -32.740  0.00  0.00    -0.031 A 
ATOM     22  C   UNL     1      41.488 -20.230 -33.394  0.00  0.00    +0.093 A 
ATOM     23  N   UNL     1      42.466 -20.833 -34.106  0.00  0.00    -0.147 NA
ATOM     24  N   UNL     1      43.731 -20.282 -34.180  0.00  0.00    -0.134 NA
BRANCH  22  25
ATOM     25  C   UNL     1      40.174 -20.901 -33.379  0.00  0.00    +0.002 A 
ATOM     26  C   UNL     1      39.860 -21.952 -34.262  0.00  0.00    -0.053 A 
ATOM     27  C   UNL     1      38.609 -22.579 -34.233  0.00  0.00    -0.061 A 
ATOM     28  C   UNL     1      37.641 -22.166 -33.322  0.00  0.00    -0.062 A 
ATOM     29  C   UNL     1      37.921 -21.124 -32.443  0.00  0.00    -0.061 A 
ATOM     30  C   UNL     1      39.172 -20.500 -32.476  0.00  0.00    -0.053 A 
ENDBRANCH  22  25
ENDBRANCH  17  19
ENDBRANCH  16  17
ENDBRANCH   1  16
TORSDOF 7
ENDMDL
MODEL 4
REMARK VINA RESULT:    -7.499     28.866     32.378
REMARK INTER + INTRA:         -11.220
REMARK INTER:                 -10.380
REMARK INTRA:                  -0.840
REMARK UNBOUND:                -0.652
REMARK  Name = cpd127.pdb
REMARK  7 active torsions:
REMARK  status: ('A' for Active; 'I' for Inactive)
REMARK    1  A    between atoms: C_4  and  C_5
REMARK    2  A    between atoms: C_5  and  N_6
REMARK    3  A    between atoms: C_9  and  C_10
REMARK    4  A    between atoms: C_10  and  C_11
REMARK    5  A    between atoms: C_11  and  N_12
REMARK    6  A    between atoms: N_12  and  C_13
REMARK    7  A    between atoms: C_16  and  C_17
REMARK                            x       y       z     vdW  Elec       q    Type
REMARK                         _______ _______ _______ _____ _____    ______ ____
ROOT
ATOM      1  C   UNL     1      56.680 -32.078 -54.046  0.00  0.00    -0.035 C 
ENDROOT
BRANCH   1   5
ATOM      2  N   UNL     1      56.673 -34.694 -50.641  0.00  0.00    -0.298 N 
ATOM      3  C   UNL     1      57.304 -35.265 -51.843  0.00  0.00    -0.001 C 
ATOM      4  C   UNL     1      57.067 -34.440 -53.120  0.00  0.00    -0.037 C 
ATOM      5  C   UNL     1      56.870 -32.956 -52.798  0.00  0.00    -0.037 C 
ATOM      6  C   UNL     1      55.669 -32.796 -51.842  0.00  0.00    -0.037 C 
ATOM      7  C   UNL     1      55.412 -34.032 -50.968  0.00  0.00    -0.001 C 
ATOM      8  H   UNL     1      57.309 -33.986 -50.274  0.00  0.00    +0.000 HD
BRANCH   2   9
ATOM      9  C   UNL     1      56.491 -35.704 -49.585  0.00  0.00    +0.024 C 
BRANCH   9  13
ATOM     10  C   UNL     1      55.391 -34.029 -45.756  0.00  0.00    -0.062 A 
ATOM     11  C   UNL     1      54.871 -35.259 -46.156  0.00  0.00    -0.061 A 
ATOM     12  C   UNL     1      55.224 -35.798 -47.393  0.00  0.00    -0.057 A 
ATOM     13  C   UNL     1      56.101 -35.111 -48.247  0.00  0.00    -0.033 A 
ATOM     14  C   UNL     1      56.620 -33.876 -47.833  0.00  0.00    -0.057 A 
ATOM     15  C   UNL     1      56.265 -33.338 -46.594  0.00  0.00    -0.061 A 
ENDBRANCH   9  13
ENDBRANCH   2   9
ENDBRANCH   1   5
BRANCH   1  16
ATOM     16  C   UNL     1      55.616 -30.989 -53.864  0.00  0.00    +0.011 C 
BRANCH  16  17
ATOM     17  N   UNL     1      54.795 -30.914 -55.073  0.00  0.00    -0.328 N 
ATOM     18  H   UNL     1      55.170 -30.754 -55.968  0.00  0.00    +0.000 HD
BRANCH  17  19
ATOM     19  C   UNL     1      53.427 -31.093 -54.837  0.00  0.00    +0.141 A 
ATOM     20  C   UNL     1      52.575 -31.623 -55.792  0.00  0.00    -0.018 A 
ATOM     21  C   UNL     1      51.221 -31.780 -55.494  0.00  0.00    -0.031 A 
ATOM     22  C   UNL     1      50.748 -31.405 -54.242  0.00  0.00    +0.093 A 
ATOM     23  N   UNL     1      51.610 -30.911 -53.326  0.00  0.00    -0.147 NA
ATOM     24  N   UNL     1      52.951 -30.762 -53.624  0.00  0.00    -0.134 NA
BRANCH  22  25
ATOM     25  C   UNL     1      49.338 -31.523 -53.824  0.00  0.00    +0.002 A 
ATOM     26  C   UNL     1      48.628 -30.439 -53.273  0.00  0.00    -0.053 A 
ATOM     27  C   UNL     1      47.290 -30.567 -52.883  0.00  0.00    -0.061 A 
ATOM     28  C   UNL     1      46.631 -31.784 -53.033  0.00  0.00    -0.062 A 
ATOM     29  C   UNL     1      47.311 -32.874 -53.569  0.00  0.00    -0.061 A 
ATOM     30  C   UNL     1      48.648 -32.743 -53.956  0.00  0.00    -0.053 A 
ENDBRANCH  22  25
ENDBRANCH  17  19
ENDBRANCH  16  17
ENDBRANCH   1  16
TORSDOF 7
ENDMDL
MODEL 5
REMARK VINA RESULT:    -7.395     19.161     24.455
REMARK INTER + INTRA:         -11.074
REMARK INTER:                 -10.291
REMARK INTRA:                  -0.782
REMARK UNBOUND:                -0.652
REMARK  Name = cpd127.pdb
REMARK  7 active torsions:
REMARK  status: ('A' for Active; 'I' for Inactive)
REMARK    1  A    between atoms: C_4  and  C_5
REMARK    2  A    between atoms: C_5  and  N_6
REMARK    3  A    between atoms: C_9  and  C_10
REMARK    4  A    between atoms: C_10  and  C_11
REMARK    5  A    between atoms: C_11  and  N_12
REMARK    6  A    between atoms: N_12  and  C_13
REMARK    7  A    between atoms: C_16  and  C_17
REMARK                            x       y       z     vdW  Elec       q    Type
REMARK                         _______ _______ _______ _____ _____    ______ ____
ROOT
ATOM      1  C   UNL     1      46.229 -18.487 -35.163  0.00  0.00    -0.035 C 
ENDROOT
BRANCH   1   5
ATOM      2  N   UNL     1      47.020 -19.274 -39.309  0.00  0.00    -0.298 N 
ATOM      3  C   UNL     1      47.032 -17.846 -38.951  0.00  0.00    -0.001 C 
ATOM      4  C   UNL     1      46.488 -17.555 -37.541  0.00  0.00    -0.037 C 
ATOM      5  C   UNL     1      46.709 -18.745 -36.601  0.00  0.00    -0.037 C 
ATOM      6  C   UNL     1      46.011 -19.992 -37.184  0.00  0.00    -0.037 C 
ATOM      7  C   UNL     1      45.876 -19.962 -38.713  0.00  0.00    -0.001 C 
ATOM      8  H   UNL     1      47.868 -19.689 -38.924  0.00  0.00    +0.000 HD
BRANCH   2   9
ATOM      9  C   UNL     1      47.064 -19.473 -40.768  0.00  0.00    +0.024 C 
BRANCH   9  13
ATOM     10  C   UNL     1      47.306 -23.623 -41.947  0.00  0.00    -0.062 A 
ATOM     11  C   UNL     1      46.239 -22.836 -42.377  0.00  0.00    -0.061 A 
ATOM     12  C   UNL     1      46.160 -21.497 -41.994  0.00  0.00    -0.057 A 
ATOM     13  C   UNL     1      47.147 -20.930 -41.173  0.00  0.00    -0.033 A 
ATOM     14  C   UNL     1      48.217 -21.731 -40.750  0.00  0.00    -0.057 A 
ATOM     15  C   UNL     1      48.295 -23.071 -41.135  0.00  0.00    -0.061 A 
ENDBRANCH   9  13
ENDBRANCH   2   9
ENDBRANCH   1   5
BRANCH   1  16
ATOM     16  C   UNL     1      45.241 -19.544 -34.656  0.00  0.00    +0.011 C 
BRANCH  16  17
ATOM     17  N   UNL     1      44.740 -19.140 -33.343  0.00  0.00    -0.328 N 
ATOM     18  H   UNL     1      45.324 -18.809 -32.622  0.00  0.00    +0.000 HD
BRANCH  17  19
ATOM     19  C   UNL     1      43.352 -19.266 -33.204  0.00  0.00    +0.141 A 
ATOM     20  C   UNL     1      42.539 -18.189 -32.898  0.00  0.00    -0.018 A 
ATOM     21  C   UNL     1      41.161 -18.379 -32.779  0.00  0.00    -0.031 A 
ATOM     22  C   UNL     1      40.627 -19.647 -32.972  0.00  0.00    +0.093 A 
ATOM     23  N   UNL     1      41.447 -20.673 -33.290  0.00  0.00    -0.147 NA
ATOM     24  N   UNL     1      42.809 -20.478 -33.413  0.00  0.00    -0.134 NA
BRANCH  22  25
ATOM     25  C   UNL     1      39.189 -19.961 -32.865  0.00  0.00    +0.002 A 
ATOM     26  C   UNL     1      38.707 -21.284 -32.905  0.00  0.00    -0.053 A 
ATOM     27  C   UNL     1      37.340 -21.565 -32.800  0.00  0.00    -0.061 A 
ATOM     28  C   UNL     1      36.422 -20.528 -32.657  0.00  0.00    -0.062 A 
ATOM     29  C   UNL     1      36.870 -19.211 -32.623  0.00  0.00    -0.061 A 
ATOM     30  C   UNL     1      38.236 -18.934 -32.728  0.00  0.00    -0.053 A 
ENDBRANCH  22  25
ENDBRANCH  17  19
ENDBRANCH  16  17
ENDBRANCH   1  16
TORSDOF 7
ENDMDL
MODEL 6
REMARK VINA RESULT:    -7.334      3.007      4.910
REMARK INTER + INTRA:         -10.988
REMARK INTER:                 -10.428
REMARK INTRA:                  -0.560
REMARK UNBOUND:                -0.652
REMARK  Name = cpd127.pdb
REMARK  7 active torsions:
REMARK  status: ('A' for Active; 'I' for Inactive)
REMARK    1  A    between atoms: C_4  and  C_5
REMARK    2  A    between atoms: C_5  and  N_6
REMARK    3  A    between atoms: C_9  and  C_10
REMARK    4  A    between atoms: C_10  and  C_11
REMARK    5  A    between atoms: C_11  and  N_12
REMARK    6  A    between atoms: N_12  and  C_13
REMARK    7  A    between atoms: C_16  and  C_17
REMARK                            x       y       z     vdW  Elec       q    Type
REMARK                         _______ _______ _______ _____ _____    ______ ____
ROOT
ATOM      1  C   UNL     1      33.898 -34.354 -29.897  0.00  0.00    -0.035 C 
ENDROOT
BRANCH   1   5
ATOM      2  N   UNL     1      32.186 -36.925 -26.915  0.00  0.00    -0.298 N 
ATOM      3  C   UNL     1      33.574 -37.257 -27.277  0.00  0.00    -0.001 C 
ATOM      4  C   UNL     1      34.086 -36.514 -28.523  0.00  0.00    -0.037 C 
ATOM      5  C   UNL     1      33.386 -35.162 -28.693  0.00  0.00    -0.037 C 
ATOM      6  C   UNL     1      31.863 -35.386 -28.807  0.00  0.00    -0.037 C 
ATOM      7  C   UNL     1      31.376 -36.660 -28.103  0.00  0.00    -0.001 C 
ATOM      8  H   UNL     1      32.216 -36.068 -26.362  0.00  0.00    +0.000 HD
BRANCH   2   9
ATOM      9  C   UNL     1      31.575 -37.965 -26.071  0.00  0.00    +0.024 C 
BRANCH   9  13
ATOM     10  C   UNL     1      32.822 -37.799 -21.936  0.00  0.00    -0.062 A 
ATOM     11  C   UNL     1      31.553 -37.352 -22.301  0.00  0.00    -0.061 A 
ATOM     12  C   UNL     1      31.152 -37.404 -23.637  0.00  0.00    -0.057 A 
ATOM     13  C   UNL     1      32.018 -37.901 -24.623  0.00  0.00    -0.033 A 
ATOM     14  C   UNL     1      33.290 -38.350 -24.243  0.00  0.00    -0.057 A 
ATOM     15  C   UNL     1      33.690 -38.298 -22.906  0.00  0.00    -0.061 A 
ENDBRANCH   9  13
ENDBRANCH   2   9
ENDBRANCH   1   5
BRANCH   1  16
ATOM     16  C   UNL     1      34.772 -35.177 -30.851  0.00  0.00    +0.011 C 
BRANCH  16  17
ATOM     17  N   UNL     1      35.859 -34.335 -31.351  0.00  0.00    -0.328 N 
ATOM     18  H   UNL     1      35.718 -33.424 -31.698  0.00  0.00    +0.000 HD
BRANCH  17  19
ATOM     19  C   UNL     1      37.118 -34.944 -31.292  0.00  0.00    +0.141 A 
ATOM     20  C   UNL     1      38.267 -34.311 -31.733  0.00  0.00    -0.018 A 
ATOM     21  C   UNL     1      39.494 -34.970 -31.643  0.00  0.00    -0.031 A 
ATOM     22  C   UNL     1      39.544 -36.251 -31.108  0.00  0.00    +0.093 A 
ATOM     23  N   UNL     1      38.406 -36.833 -30.667  0.00  0.00    -0.147 NA
ATOM     24  N   UNL     1      37.195 -36.174 -30.754  0.00  0.00    -0.134 NA
BRANCH  22  25
ATOM     25  C   UNL     1      40.783 -37.040 -30.970  0.00  0.00    +0.002 A 
ATOM     26  C   UNL     1      40.928 -38.042 -29.992  0.00  0.00    -0.053 A 
ATOM     27  C   UNL     1      42.110 -38.783 -29.876  0.00  0.00    -0.061 A 
ATOM     28  C   UNL     1      43.177 -38.535 -30.735  0.00  0.00    -0.062 A 
ATOM     29  C   UNL     1      43.064 -37.545 -31.706  0.00  0.00    -0.061 A 
ATOM     30  C   UNL     1      41.882 -36.807 -31.819  0.00  0.00    -0.053 A 
ENDBRANCH  22  25
ENDBRANCH  17  19
ENDBRANCH  16  17
ENDBRANCH   1  16
TORSDOF 7
ENDMDL
MODEL 7
REMARK VINA RESULT:    -7.297      5.953      8.571
REMARK INTER + INTRA:         -10.935
REMARK INTER:                  -8.836
REMARK INTRA:                  -2.099
REMARK UNBOUND:                -0.652
REMARK  Name = cpd127.pdb
REMARK  7 active torsions:
REMARK  status: ('A' for Active; 'I' for Inactive)
REMARK    1  A    between atoms: C_4  and  C_5
REMARK    2  A    between atoms: C_5  and  N_6
REMARK    3  A    between atoms: C_9  and  C_10
REMARK    4  A    between atoms: C_10  and  C_11
REMARK    5  A    between atoms: C_11  and  N_12
REMARK    6  A    between atoms: N_12  and  C_13
REMARK    7  A    between atoms: C_16  and  C_17
REMARK                            x       y       z     vdW  Elec       q    Type
REMARK                         _______ _______ _______ _____ _____    ______ ____
ROOT
ATOM      1  C   UNL     1      30.452 -33.385 -31.085  0.00  0.00    -0.035 C 
ENDROOT
BRANCH   1   5
ATOM      2  N   UNL     1      31.614 -37.359 -32.222  0.00  0.00    -0.298 N 
ATOM      3  C   UNL     1      31.360 -36.454 -33.356  0.00  0.00    -0.001 C 
ATOM      4  C   UNL     1      30.691 -35.128 -32.954  0.00  0.00    -0.037 C 
ATOM      5  C   UNL     1      31.054 -34.732 -31.519  0.00  0.00    -0.037 C 
ATOM      6  C   UNL     1      30.616 -35.852 -30.553  0.00  0.00    -0.037 C 
ATOM      7  C   UNL     1      30.571 -37.241 -31.205  0.00  0.00    -0.001 C 
ATOM      8  H   UNL     1      32.495 -37.071 -31.798  0.00  0.00    +0.000 HD
BRANCH   2   9
ATOM      9  C   UNL     1      31.779 -38.755 -32.661  0.00  0.00    +0.024 C 
BRANCH   9  13
ATOM     10  C   UNL     1      35.599 -40.450 -31.560  0.00  0.00    -0.062 A 
ATOM     11  C   UNL     1      35.251 -39.172 -31.126  0.00  0.00    -0.061 A 
ATOM     12  C   UNL     1      34.019 -38.624 -31.483  0.00  0.00    -0.057 A 
ATOM     13  C   UNL     1      33.121 -39.348 -32.283  0.00  0.00    -0.033 A 
ATOM     14  C   UNL     1      33.481 -40.634 -32.711  0.00  0.00    -0.057 A 
ATOM     15  C   UNL     1      34.714 -41.181 -32.351  0.00  0.00    -0.061 A 
ENDBRANCH   9  13
ENDBRANCH   2   9
ENDBRANCH   1   5
BRANCH   1  16
ATOM     16  C   UNL     1      30.896 -32.948 -29.684  0.00  0.00    +0.011 C 
BRANCH  16  17
ATOM     17  N   UNL     1      32.198 -32.289 -29.778  0.00  0.00    -0.328 N 
ATOM     18  H   UNL     1      32.305 -31.311 -29.822  0.00  0.00    +0.000 HD
BRANCH  17  19
ATOM     19  C   UNL     1      33.280 -33.178 -29.799  0.00  0.00    +0.141 A 
ATOM     20  C   UNL     1      34.291 -33.089 -30.741  0.00  0.00    -0.018 A 
ATOM     21  C   UNL     1      35.346 -34.004 -30.706  0.00  0.00    -0.031 A 
ATOM     22  C   UNL     1      35.366 -34.986 -29.724  0.00  0.00    +0.093 A 
ATOM     23  N   UNL     1      34.373 -35.032 -28.808  0.00  0.00    -0.147 NA
ATOM     24  N   UNL     1      33.335 -34.121 -28.843  0.00  0.00    -0.134 NA
BRANCH  22  25
ATOM     25  C   UNL     1      36.426 -36.004 -29.598  0.00  0.00    +0.002 A 
ATOM     26  C   UNL     1      36.491 -36.887 -28.503  0.00  0.00    -0.053 A 
ATOM     27  C   UNL     1      37.503 -37.848 -28.399  0.00  0.00    -0.061 A 
ATOM     28  C   UNL     1      38.477 -37.946 -29.389  0.00  0.00    -0.062 A 
ATOM     29  C   UNL     1      38.442 -37.082 -30.478  0.00  0.00    -0.061 A 
ATOM     30  C   UNL     1      37.430 -36.122 -30.578  0.00  0.00    -0.053 A 
ENDBRANCH  22  25
ENDBRANCH  17  19
ENDBRANCH  16  17
ENDBRANCH   1  16
TORSDOF 7
ENDMDL
MODEL 8
REMARK VINA RESULT:    -7.208     18.467     22.789
REMARK INTER + INTRA:         -10.809
REMARK INTER:                  -9.650
REMARK INTRA:                  -1.159
REMARK UNBOUND:                -0.652
REMARK  Name = cpd127.pdb
REMARK  7 active torsions:
REMARK  status: ('A' for Active; 'I' for Inactive)
REMARK    1  A    between atoms: C_4  and  C_5
REMARK    2  A    between atoms: C_5  and  N_6
REMARK    3  A    between atoms: C_9  and  C_10
REMARK    4  A    between atoms: C_10  and  C_11
REMARK    5  A    between atoms: C_11  and  N_12
REMARK    6  A    between atoms: N_12  and  C_13
REMARK    7  A    between atoms: C_16  and  C_17
REMARK                            x       y       z     vdW  Elec       q    Type
REMARK                         _______ _______ _______ _____ _____    ______ ____
ROOT
ATOM      1  C   UNL     1      44.146 -17.461 -35.826  0.00  0.00    -0.035 C 
ENDROOT
BRANCH   1   5
ATOM      2  N   UNL     1      40.967 -20.301 -36.336  0.00  0.00    -0.298 N 
ATOM      3  C   UNL     1      42.084 -20.784 -35.506  0.00  0.00    -0.001 C 
ATOM      4  C   UNL     1      43.326 -19.877 -35.548  0.00  0.00    -0.037 C 
ATOM      5  C   UNL     1      42.944 -18.419 -35.824  0.00  0.00    -0.037 C 
ATOM      6  C   UNL     1      42.190 -18.335 -37.168  0.00  0.00    -0.037 C 
ATOM      7  C   UNL     1      41.452 -19.629 -37.540  0.00  0.00    -0.001 C 
ATOM      8  H   UNL     1      40.455 -19.615 -35.782  0.00  0.00    +0.000 HD
BRANCH   2   9
ATOM      9  C   UNL     1      40.024 -21.382 -36.667  0.00  0.00    +0.024 C 
BRANCH   9  13
ATOM     10  C   UNL     1      37.559 -22.609 -33.337  0.00  0.00    -0.062 A 
ATOM     11  C   UNL     1      37.498 -21.297 -33.804  0.00  0.00    -0.061 A 
ATOM     12  C   UNL     1      38.296 -20.901 -34.878  0.00  0.00    -0.057 A 
ATOM     13  C   UNL     1      39.167 -21.813 -35.495  0.00  0.00    -0.033 A 
ATOM     14  C   UNL     1      39.217 -23.130 -35.018  0.00  0.00    -0.057 A 
ATOM     15  C   UNL     1      38.417 -23.525 -33.943  0.00  0.00    -0.061 A 
ENDBRANCH   9  13
ENDBRANCH   2   9
ENDBRANCH   1   5
BRANCH   1  16
ATOM     16  C   UNL     1      45.398 -18.058 -35.172  0.00  0.00    +0.011 C 
BRANCH  16  17
ATOM     17  N   UNL     1      46.555 -17.803 -36.031  0.00  0.00    -0.328 N 
ATOM     18  H   UNL     1      47.221 -17.104 -35.842  0.00  0.00    +0.000 HD
BRANCH  17  19
ATOM     19  C   UNL     1      46.626 -18.646 -37.147  0.00  0.00    +0.141 A 
ATOM     20  C   UNL     1      46.781 -18.157 -38.433  0.00  0.00    -0.018 A 
ATOM     21  C   UNL     1      46.850 -19.050 -39.504  0.00  0.00    -0.031 A 
ATOM     22  C   UNL     1      46.765 -20.415 -39.263  0.00  0.00    +0.093 A 
ATOM     23  N   UNL     1      46.635 -20.859 -37.993  0.00  0.00    -0.147 NA
ATOM     24  N   UNL     1      46.572 -19.972 -36.936  0.00  0.00    -0.134 NA
BRANCH  22  25
ATOM     25  C   UNL     1      46.821 -21.445 -40.319  0.00  0.00    +0.002 A 
ATOM     26  C   UNL     1      45.940 -21.439 -41.417  0.00  0.00    -0.053 A 
ATOM     27  C   UNL     1      46.007 -22.422 -42.411  0.00  0.00    -0.061 A 
ATOM     28  C   UNL     1      46.957 -23.436 -42.327  0.00  0.00    -0.062 A 
ATOM     29  C   UNL     1      47.835 -23.471 -41.249  0.00  0.00    -0.061 A 
ATOM     30  C   UNL     1      47.764 -22.488 -40.257  0.00  0.00    -0.053 A 
ENDBRANCH  22  25
ENDBRANCH  17  19
ENDBRANCH  16  17
ENDBRANCH   1  16
TORSDOF 7
ENDMDL
MODEL 9
REMARK VINA RESULT:    -7.164     28.886     31.392
REMARK INTER + INTRA:         -10.748
REMARK INTER:                  -9.972
REMARK INTRA:                  -0.776
REMARK UNBOUND:                -0.652
REMARK  Name = cpd127.pdb
REMARK  7 active torsions:
REMARK  status: ('A' for Active; 'I' for Inactive)
REMARK    1  A    between atoms: C_4  and  C_5
REMARK    2  A    between atoms: C_5  and  N_6
REMARK    3  A    between atoms: C_9  and  C_10
REMARK    4  A    between atoms: C_10  and  C_11
REMARK    5  A    between atoms: C_11  and  N_12
REMARK    6  A    between atoms: N_12  and  C_13
REMARK    7  A    between atoms: C_16  and  C_17
REMARK                            x       y       z     vdW  Elec       q    Type
REMARK                         _______ _______ _______ _____ _____    ______ ____
ROOT
ATOM      1  C   UNL     1      53.402 -31.018 -53.776  0.00  0.00    -0.035 C 
ENDROOT
BRANCH   1   5
ATOM      2  N   UNL     1      55.209 -33.728 -50.979  0.00  0.00    -0.298 N 
ATOM      3  C   UNL     1      56.164 -32.850 -51.675  0.00  0.00    -0.001 C 
ATOM      4  C   UNL     1      55.551 -32.079 -52.857  0.00  0.00    -0.037 C 
ATOM      5  C   UNL     1      54.054 -31.831 -52.645  0.00  0.00    -0.037 C 
ATOM      6  C   UNL     1      53.332 -33.184 -52.473  0.00  0.00    -0.037 C 
ATOM      7  C   UNL     1      54.232 -34.292 -51.908  0.00  0.00    -0.001 C 
ATOM      8  H   UNL     1      54.702 -33.151 -50.308  0.00  0.00    +0.000 HD
BRANCH   2   9
ATOM      9  C   UNL     1      55.892 -34.784 -50.214  0.00  0.00    +0.024 C 
BRANCH   9  13
ATOM     10  C   UNL     1      55.739 -34.147 -45.942  0.00  0.00    -0.062 A 
ATOM     11  C   UNL     1      56.570 -33.359 -46.736  0.00  0.00    -0.061 A 
ATOM     12  C   UNL     1      56.621 -33.567 -48.115  0.00  0.00    -0.057 A 
ATOM     13  C   UNL     1      55.842 -34.568 -48.715  0.00  0.00    -0.033 A 
ATOM     14  C   UNL     1      55.008 -35.352 -47.906  0.00  0.00    -0.057 A 
ATOM     15  C   UNL     1      54.958 -35.143 -46.526  0.00  0.00    -0.061 A 
ENDBRANCH   9  13
ENDBRANCH   2   9
ENDBRANCH   1   5
BRANCH   1  16
ATOM     16  C   UNL     1      52.116 -31.654 -54.315  0.00  0.00    +0.011 C 
BRANCH  16  17
ATOM     17  N   UNL     1      50.962 -30.984 -53.715  0.00  0.00    -0.328 N 
ATOM     18  H   UNL     1      50.999 -30.068 -53.356  0.00  0.00    +0.000 HD
BRANCH  17  19
ATOM     19  C   UNL     1      49.801 -31.766 -53.698  0.00  0.00    +0.141 A 
ATOM     20  C   UNL     1      48.557 -31.236 -53.402  0.00  0.00    -0.018 A 
ATOM     21  C   UNL     1      47.436 -32.069 -53.406  0.00  0.00    -0.031 A 
ATOM     22  C   UNL     1      47.586 -33.415 -53.711  0.00  0.00    +0.093 A 
ATOM     23  N   UNL     1      48.812 -33.896 -54.017  0.00  0.00    -0.147 NA
ATOM     24  N   UNL     1      49.917 -33.067 -54.016  0.00  0.00    -0.134 NA
BRANCH  22  25
ATOM     25  C   UNL     1      46.473 -34.384 -53.740  0.00  0.00    +0.002 A 
ATOM     26  C   UNL     1      46.270 -35.322 -52.709  0.00  0.00    -0.053 A 
ATOM     27  C   UNL     1      45.207 -36.232 -52.751  0.00  0.00    -0.061 A 
ATOM     28  C   UNL     1      44.325 -36.227 -53.827  0.00  0.00    -0.062 A 
ATOM     29  C   UNL     1      44.506 -35.316 -54.863  0.00  0.00    -0.061 A 
ATOM     30  C   UNL     1      45.569 -34.409 -54.819  0.00  0.00    -0.053 A 
ENDBRANCH  22  25
ENDBRANCH  17  19
ENDBRANCH  16  17
ENDBRANCH   1  16
TORSDOF 7
ENDMDL
MODEL 10
REMARK VINA RESULT:    -7.162      6.120      9.438
REMARK INTER + INTRA:         -10.745
REMARK INTER:                  -9.692
REMARK INTRA:                  -1.053
REMARK UNBOUND:                -0.652
REMARK  Name = cpd127.pdb
REMARK  7 active torsions:
REMARK  status: ('A' for Active; 'I' for Inactive)
REMARK    1  A    between atoms: C_4  and  C_5
REMARK    2  A    between atoms: C_5  and  N_6
REMARK    3  A    between atoms: C_9  and  C_10
REMARK    4  A    between atoms: C_10  and  C_11
REMARK    5  A    between atoms: C_11  and  N_12
REMARK    6  A    between atoms: N_12  and  C_13
REMARK    7  A    between atoms: C_16  and  C_17
REMARK                            x       y       z     vdW  Elec       q    Type
REMARK                         _______ _______ _______ _____ _____    ______ ____
ROOT
ATOM      1  C   UNL     1      33.930 -39.608 -31.121  0.00  0.00    -0.035 C 
ENDROOT
BRANCH   1   5
ATOM      2  N   UNL     1      37.673 -37.775 -30.090  0.00  0.00    -0.298 N 
ATOM      3  C   UNL     1      37.312 -38.930 -29.250  0.00  0.00    -0.001 C 
ATOM      4  C   UNL     1      35.863 -39.410 -29.445  0.00  0.00    -0.037 C 
ATOM      5  C   UNL     1      35.358 -39.102 -30.858  0.00  0.00    -0.037 C 
ATOM      6  C   UNL     1      35.443 -37.582 -31.110  0.00  0.00    -0.037 C 
ATOM      7  C   UNL     1      36.532 -36.883 -30.284  0.00  0.00    -0.001 C 
ATOM      8  H   UNL     1      37.942 -38.139 -31.004  0.00  0.00    +0.000 HD
BRANCH   2   9
ATOM      9  C   UNL     1      38.836 -37.049 -29.553  0.00  0.00    +0.024 C 
BRANCH   9  13
ATOM     10  C   UNL     1      42.421 -37.615 -31.898  0.00  0.00    -0.062 A 
ATOM     11  C   UNL     1      42.288 -38.245 -30.662  0.00  0.00    -0.061 A 
ATOM     12  C   UNL     1      41.132 -38.060 -29.905  0.00  0.00    -0.057 A 
ATOM     13  C   UNL     1      40.095 -37.239 -30.374  0.00  0.00    -0.033 A 
ATOM     14  C   UNL     1      40.239 -36.613 -31.619  0.00  0.00    -0.057 A 
ATOM     15  C   UNL     1      41.397 -36.800 -32.377  0.00  0.00    -0.061 A 
ENDBRANCH   9  13
ENDBRANCH   2   9
ENDBRANCH   1   5
BRANCH   1  16
ATOM     16  C   UNL     1      33.298 -39.007 -32.382  0.00  0.00    +0.011 C 
BRANCH  16  17
ATOM     17  N   UNL     1      31.945 -38.547 -32.066  0.00  0.00    -0.328 N 
ATOM     18  H   UNL     1      31.181 -39.158 -31.957  0.00  0.00    +0.000 HD
BRANCH  17  19
ATOM     19  C   UNL     1      31.839 -37.157 -31.933  0.00  0.00    +0.141 A 
ATOM     20  C   UNL     1      32.139 -36.290 -32.970  0.00  0.00    -0.018 A 
ATOM     21  C   UNL     1      32.008 -34.914 -32.776  0.00  0.00    -0.031 A 
ATOM     22  C   UNL     1      31.575 -34.436 -31.546  0.00  0.00    +0.093 A 
ATOM     23  N   UNL     1      31.269 -35.310 -30.562  0.00  0.00    -0.147 NA
ATOM     24  N   UNL     1      31.396 -36.672 -30.760  0.00  0.00    -0.134 NA
BRANCH  22  25
ATOM     25  C   UNL     1      31.406 -33.004 -31.231  0.00  0.00    +0.002 A 
ATOM     26  C   UNL     1      32.340 -32.293 -30.453  0.00  0.00    -0.053 A 
ATOM     27  C   UNL     1      32.166 -30.935 -30.165  0.00  0.00    -0.061 A 
ATOM     28  C   UNL     1      31.050 -30.256 -30.646  0.00  0.00    -0.062 A 
ATOM     29  C   UNL     1      30.107 -30.935 -31.411  0.00  0.00    -0.061 A 
ATOM     30  C   UNL     1      30.284 -32.292 -31.696  0.00  0.00    -0.053 A 
ENDBRANCH  22  25
ENDBRANCH  17  19
ENDBRANCH  16  17
ENDBRANCH   1  16
TORSDOF 7
ENDMDL
MODEL 11
REMARK VINA RESULT:    -7.106     19.399     24.670
REMARK INTER + INTRA:         -10.666
REMARK INTER:                  -9.561
REMARK INTRA:                  -1.105
REMARK UNBOUND:                -0.652
REMARK  Name = cpd127.pdb
REMARK  7 active torsions:
REMARK  status: ('A' for Active; 'I' for Inactive)
REMARK    1  A    between atoms: C_4  and  C_5
REMARK    2  A    between atoms: C_5  and  N_6
REMARK    3  A    between atoms: C_9  and  C_10
REMARK    4  A    between atoms: C_10  and  C_11
REMARK    5  A    between atoms: C_11  and  N_12
REMARK    6  A    between atoms: N_12  and  C_13
REMARK    7  A    between atoms: C_16  and  C_17
REMARK                            x       y       z     vdW  Elec       q    Type
REMARK                         _______ _______ _______ _____ _____    ______ ____
ROOT
ATOM      1  C   UNL     1      45.161 -16.756 -34.929  0.00  0.00    -0.035 C 
ENDROOT
BRANCH   1   5
ATOM      2  N   UNL     1      46.082 -19.402 -38.183  0.00  0.00    -0.298 N 
ATOM      3  C   UNL     1      45.188 -19.981 -37.166  0.00  0.00    -0.001 C 
ATOM      4  C   UNL     1      45.079 -19.138 -35.883  0.00  0.00    -0.037 C 
ATOM      5  C   UNL     1      45.310 -17.651 -36.171  0.00  0.00    -0.037 C 
ATOM      6  C   UNL     1      46.705 -17.464 -36.803  0.00  0.00    -0.037 C 
ATOM      7  C   UNL     1      47.204 -18.700 -37.566  0.00  0.00    -0.001 C 
ATOM      8  H   UNL     1      45.537 -18.718 -38.708  0.00  0.00    +0.000 HD
BRANCH   2   9
ATOM      9  C   UNL     1      46.547 -20.416 -39.144  0.00  0.00    +0.024 C 
BRANCH   9  13
ATOM     10  C   UNL     1      44.611 -20.143 -42.999  0.00  0.00    -0.062 A 
ATOM     11  C   UNL     1      45.313 -21.295 -42.650  0.00  0.00    -0.061 A 
ATOM     12  C   UNL     1      45.940 -21.382 -41.407  0.00  0.00    -0.057 A 
ATOM     13  C   UNL     1      45.874 -20.315 -40.498  0.00  0.00    -0.033 A 
ATOM     14  C   UNL     1      45.162 -19.162 -40.859  0.00  0.00    -0.057 A 
ATOM     15  C   UNL     1      44.535 -19.077 -42.103  0.00  0.00    -0.061 A 
ENDBRANCH   9  13
ENDBRANCH   2   9
ENDBRANCH   1   5
BRANCH   1  16
ATOM     16  C   UNL     1      45.092 -17.548 -33.618  0.00  0.00    +0.011 C 
BRANCH  16  17
ATOM     17  N   UNL     1      44.038 -16.984 -32.774  0.00  0.00    -0.328 N 
ATOM     18  H   UNL     1      44.150 -16.156 -32.255  0.00  0.00    +0.000 HD
BRANCH  17  19
ATOM     19  C   UNL     1      42.855 -17.733 -32.774  0.00  0.00    +0.141 A 
ATOM     20  C   UNL     1      42.855 -19.116 -32.829  0.00  0.00    -0.018 A 
ATOM     21  C   UNL     1      41.641 -19.806 -32.821  0.00  0.00    -0.031 A 
ATOM     22  C   UNL     1      40.451 -19.092 -32.754  0.00  0.00    +0.093 A 
ATOM     23  N   UNL     1      40.487 -17.743 -32.681  0.00  0.00    -0.147 NA
ATOM     24  N   UNL     1      41.691 -17.066 -32.683  0.00  0.00    -0.134 NA
BRANCH  22  25
ATOM     25  C   UNL     1      39.114 -19.718 -32.745  0.00  0.00    +0.002 A 
ATOM     26  C   UNL     1      37.932 -18.955 -32.695  0.00  0.00    -0.053 A 
ATOM     27  C   UNL     1      36.672 -19.564 -32.689  0.00  0.00    -0.061 A 
ATOM     28  C   UNL     1      36.566 -20.952 -32.728  0.00  0.00    -0.062 A 
ATOM     29  C   UNL     1      37.718 -21.730 -32.770  0.00  0.00    -0.061 A 
ATOM     30  C   UNL     1      38.975 -21.118 -32.775  0.00  0.00    -0.053 A 
ENDBRANCH  22  25
ENDBRANCH  17  19
ENDBRANCH  16  17
ENDBRANCH   1  16
TORSDOF 7
ENDMDL
MODEL 12
REMARK VINA RESULT:    -7.065      6.017     10.030
REMARK INTER + INTRA:         -10.608
REMARK INTER:                  -9.968
REMARK INTRA:                  -0.641
REMARK UNBOUND:                -0.652
REMARK  Name = cpd127.pdb
REMARK  7 active torsions:
REMARK  status: ('A' for Active; 'I' for Inactive)
REMARK    1  A    between atoms: C_4  and  C_5
REMARK    2  A    between atoms: C_5  and  N_6
REMARK    3  A    between atoms: C_9  and  C_10
REMARK    4  A    between atoms: C_10  and  C_11
REMARK    5  A    between atoms: C_11  and  N_12
REMARK    6  A    between atoms: N_12  and  C_13
REMARK    7  A    between atoms: C_16  and  C_17
REMARK                            x       y       z     vdW  Elec       q    Type
REMARK                         _______ _______ _______ _____ _____    ______ ____
ROOT
ATOM      1  C   UNL     1      32.874 -36.628 -28.327  0.00  0.00    -0.035 C 
ENDROOT
BRANCH   1   5
ATOM      2  N   UNL     1      37.021 -37.375 -29.147  0.00  0.00    -0.298 N 
ATOM      3  C   UNL     1      36.105 -37.809 -30.215  0.00  0.00    -0.001 C 
ATOM      4  C   UNL     1      34.622 -37.787 -29.807  0.00  0.00    -0.037 C 
ATOM      5  C   UNL     1      34.353 -36.727 -28.734  0.00  0.00    -0.037 C 
ATOM      6  C   UNL     1      35.231 -37.017 -27.499  0.00  0.00    -0.037 C 
ATOM      7  C   UNL     1      36.527 -37.771 -27.830  0.00  0.00    -0.001 C 
ATOM      8  H   UNL     1      37.054 -36.356 -29.173  0.00  0.00    +0.000 HD
BRANCH   2   9
ATOM      9  C   UNL     1      38.394 -37.859 -29.372  0.00  0.00    +0.024 C 
BRANCH   9  13
ATOM     10  C   UNL     1      40.802 -35.179 -31.759  0.00  0.00    -0.062 A 
ATOM     11  C   UNL     1      41.414 -36.136 -30.950  0.00  0.00    -0.061 A 
ATOM     12  C   UNL     1      40.636 -36.999 -30.178  0.00  0.00    -0.057 A 
ATOM     13  C   UNL     1      39.236 -36.913 -30.204  0.00  0.00    -0.033 A 
ATOM     14  C   UNL     1      38.632 -35.949 -31.023  0.00  0.00    -0.057 A 
ATOM     15  C   UNL     1      39.412 -35.087 -31.796  0.00  0.00    -0.061 A 
ENDBRANCH   9  13
ENDBRANCH   2   9
ENDBRANCH   1   5
BRANCH   1  16
ATOM     16  C   UNL     1      32.423 -35.195 -28.024  0.00  0.00    +0.011 C 
BRANCH  16  17
ATOM     17  N   UNL     1      33.189 -34.266 -28.856  0.00  0.00    -0.328 N 
ATOM     18  H   UNL     1      34.171 -34.290 -28.925  0.00  0.00    +0.000 HD
BRANCH  17  19
ATOM     19  C   UNL     1      32.396 -33.341 -29.546  0.00  0.00    +0.141 A 
ATOM     20  C   UNL     1      32.836 -32.060 -29.833  0.00  0.00    -0.018 A 
ATOM     21  C   UNL     1      31.999 -31.185 -30.528  0.00  0.00    -0.031 A 
ATOM     22  C   UNL     1      30.738 -31.615 -30.923  0.00  0.00    +0.093 A 
ATOM     23  N   UNL     1      30.348 -32.878 -30.645  0.00  0.00    -0.147 NA
ATOM     24  N   UNL     1      31.182 -33.742 -29.961  0.00  0.00    -0.134 NA
BRANCH  22  25
ATOM     25  C   UNL     1      29.773 -30.773 -31.656  0.00  0.00    +0.002 A 
ATOM     26  C   UNL     1      29.678 -29.384 -31.444  0.00  0.00    -0.053 A 
ATOM     27  C   UNL     1      28.758 -28.600 -32.149  0.00  0.00    -0.061 A 
ATOM     28  C   UNL     1      27.908 -29.188 -33.081  0.00  0.00    -0.062 A 
ATOM     29  C   UNL     1      27.974 -30.560 -33.305  0.00  0.00    -0.061 A 
ATOM     30  C   UNL     1      28.894 -31.340 -32.598  0.00  0.00    -0.053 A 
ENDBRANCH  22  25
ENDBRANCH  17  19
ENDBRANCH  16  17
ENDBRANCH   1  16
TORSDOF 7
ENDMDL
MODEL 13
REMARK VINA RESULT:    -7.040      5.937      9.016
REMARK INTER + INTRA:         -10.573
REMARK INTER:                  -9.722
REMARK INTRA:                  -0.851
REMARK UNBOUND:                -0.652
REMARK  Name = cpd127.pdb
REMARK  7 active torsions:
REMARK  status: ('A' for Active; 'I' for Inactive)
REMARK    1  A    between atoms: C_4  and  C_5
REMARK    2  A    between atoms: C_5  and  N_6
REMARK    3  A    between atoms: C_9  and  C_10
REMARK    4  A    between atoms: C_10  and  C_11
REMARK    5  A    between atoms: C_11  and  N_12
REMARK    6  A    between atoms: N_12  and  C_13
REMARK    7  A    between atoms: C_16  and  C_17
REMARK                            x       y       z     vdW  Elec       q    Type
REMARK                         _______ _______ _______ _____ _____    ______ ____
ROOT
ATOM      1  C   UNL     1      32.366 -36.593 -29.774  0.00  0.00    -0.035 C 
ENDROOT
BRANCH   1   5
ATOM      2  N   UNL     1      31.017 -32.534 -30.147  0.00  0.00    -0.298 N 
ATOM      3  C   UNL     1      30.493 -33.444 -31.180  0.00  0.00    -0.001 C 
ATOM      4  C   UNL     1      31.183 -34.819 -31.203  0.00  0.00    -0.037 C 
ATOM      5  C   UNL     1      31.712 -35.202 -29.817  0.00  0.00    -0.037 C 
ATOM      6  C   UNL     1      32.707 -34.126 -29.336  0.00  0.00    -0.037 C 
ATOM      7  C   UNL     1      32.449 -32.737 -29.937  0.00  0.00    -0.001 C 
ATOM      8  H   UNL     1      30.539 -32.761 -29.275  0.00  0.00    +0.000 HD
BRANCH   2   9
ATOM      9  C   UNL     1      30.714 -31.126 -30.453  0.00  0.00    +0.024 C 
BRANCH   9  13
ATOM     10  C   UNL     1      28.028 -29.287 -27.611  0.00  0.00    -0.062 A 
ATOM     11  C   UNL     1      28.378 -28.611 -28.779  0.00  0.00    -0.061 A 
ATOM     12  C   UNL     1      29.247 -29.204 -29.695  0.00  0.00    -0.057 A 
ATOM     13  C   UNL     1      29.779 -30.480 -29.452  0.00  0.00    -0.033 A 
ATOM     14  C   UNL     1      29.417 -31.151 -28.275  0.00  0.00    -0.057 A 
ATOM     15  C   UNL     1      28.546 -30.556 -27.360  0.00  0.00    -0.061 A 
ENDBRANCH   9  13
ENDBRANCH   2   9
ENDBRANCH   1   5
BRANCH   1  16
ATOM     16  C   UNL     1      33.806 -36.601 -30.299  0.00  0.00    +0.011 C 
BRANCH  16  17
ATOM     17  N   UNL     1      34.657 -37.319 -29.351  0.00  0.00    -0.328 N 
ATOM     18  H   UNL     1      34.302 -37.825 -28.585  0.00  0.00    +0.000 HD
BRANCH  17  19
ATOM     19  C   UNL     1      36.026 -37.219 -29.633  0.00  0.00    +0.141 A 
ATOM     20  C   UNL     1      36.987 -37.850 -28.862  0.00  0.00    -0.018 A 
ATOM     21  C   UNL     1      38.335 -37.715 -29.198  0.00  0.00    -0.031 A 
ATOM     22  C   UNL     1      38.691 -36.954 -30.304  0.00  0.00    +0.093 A 
ATOM     23  N   UNL     1      37.725 -36.369 -31.048  0.00  0.00    -0.147 NA
ATOM     24  N   UNL     1      36.392 -36.509 -30.714  0.00  0.00    -0.134 NA
BRANCH  22  25
ATOM     25  C   UNL     1      40.083 -36.741 -30.746  0.00  0.00    +0.002 A 
ATOM     26  C   UNL     1      41.109 -37.661 -30.457  0.00  0.00    -0.053 A 
ATOM     27  C   UNL     1      42.423 -37.446 -30.885  0.00  0.00    -0.061 A 
ATOM     28  C   UNL     1      42.743 -36.301 -31.610  0.00  0.00    -0.062 A 
ATOM     29  C   UNL     1      41.751 -35.371 -31.903  0.00  0.00    -0.061 A 
ATOM     30  C   UNL     1      40.439 -35.589 -31.473  0.00  0.00    -0.053 A 
ENDBRANCH  22  25
ENDBRANCH  17  19
ENDBRANCH  16  17
ENDBRANCH   1  16
TORSDOF 7
ENDMDL
MODEL 14
REMARK VINA RESULT:    -7.020      8.451     11.398
REMARK INTER + INTRA:         -10.546
REMARK INTER:                  -9.827
REMARK INTRA:                  -0.718
REMARK UNBOUND:                -0.652
REMARK  Name = cpd127.pdb
REMARK  7 active torsions:
REMARK  status: ('A' for Active; 'I' for Inactive)
REMARK    1  A    between atoms: C_4  and  C_5
REMARK    2  A    between atoms: C_5  and  N_6
REMARK    3  A    between atoms: C_9  and  C_10
REMARK    4  A    between atoms: C_10  and  C_11
REMARK    5  A    between atoms: C_11  and  N_12
REMARK    6  A    between atoms: N_12  and  C_13
REMARK    7  A    between atoms: C_16  and  C_17
REMARK                            x       y       z     vdW  Elec       q    Type
REMARK                         _______ _______ _______ _____ _____    ______ ____
ROOT
ATOM      1  C   UNL     1      31.028 -32.103 -28.956  0.00  0.00    -0.035 C 
ENDROOT
BRANCH   1   5
ATOM      2  N   UNL     1      29.205 -28.263 -29.554  0.00  0.00    -0.298 N 
ATOM      3  C   UNL     1      28.608 -29.054 -28.465  0.00  0.00    -0.001 C 
ATOM      4  C   UNL     1      29.079 -30.518 -28.431  0.00  0.00    -0.037 C 
ATOM      5  C   UNL     1      30.488 -30.665 -29.014  0.00  0.00    -0.037 C 
ATOM      6  C   UNL     1      30.496 -30.147 -30.467  0.00  0.00    -0.037 C 
ATOM      7  C   UNL     1      29.426 -29.081 -30.745  0.00  0.00    -0.001 C 
ATOM      8  H   UNL     1      30.114 -27.937 -29.228  0.00  0.00    +0.000 HD
BRANCH   2   9
ATOM      9  C   UNL     1      28.403 -27.068 -29.867  0.00  0.00    +0.024 C 
BRANCH   9  13
ATOM     10  C   UNL     1      27.937 -24.373 -26.521  0.00  0.00    -0.062 A 
ATOM     11  C   UNL     1      29.198 -24.587 -27.074  0.00  0.00    -0.061 A 
ATOM     12  C   UNL     1      29.348 -25.459 -28.153  0.00  0.00    -0.057 A 
ATOM     13  C   UNL     1      28.238 -26.130 -28.689  0.00  0.00    -0.033 A 
ATOM     14  C   UNL     1      26.975 -25.904 -28.125  0.00  0.00    -0.057 A 
ATOM     15  C   UNL     1      26.826 -25.030 -27.046  0.00  0.00    -0.061 A 
ENDBRANCH   9  13
ENDBRANCH   2   9
ENDBRANCH   1   5
BRANCH   1  16
ATOM     16  C   UNL     1      32.049 -32.411 -30.057  0.00  0.00    +0.011 C 
BRANCH  16  17
ATOM     17  N   UNL     1      32.070 -33.854 -30.302  0.00  0.00    -0.328 N 
ATOM     18  H   UNL     1      31.266 -34.371 -30.536  0.00  0.00    +0.000 HD
BRANCH  17  19
ATOM     19  C   UNL     1      33.339 -34.430 -30.172  0.00  0.00    +0.141 A 
ATOM     20  C   UNL     1      34.497 -33.756 -30.521  0.00  0.00    -0.018 A 
ATOM     21  C   UNL     1      35.733 -34.385 -30.363  0.00  0.00    -0.031 A 
ATOM     22  C   UNL     1      35.783 -35.677 -29.854  0.00  0.00    +0.093 A 
ATOM     23  N   UNL     1      34.635 -36.299 -29.504  0.00  0.00    -0.147 NA
ATOM     24  N   UNL     1      33.414 -35.670 -29.657  0.00  0.00    -0.134 NA
BRANCH  22  25
ATOM     25  C   UNL     1      37.032 -36.435 -29.652  0.00  0.00    +0.002 A 
ATOM     26  C   UNL     1      38.139 -36.298 -30.511  0.00  0.00    -0.053 A 
ATOM     27  C   UNL     1      39.318 -37.023 -30.303  0.00  0.00    -0.061 A 
ATOM     28  C   UNL     1      39.415 -37.908 -29.232  0.00  0.00    -0.062 A 
ATOM     29  C   UNL     1      38.333 -38.069 -28.372  0.00  0.00    -0.061 A 
ATOM     30  C   UNL     1      37.157 -37.343 -28.583  0.00  0.00    -0.053 A 
ENDBRANCH  22  25
ENDBRANCH  17  19
ENDBRANCH  16  17
ENDBRANCH   1  16
TORSDOF 7
ENDMDL
MODEL 15
REMARK VINA RESULT:    -6.960     19.879     23.599
REMARK INTER + INTRA:         -10.461
REMARK INTER:                  -9.443
REMARK INTRA:                  -1.018
REMARK UNBOUND:                -0.652
REMARK  Name = cpd127.pdb
REMARK  7 active torsions:
REMARK  status: ('A' for Active; 'I' for Inactive)
REMARK    1  A    between atoms: C_4  and  C_5
REMARK    2  A    between atoms: C_5  and  N_6
REMARK    3  A    between atoms: C_9  and  C_10
REMARK    4  A    between atoms: C_10  and  C_11
REMARK    5  A    between atoms: C_11  and  N_12
REMARK    6  A    between atoms: N_12  and  C_13
REMARK    7  A    between atoms: C_16  and  C_17
REMARK                            x       y       z     vdW  Elec       q    Type
REMARK                         _______ _______ _______ _____ _____    ______ ____
ROOT
ATOM      1  C   UNL     1      40.277 -21.882 -37.820  0.00  0.00    -0.035 C 
ENDROOT
BRANCH   1   5
ATOM      2  N   UNL     1      44.033 -21.033 -39.718  0.00  0.00    -0.298 N 
ATOM      3  C   UNL     1      43.794 -20.272 -38.481  0.00  0.00    -0.001 C 
ATOM      4  C   UNL     1      42.351 -20.376 -37.957  0.00  0.00    -0.037 C 
ATOM      5  C   UNL     1      41.704 -21.704 -38.363  0.00  0.00    -0.037 C 
ATOM      6  C   UNL     1      41.712 -21.826 -39.901  0.00  0.00    -0.037 C 
ATOM      7  C   UNL     1      42.848 -21.043 -40.574  0.00  0.00    -0.001 C 
ATOM      8  H   UNL     1      44.227 -21.997 -39.446  0.00  0.00    +0.000 HD
BRANCH   2   9
ATOM      9  C   UNL     1      45.215 -20.541 -40.445  0.00  0.00    +0.024 C 
BRANCH   9  13
ATOM     10  C   UNL     1      47.740 -23.691 -41.988  0.00  0.00    -0.062 A 
ATOM     11  C   UNL     1      46.695 -23.191 -42.763  0.00  0.00    -0.061 A 
ATOM     12  C   UNL     1      45.879 -22.176 -42.264  0.00  0.00    -0.057 A 
ATOM     13  C   UNL     1      46.097 -21.651 -40.980  0.00  0.00    -0.033 A 
ATOM     14  C   UNL     1      47.153 -22.160 -40.212  0.00  0.00    -0.057 A 
ATOM     15  C   UNL     1      47.969 -23.175 -40.713  0.00  0.00    -0.061 A 
ENDBRANCH   9  13
ENDBRANCH   2   9
ENDBRANCH   1   5
BRANCH   1  16
ATOM     16  C   UNL     1      40.171 -22.961 -36.736  0.00  0.00    +0.011 C 
BRANCH  16  17
ATOM     17  N   UNL     1      40.782 -22.462 -35.504  0.00  0.00    -0.328 N 
ATOM     18  H   UNL     1      41.623 -22.818 -35.138  0.00  0.00    +0.000 HD
BRANCH  17  19
ATOM     19  C   UNL     1      40.058 -21.431 -34.892  0.00  0.00    +0.141 A 
ATOM     20  C   UNL     1      40.626 -20.204 -34.596  0.00  0.00    -0.018 A 
ATOM     21  C   UNL     1      39.850 -19.214 -33.990  0.00  0.00    -0.031 A 
ATOM     22  C   UNL     1      38.518 -19.476 -33.697  0.00  0.00    +0.093 A 
ATOM     23  N   UNL     1      37.989 -20.677 -34.018  0.00  0.00    -0.147 NA
ATOM     24  N   UNL     1      38.760 -21.651 -34.622  0.00  0.00    -0.134 NA
BRANCH  22  25
ATOM     25  C   UNL     1      37.610 -18.506 -33.053  0.00  0.00    +0.002 A 
ATOM     26  C   UNL     1      36.219 -18.714 -32.986  0.00  0.00    -0.053 A 
ATOM     27  C   UNL     1      35.372 -17.786 -32.370  0.00  0.00    -0.061 A 
ATOM     28  C   UNL     1      35.897 -16.624 -31.811  0.00  0.00    -0.062 A 
ATOM     29  C   UNL     1      37.267 -16.389 -31.871  0.00  0.00    -0.061 A 
ATOM     30  C   UNL     1      38.110 -17.318 -32.487  0.00  0.00    -0.053 A 
ENDBRANCH  22  25
ENDBRANCH  17  19
ENDBRANCH  16  17
ENDBRANCH   1  16
TORSDOF 7
ENDMDL
MODEL 16
REMARK VINA RESULT:    -6.926     18.721     22.646
REMARK INTER + INTRA:         -10.413
REMARK INTER:                  -9.362
REMARK INTRA:                  -1.051
REMARK UNBOUND:                -0.652
REMARK  Name = cpd127.pdb
REMARK  7 active torsions:
REMARK  status: ('A' for Active; 'I' for Inactive)
REMARK    1  A    between atoms: C_4  and  C_5
REMARK    2  A    between atoms: C_5  and  N_6
REMARK    3  A    between atoms: C_9  and  C_10
REMARK    4  A    between atoms: C_10  and  C_11
REMARK    5  A    between atoms: C_11  and  N_12
REMARK    6  A    between atoms: N_12  and  C_13
REMARK    7  A    between atoms: C_16  and  C_17
REMARK                            x       y       z     vdW  Elec       q    Type
REMARK                         _______ _______ _______ _____ _____    ______ ____
ROOT
ATOM      1  C   UNL     1      45.228 -17.308 -33.828  0.00  0.00    -0.035 C 
ENDROOT
BRANCH   1   5
ATOM      2  N   UNL     1      41.264 -18.867 -33.284  0.00  0.00    -0.298 N 
ATOM      3  C   UNL     1      41.462 -17.511 -32.743  0.00  0.00    -0.001 C 
ATOM      4  C   UNL     1      42.935 -17.070 -32.699  0.00  0.00    -0.037 C 
ATOM      5  C   UNL     1      43.757 -17.755 -33.795  0.00  0.00    -0.037 C 
ATOM      6  C   UNL     1      43.665 -19.285 -33.621  0.00  0.00    -0.037 C 
ATOM      7  C   UNL     1      42.375 -19.748 -32.929  0.00  0.00    -0.001 C 
ATOM      8  H   UNL     1      41.245 -18.785 -34.301  0.00  0.00    +0.000 HD
BRANCH   2   9
ATOM      9  C   UNL     1      39.972 -19.439 -32.871  0.00  0.00    +0.024 C 
BRANCH   9  13
ATOM     10  C   UNL     1      38.979 -23.077 -34.981  0.00  0.00    -0.062 A 
ATOM     11  C   UNL     1      39.175 -21.891 -35.687  0.00  0.00    -0.061 A 
ATOM     12  C   UNL     1      39.494 -20.717 -35.005  0.00  0.00    -0.057 A 
ATOM     13  C   UNL     1      39.616 -20.714 -33.607  0.00  0.00    -0.033 A 
ATOM     14  C   UNL     1      39.419 -21.913 -32.909  0.00  0.00    -0.057 A 
ATOM     15  C   UNL     1      39.101 -23.088 -33.593  0.00  0.00    -0.061 A 
ENDBRANCH   9  13
ENDBRANCH   2   9
ENDBRANCH   1   5
BRANCH   1  16
ATOM     16  C   UNL     1      46.099 -18.162 -34.756  0.00  0.00    +0.011 C 
BRANCH  16  17
ATOM     17  N   UNL     1      45.992 -17.646 -36.121  0.00  0.00    -0.328 N 
ATOM     18  H   UNL     1      45.871 -16.692 -36.328  0.00  0.00    +0.000 HD
BRANCH  17  19
ATOM     19  C   UNL     1      46.079 -18.637 -37.107  0.00  0.00    +0.141 A 
ATOM     20  C   UNL     1      45.069 -19.560 -37.319  0.00  0.00    -0.018 A 
ATOM     21  C   UNL     1      45.215 -20.521 -38.321  0.00  0.00    -0.031 A 
ATOM     22  C   UNL     1      46.369 -20.534 -39.093  0.00  0.00    +0.093 A 
ATOM     23  N   UNL     1      47.327 -19.606 -38.873  0.00  0.00    -0.147 NA
ATOM     24  N   UNL     1      47.176 -18.654 -37.884  0.00  0.00    -0.134 NA
BRANCH  22  25
ATOM     25  C   UNL     1      46.629 -21.506 -40.172  0.00  0.00    +0.002 A 
ATOM     26  C   UNL     1      47.752 -22.355 -40.161  0.00  0.00    -0.053 A 
ATOM     27  C   UNL     1      47.982 -23.273 -41.193  0.00  0.00    -0.061 A 
ATOM     28  C   UNL     1      47.094 -23.360 -42.262  0.00  0.00    -0.062 A 
ATOM     29  C   UNL     1      45.980 -22.528 -42.302  0.00  0.00    -0.061 A 
ATOM     30  C   UNL     1      45.754 -21.611 -41.271  0.00  0.00    -0.053 A 
ENDBRANCH  22  25
ENDBRANCH  17  19
ENDBRANCH  16  17
ENDBRANCH   1  16
TORSDOF 7
ENDMDL
MODEL 17
REMARK VINA RESULT:    -6.559     18.560     23.429
REMARK INTER + INTRA:          -9.896
REMARK INTER:                  -8.313
REMARK INTRA:                  -1.583
REMARK UNBOUND:                -0.652
REMARK  Name = cpd127.pdb
REMARK  7 active torsions:
REMARK  status: ('A' for Active; 'I' for Inactive)
REMARK    1  A    between atoms: C_4  and  C_5
REMARK    2  A    between atoms: C_5  and  N_6
REMARK    3  A    between atoms: C_9  and  C_10
REMARK    4  A    between atoms: C_10  and  C_11
REMARK    5  A    between atoms: C_11  and  N_12
REMARK    6  A    between atoms: N_12  and  C_13
REMARK    7  A    between atoms: C_16  and  C_17
REMARK                            x       y       z     vdW  Elec       q    Type
REMARK                         _______ _______ _______ _____ _____    ______ ____
ROOT
ATOM      1  C   UNL     1      44.919 -20.194 -41.219  0.00  0.00    -0.035 C 
ENDROOT
BRANCH   1   5
ATOM      2  N   UNL     1      46.732 -18.689 -37.630  0.00  0.00    -0.298 N 
ATOM      3  C   UNL     1      46.793 -20.154 -37.771  0.00  0.00    -0.001 C 
ATOM      4  C   UNL     1      45.916 -20.704 -38.909  0.00  0.00    -0.037 C 
ATOM      5  C   UNL     1      45.745 -19.675 -40.031  0.00  0.00    -0.037 C 
ATOM      6  C   UNL     1      45.109 -18.393 -39.454  0.00  0.00    -0.037 C 
ATOM      7  C   UNL     1      45.404 -18.178 -37.963  0.00  0.00    -0.001 C 
ATOM      8  H   UNL     1      47.394 -18.295 -38.298  0.00  0.00    +0.000 HD
BRANCH   2   9
ATOM      9  C   UNL     1      47.155 -18.250 -36.289  0.00  0.00    +0.024 C 
BRANCH   9  13
ATOM     10  C   UNL     1      44.070 -18.713 -33.298  0.00  0.00    -0.062 A 
ATOM     11  C   UNL     1      44.499 -17.440 -33.668  0.00  0.00    -0.061 A 
ATOM     12  C   UNL     1      45.497 -17.291 -34.631  0.00  0.00    -0.057 A 
ATOM     13  C   UNL     1      46.079 -18.416 -35.236  0.00  0.00    -0.033 A 
ATOM     14  C   UNL     1      45.637 -19.691 -34.858  0.00  0.00    -0.057 A 
ATOM     15  C   UNL     1      44.638 -19.838 -33.893  0.00  0.00    -0.061 A 
ENDBRANCH   9  13
ENDBRANCH   2   9
ENDBRANCH   1   5
BRANCH   1  16
ATOM     16  C   UNL     1      44.077 -21.430 -40.877  0.00  0.00    +0.011 C 
BRANCH  16  17
ATOM     17  N   UNL     1      42.688 -21.021 -40.671  0.00  0.00    -0.328 N 
ATOM     18  H   UNL     1      42.118 -20.671 -41.393  0.00  0.00    +0.000 HD
BRANCH  17  19
ATOM     19  C   UNL     1      42.244 -21.173 -39.352  0.00  0.00    +0.141 A 
ATOM     20  C   UNL     1      42.228 -20.121 -38.452  0.00  0.00    -0.018 A 
ATOM     21  C   UNL     1      41.769 -20.337 -37.151  0.00  0.00    -0.031 A 
ATOM     22  C   UNL     1      41.333 -21.603 -36.781  0.00  0.00    +0.093 A 
ATOM     23  N   UNL     1      41.343 -22.602 -37.691  0.00  0.00    -0.147 NA
ATOM     24  N   UNL     1      41.793 -22.383 -38.978  0.00  0.00    -0.134 NA
BRANCH  22  25
ATOM     25  C   UNL     1      40.834 -21.942 -35.434  0.00  0.00    +0.002 A 
ATOM     26  C   UNL     1      39.874 -22.950 -35.224  0.00  0.00    -0.053 A 
ATOM     27  C   UNL     1      39.413 -23.261 -33.939  0.00  0.00    -0.061 A 
ATOM     28  C   UNL     1      39.899 -22.567 -32.835  0.00  0.00    -0.062 A 
ATOM     29  C   UNL     1      40.843 -21.561 -33.015  0.00  0.00    -0.061 A 
ATOM     30  C   UNL     1      41.301 -21.253 -34.299  0.00  0.00    -0.053 A 
ENDBRANCH  22  25
ENDBRANCH  17  19
ENDBRANCH  16  17
ENDBRANCH   1  16
TORSDOF 7
ENDMDL
MODEL 18
REMARK VINA RESULT:    -6.543     18.710     23.367
REMARK INTER + INTRA:          -9.872
REMARK INTER:                  -8.916
REMARK INTRA:                  -0.956
REMARK UNBOUND:                -0.652
REMARK  Name = cpd127.pdb
REMARK  7 active torsions:
REMARK  status: ('A' for Active; 'I' for Inactive)
REMARK    1  A    between atoms: C_4  and  C_5
REMARK    2  A    between atoms: C_5  and  N_6
REMARK    3  A    between atoms: C_9  and  C_10
REMARK    4  A    between atoms: C_10  and  C_11
REMARK    5  A    between atoms: C_11  and  N_12
REMARK    6  A    between atoms: N_12  and  C_13
REMARK    7  A    between atoms: C_16  and  C_17
REMARK                            x       y       z     vdW  Elec       q    Type
REMARK                         _______ _______ _______ _____ _____    ______ ____
ROOT
ATOM      1  C   UNL     1      39.914 -22.691 -36.133  0.00  0.00    -0.035 C 
ENDROOT
BRANCH   1   5
ATOM      2  N   UNL     1      43.178 -20.850 -38.228  0.00  0.00    -0.298 N 
ATOM      3  C   UNL     1      43.234 -20.696 -36.765  0.00  0.00    -0.001 C 
ATOM      4  C   UNL     1      41.940 -21.117 -36.047  0.00  0.00    -0.037 C 
ATOM      5  C   UNL     1      41.191 -22.197 -36.834  0.00  0.00    -0.037 C 
ATOM      6  C   UNL     1      40.857 -21.662 -38.242  0.00  0.00    -0.037 C 
ATOM      7  C   UNL     1      41.834 -20.588 -38.739  0.00  0.00    -0.001 C 
ATOM      8  H   UNL     1      43.407 -21.821 -38.438  0.00  0.00    +0.000 HD
BRANCH   2   9
ATOM      9  C   UNL     1      44.182 -20.012 -38.906  0.00  0.00    +0.024 C 
BRANCH   9  13
ATOM     10  C   UNL     1      45.243 -21.422 -42.851  0.00  0.00    -0.062 A 
ATOM     11  C   UNL     1      44.536 -20.230 -42.702  0.00  0.00    -0.061 A 
ATOM     12  C   UNL     1      44.191 -19.776 -41.429  0.00  0.00    -0.057 A 
ATOM     13  C   UNL     1      44.548 -20.513 -40.288  0.00  0.00    -0.033 A 
ATOM     14  C   UNL     1      45.262 -21.708 -40.451  0.00  0.00    -0.057 A 
ATOM     15  C   UNL     1      45.606 -22.160 -41.726  0.00  0.00    -0.061 A 
ENDBRANCH   9  13
ENDBRANCH   2   9
ENDBRANCH   1   5
BRANCH   1  16
ATOM     16  C   UNL     1      40.139 -23.076 -34.666  0.00  0.00    +0.011 C 
BRANCH  16  17
ATOM     17  N   UNL     1      38.870 -22.980 -33.946  0.00  0.00    -0.328 N 
ATOM     18  H   UNL     1      38.292 -23.757 -33.769  0.00  0.00    +0.000 HD
BRANCH  17  19
ATOM     19  C   UNL     1      38.553 -21.681 -33.531  0.00  0.00    +0.141 A 
ATOM     20  C   UNL     1      37.249 -21.220 -33.474  0.00  0.00    -0.018 A 
ATOM     21  C   UNL     1      36.998 -19.915 -33.047  0.00  0.00    -0.031 A 
ATOM     22  C   UNL     1      38.062 -19.099 -32.683  0.00  0.00    +0.093 A 
ATOM     23  N   UNL     1      39.321 -19.587 -32.730  0.00  0.00    -0.147 NA
ATOM     24  N   UNL     1      39.564 -20.881 -33.148  0.00  0.00    -0.134 NA
BRANCH  22  25
ATOM     25  C   UNL     1      37.912 -17.705 -32.223  0.00  0.00    +0.002 A 
ATOM     26  C   UNL     1      36.658 -17.067 -32.163  0.00  0.00    -0.053 A 
ATOM     27  C   UNL     1      36.532 -15.745 -31.723  0.00  0.00    -0.061 A 
ATOM     28  C   UNL     1      37.661 -15.028 -31.336  0.00  0.00    -0.062 A 
ATOM     29  C   UNL     1      38.913 -15.630 -31.392  0.00  0.00    -0.061 A 
ATOM     30  C   UNL     1      39.035 -16.951 -31.833  0.00  0.00    -0.053 A 
ENDBRANCH  22  25
ENDBRANCH  17  19
ENDBRANCH  16  17
ENDBRANCH   1  16
TORSDOF 7
ENDMDL
MODEL 19
REMARK VINA RESULT:    -6.542     19.554     23.688
REMARK INTER + INTRA:          -9.871
REMARK INTER:                  -7.855
REMARK INTRA:                  -2.016
REMARK UNBOUND:                -0.652
REMARK  Name = cpd127.pdb
REMARK  7 active torsions:
REMARK  status: ('A' for Active; 'I' for Inactive)
REMARK    1  A    between atoms: C_4  and  C_5
REMARK    2  A    between atoms: C_5  and  N_6
REMARK    3  A    between atoms: C_9  and  C_10
REMARK    4  A    between atoms: C_10  and  C_11
REMARK    5  A    between atoms: C_11  and  N_12
REMARK    6  A    between atoms: N_12  and  C_13
REMARK    7  A    between atoms: C_16  and  C_17
REMARK                            x       y       z     vdW  Elec       q    Type
REMARK                         _______ _______ _______ _____ _____    ______ ____
ROOT
ATOM      1  C   UNL     1      46.920 -17.617 -36.303  0.00  0.00    -0.035 C 
ENDROOT
BRANCH   1   5
ATOM      2  N   UNL     1      43.493 -19.305 -38.263  0.00  0.00    -0.298 N 
ATOM      3  C   UNL     1      44.771 -19.947 -38.617  0.00  0.00    -0.001 C 
ATOM      4  C   UNL     1      46.009 -19.175 -38.128  0.00  0.00    -0.037 C 
ATOM      5  C   UNL     1      45.700 -18.367 -36.864  0.00  0.00    -0.037 C 
ATOM      6  C   UNL     1      44.551 -17.380 -37.157  0.00  0.00    -0.037 C 
ATOM      7  C   UNL     1      43.610 -17.848 -38.275  0.00  0.00    -0.001 C 
ATOM      8  H   UNL     1      43.266 -19.591 -37.311  0.00  0.00    +0.000 HD
BRANCH   2   9
ATOM      9  C   UNL     1      42.393 -19.762 -39.128  0.00  0.00    +0.024 C 
BRANCH   9  13
ATOM     10  C   UNL     1      39.204 -21.704 -36.953  0.00  0.00    -0.062 A 
ATOM     11  C   UNL     1      40.277 -21.141 -36.264  0.00  0.00    -0.061 A 
ATOM     12  C   UNL     1      41.307 -20.517 -36.967  0.00  0.00    -0.057 A 
ATOM     13  C   UNL     1      41.277 -20.450 -38.369  0.00  0.00    -0.033 A 
ATOM     14  C   UNL     1      40.191 -21.018 -39.050  0.00  0.00    -0.057 A 
ATOM     15  C   UNL     1      39.161 -21.642 -38.344  0.00  0.00    -0.061 A 
ENDBRANCH   9  13
ENDBRANCH   2   9
ENDBRANCH   1   5
BRANCH   1  16
ATOM     16  C   UNL     1      47.465 -18.230 -35.008  0.00  0.00    +0.011 C 
BRANCH  16  17
ATOM     17  N   UNL     1      46.819 -17.587 -33.864  0.00  0.00    -0.328 N 
ATOM     18  H   UNL     1      47.264 -16.909 -33.306  0.00  0.00    +0.000 HD
BRANCH  17  19
ATOM     19  C   UNL     1      45.508 -18.025 -33.637  0.00  0.00    +0.141 A 
ATOM     20  C   UNL     1      44.474 -17.148 -33.360  0.00  0.00    -0.018 A 
ATOM     21  C   UNL     1      43.187 -17.647 -33.147  0.00  0.00    -0.031 A 
ATOM     22  C   UNL     1      42.965 -19.016 -33.220  0.00  0.00    +0.093 A 
ATOM     23  N   UNL     1      43.994 -19.843 -33.513  0.00  0.00    -0.147 NA
ATOM     24  N   UNL     1      45.264 -19.344 -33.728  0.00  0.00    -0.134 NA
BRANCH  22  25
ATOM     25  C   UNL     1      41.650 -19.651 -33.007  0.00  0.00    +0.002 A 
ATOM     26  C   UNL     1      40.447 -18.922 -33.079  0.00  0.00    -0.053 A 
ATOM     27  C   UNL     1      39.207 -19.540 -32.877  0.00  0.00    -0.061 A 
ATOM     28  C   UNL     1      39.143 -20.901 -32.593  0.00  0.00    -0.062 A 
ATOM     29  C   UNL     1      40.316 -21.643 -32.508  0.00  0.00    -0.061 A 
ATOM     30  C   UNL     1      41.553 -21.023 -32.710  0.00  0.00    -0.053 A 
ENDBRANCH  22  25
ENDBRANCH  17  19
ENDBRANCH  16  17
ENDBRANCH   1  16
TORSDOF 7
ENDMDL
MODEL 20
REMARK VINA RESULT:    -6.279     18.836     24.750
REMARK INTER + INTRA:          -9.501
REMARK INTER:                  -8.388
REMARK INTRA:                  -1.113
REMARK UNBOUND:                -0.652
REMARK  Name = cpd127.pdb
REMARK  7 active torsions:
REMARK  status: ('A' for Active; 'I' for Inactive)
REMARK    1  A    between atoms: C_4  and  C_5
REMARK    2  A    between atoms: C_5  and  N_6
REMARK    3  A    between atoms: C_9  and  C_10
REMARK    4  A    between atoms: C_10  and  C_11
REMARK    5  A    between atoms: C_11  and  N_12
REMARK    6  A    between atoms: N_12  and  C_13
REMARK    7  A    between atoms: C_16  and  C_17
REMARK                            x       y       z     vdW  Elec       q    Type
REMARK                         _______ _______ _______ _____ _____    ______ ____
ROOT
ATOM      1  C   UNL     1      44.569 -16.505 -35.397  0.00  0.00    -0.035 C 
ENDROOT
BRANCH   1   5
ATOM      2  N   UNL     1      44.323 -17.830 -39.473  0.00  0.00    -0.298 N 
ATOM      3  C   UNL     1      44.721 -16.421 -39.317  0.00  0.00    -0.001 C 
ATOM      4  C   UNL     1      44.548 -15.882 -37.886  0.00  0.00    -0.037 C 
ATOM      5  C   UNL     1      44.683 -17.000 -36.848  0.00  0.00    -0.037 C 
ATOM      6  C   UNL     1      43.625 -18.088 -37.128  0.00  0.00    -0.037 C 
ATOM      7  C   UNL     1      43.198 -18.164 -38.601  0.00  0.00    -0.001 C 
ATOM      8  H   UNL     1      45.118 -18.402 -39.187  0.00  0.00    +0.000 HD
BRANCH   2   9
ATOM      9  C   UNL     1      44.030 -18.165 -40.877  0.00  0.00    +0.024 C 
BRANCH   9  13
ATOM     10  C   UNL     1      46.128 -21.665 -42.300  0.00  0.00    -0.062 A 
ATOM     11  C   UNL     1      44.743 -21.580 -42.431  0.00  0.00    -0.061 A 
ATOM     12  C   UNL     1      44.066 -20.451 -41.969  0.00  0.00    -0.057 A 
ATOM     13  C   UNL     1      44.767 -19.394 -41.368  0.00  0.00    -0.033 A 
ATOM     14  C   UNL     1      46.160 -19.491 -41.244  0.00  0.00    -0.057 A 
ATOM     15  C   UNL     1      46.836 -20.621 -41.708  0.00  0.00    -0.061 A 
ENDBRANCH   9  13
ENDBRANCH   2   9
ENDBRANCH   1   5
BRANCH   1  16
ATOM     16  C   UNL     1      45.361 -17.361 -34.401  0.00  0.00    +0.011 C 
BRANCH  16  17
ATOM     17  N   UNL     1      44.635 -17.416 -33.133  0.00  0.00    -0.328 N 
ATOM     18  H   UNL     1      44.893 -16.890 -32.342  0.00  0.00    +0.000 HD
BRANCH  17  19
ATOM     19  C   UNL     1      43.538 -18.286 -33.148  0.00  0.00    +0.141 A 
ATOM     20  C   UNL     1      43.592 -19.534 -33.744  0.00  0.00    -0.018 A 
ATOM     21  C   UNL     1      42.464 -20.357 -33.721  0.00  0.00    -0.031 A 
ATOM     22  C   UNL     1      41.306 -19.911 -33.098  0.00  0.00    +0.093 A 
ATOM     23  N   UNL     1      41.293 -18.695 -32.508  0.00  0.00    -0.147 NA
ATOM     24  N   UNL     1      42.413 -17.887 -32.528  0.00  0.00    -0.134 NA
BRANCH  22  25
ATOM     25  C   UNL     1      40.058 -20.694 -33.020  0.00  0.00    +0.002 A 
ATOM     26  C   UNL     1      38.911 -20.212 -32.360  0.00  0.00    -0.053 A 
ATOM     27  C   UNL     1      37.734 -20.967 -32.297  0.00  0.00    -0.061 A 
ATOM     28  C   UNL     1      37.679 -22.225 -32.890  0.00  0.00    -0.062 A 
ATOM     29  C   UNL     1      38.800 -22.730 -33.541  0.00  0.00    -0.061 A 
ATOM     30  C   UNL     1      39.974 -21.973 -33.602  0.00  0.00    -0.053 A 
ENDBRANCH  22  25
ENDBRANCH  17  19
ENDBRANCH  16  17
ENDBRANCH   1  16
TORSDOF 7
ENDMDL
