@<TRIPOS>MOLECULE
*****
 28 31 0 0 0
SMALL
GASTEIGER

@<TRIPOS>ATOM
      1 C          -0.8660   -0.5000    0.0000 C.ar    1  UNL1       -0.0000
      2 C          -1.7321   -0.0000    0.0000 C.ar    1  UNL1       -0.0003
      3 C          -1.7321    1.0000    0.0000 C.ar    1  UNL1       -0.0029
      4 C          -0.8660    1.5000    0.0000 C.ar    1  UNL1       -0.0061
      5 C          -0.8660    2.5000    0.0000 C.3     1  UNL1        0.0991
      6 N          -1.7321    3.0000    0.0000 N.3     1  UNL1       -0.2690
      7 C          -2.5981    2.5000    0.0000 C.3     1  UNL1        0.0724
      8 C          -3.4641    3.0000    0.0000 C.3     1  UNL1        0.0174
      9 C          -3.4641    4.0000    0.0000 C.3     1  UNL1        0.0045
     10 C          -4.3301    4.5000    0.0000 C.3     1  UNL1        0.0235
     11 C          -5.1962    4.0000    0.0000 C.3     1  UNL1        0.1139
     12 N          -6.0622    4.5000    0.0000 N.pl3   1  UNL1       -0.2189
     13 C          -6.9282    4.0000    0.0000 C.ar    1  UNL1        0.1693
     14 C          -6.9282    3.0000    0.0000 C.ar    1  UNL1        0.0392
     15 C          -7.7942    2.5000    0.0000 C.ar    1  UNL1        0.0239
     16 C          -8.6603    3.0000    0.0000 C.ar    1  UNL1        0.1030
     17 C          -9.5263    2.5000    0.0000 C.ar    1  UNL1        0.0194
     18 C          -9.5263    1.5000    0.0000 C.ar    1  UNL1        0.0016
     19 C         -10.3923    1.0000    0.0000 C.ar    1  UNL1        0.0000
     20 C         -11.2583    1.5000    0.0000 C.ar    1  UNL1        0.0000
     21 C         -11.2583    2.5000    0.0000 C.ar    1  UNL1        0.0000
     22 C         -10.3923    3.0000    0.0000 C.ar    1  UNL1        0.0016
     23 N          -8.6603    4.0000    0.0000 N.ar    1  UNL1       -0.1467
     24 N          -7.7942    4.5000    0.0000 N.ar    1  UNL1       -0.1314
     25 C          -2.5981    4.5000    0.0000 C.3     1  UNL1        0.0174
     26 C          -1.7321    4.0000    0.0000 C.3     1  UNL1        0.0724
     27 C          -0.0000    1.0000    0.0000 C.ar    1  UNL1       -0.0029
     28 C          -0.0000   -0.0000    0.0000 C.ar    1  UNL1       -0.0003
@<TRIPOS>BOND
     1     1     2   ar
     2     2     3   ar
     3     3     4   ar
     4     4     5    1
     5     5     6    1
     6     6     7    1
     7     7     8    1
     8     8     9    1
     9     9    10    1
    10    10    11    1
    11    11    12    1
    12    12    13    1
    13    13    14   ar
    14    14    15   ar
    15    15    16   ar
    16    16    17    1
    17    17    18   ar
    18    18    19   ar
    19    19    20   ar
    20    20    21   ar
    21    21    22   ar
    22    17    22   ar
    23    16    23   ar
    24    23    24   ar
    25    13    24   ar
    26     9    25    1
    27    25    26    1
    28     6    26    1
    29     4    27   ar
    30    27    28   ar
    31     1    28   ar
