REMARK  Name = cpd127.pdb
REMARK  7 active torsions:
REMARK  status: ('A' for Active; 'I' for Inactive)
REMARK    1  A    between atoms: C_4  and  C_5
REMARK    2  A    between atoms: C_5  and  N_6
REMARK    3  A    between atoms: C_9  and  C_10
REMARK    4  A    between atoms: C_10  and  C_11
REMARK    5  A    between atoms: C_11  and  N_12
REMARK    6  A    between atoms: N_12  and  C_13
REMARK    7  A    between atoms: C_16  and  C_17
REMARK                            x       y       z     vdW  Elec       q    Type
REMARK                         _______ _______ _______ _____ _____    ______ ____
ROOT
ATOM      1  C   UNL     1      -4.263   5.002  -0.119  0.00  0.00    -0.035 C 
ENDROOT
BRANCH   1   5
ATOM      2  N   UNL     1      -0.435   3.063  -0.261  0.00  0.00    -0.298 N 
ATOM      3  C   UNL     1      -1.334   2.553   0.788  0.00  0.00    -0.001 C 
ATOM      4  C   UNL     1      -2.585   3.421   1.009  0.00  0.00    -0.037 C 
ATOM      5  C   UNL     1      -2.986   4.159  -0.272  0.00  0.00    -0.037 C 
ATOM      6  C   UNL     1      -1.812   5.044  -0.740  0.00  0.00    -0.037 C 
ATOM      7  C   UNL     1      -0.437   4.524  -0.298  0.00  0.00    -0.001 C 
ATOM      8  H   UNL     1      -0.795   2.729  -1.155  0.00  0.00    +0.000 HD
BRANCH   2   9
ATOM      9  C   UNL     1       0.931   2.532  -0.118  0.00  0.00    +0.024 C 
BRANCH   9  13
ATOM     10  C   UNL     1       1.188  -1.747  -0.665  0.00  0.00    -0.062 A 
ATOM     11  C   UNL     1       0.682  -0.942  -1.684  0.00  0.00    -0.061 A 
ATOM     12  C   UNL     1       0.597   0.439  -1.506  0.00  0.00    -0.057 A 
ATOM     13  C   UNL     1       1.015   1.031  -0.304  0.00  0.00    -0.033 A 
ATOM     14  C   UNL     1       1.525   0.211   0.712  0.00  0.00    -0.057 A 
ATOM     15  C   UNL     1       1.610  -1.171   0.532  0.00  0.00    -0.061 A 
ENDBRANCH   9  13
ENDBRANCH   2   9
ENDBRANCH   1   5
BRANCH   1  16
ATOM     16  C   UNL     1      -5.521   4.158   0.116  0.00  0.00    +0.011 C 
BRANCH  16  17
ATOM     17  N   UNL     1      -6.691   5.036   0.130  0.00  0.00    -0.328 N 
ATOM     18  H   UNL     1      -6.627   6.018   0.109  0.00  0.00    +0.000 HD
BRANCH  17  19
ATOM     19  C   UNL     1      -7.911   4.350   0.176  0.00  0.00    +0.141 A 
ATOM     20  C   UNL     1      -8.238   3.492   1.212  0.00  0.00    -0.018 A 
ATOM     21  C   UNL     1      -9.473   2.841   1.202  0.00  0.00    -0.031 A 
ATOM     22  C   UNL     1     -10.356   3.067   0.154  0.00  0.00    +0.093 A 
ATOM     23  N   UNL     1     -10.014   3.927  -0.831  0.00  0.00    -0.147 NA
ATOM     24  N   UNL     1      -8.793   4.573  -0.814  0.00  0.00    -0.134 NA
BRANCH  22  25
ATOM     25  C   UNL     1     -11.682   2.429   0.041  0.00  0.00    +0.002 A 
ATOM     26  C   UNL     1     -11.944   1.149   0.566  0.00  0.00    -0.053 A 
ATOM     27  C   UNL     1     -13.208   0.559   0.452  0.00  0.00    -0.061 A 
ATOM     28  C   UNL     1     -14.239   1.235  -0.194  0.00  0.00    -0.062 A 
ATOM     29  C   UNL     1     -14.006   2.498  -0.729  0.00  0.00    -0.061 A 
ATOM     30  C   UNL     1     -12.742   3.084  -0.614  0.00  0.00    -0.053 A 
ENDBRANCH  22  25
ENDBRANCH  17  19
ENDBRANCH  16  17
ENDBRANCH   1  16
TORSDOF 7
