REMARK  Name = cpd5.pdb
REMARK  7 active torsions:
REMARK  status: ('A' for Active; 'I' for Inactive)
REMARK    1  A    between atoms: C_1  and  O_2
REMARK    2  A    between atoms: O_2  and  C_3
REMARK    3  A    between atoms: C_8  and  O_9
REMARK    4  A    between atoms: O_9  and  C_10
REMARK    5  A    between atoms: C_13  and  C_14
REMARK    6  A    between atoms: N_17  and  C_18
REMARK    7  A    between atoms: C_18  and  C_19
REMARK                            x       y       z     vdW  Elec       q    Type
REMARK                         _______ _______ _______ _____ _____    ______ ____
ROOT
ATOM      1  C   UNL     1       3.541   1.846  -0.122  0.00  0.00    +0.162 A 
ATOM      2  C   UNL     1       2.356   1.710  -0.873  0.00  0.00    -0.012 A 
ATOM      3  C   UNL     1       1.714   0.486  -0.923  0.00  0.00    -0.033 A 
ATOM      4  C   UNL     1       2.237  -0.581  -0.216  0.00  0.00    +0.025 A 
ATOM      5  C   UNL     1       3.397  -0.495   0.534  0.00  0.00    -0.006 A 
ATOM      6  C   UNL     1       4.078   0.731   0.572  0.00  0.00    +0.162 A 
ATOM      7  C   UNL     1       1.388  -1.743  -0.441  0.00  0.00    +0.167 C 
ATOM      8  O   UNL     1       1.565  -2.816   0.109  0.00  0.00    -0.292 OA
ATOM      9  C   UNL     1       0.349  -1.402  -1.500  0.00  0.00    +0.029 C 
ATOM     10  C   UNL     1       0.443   0.140  -1.630  0.00  0.00    -0.017 C 
ENDROOT
BRANCH   9  11
ATOM     11  C   UNL     1      -1.075  -1.916  -1.235  0.00  0.00    -0.029 C 
ATOM     12  C   UNL     1      -1.182  -3.443  -1.331  0.00  0.00    -0.037 C 
ATOM     13  C   UNL     1      -2.645  -3.906  -1.249  0.00  0.00    -0.001 C 
ATOM     14  N   UNL     1      -3.514  -2.982  -0.503  0.00  0.00    -0.298 N 
ATOM     15  C   UNL     1      -2.795  -2.377   0.619  0.00  0.00    -0.001 C 
ATOM     16  C   UNL     1      -1.695  -1.438   0.096  0.00  0.00    -0.037 C 
ATOM     17  H   UNL     1      -3.788  -2.216  -1.119  0.00  0.00    +0.000 HD
BRANCH  14  18
ATOM     18  C   UNL     1      -4.750  -3.662  -0.084  0.00  0.00    +0.024 C 
BRANCH  18  19
ATOM     19  C   UNL     1      -5.857  -2.707   0.311  0.00  0.00    -0.033 A 
ATOM     20  C   UNL     1      -6.551  -2.880   1.517  0.00  0.00    -0.057 A 
ATOM     21  C   UNL     1      -7.596  -2.020   1.863  0.00  0.00    -0.061 A 
ATOM     22  C   UNL     1      -7.962  -0.983   1.007  0.00  0.00    -0.062 A 
ATOM     23  C   UNL     1      -7.285  -0.804  -0.198  0.00  0.00    -0.061 A 
ATOM     24  C   UNL     1      -6.242  -1.663  -0.546  0.00  0.00    -0.057 A 
ENDBRANCH  18  19
ENDBRANCH  14  18
ENDBRANCH   9  11
BRANCH   1  26
ATOM     25  C   UNL     1       5.132   3.487   0.631  0.00  0.00    +0.079 C 
ATOM     26  O   UNL     1       4.041   3.122  -0.201  0.00  0.00    -0.491 OA
ENDBRANCH   1  26
BRANCH   6  27
ATOM     27  O   UNL     1       5.247   0.898   1.268  0.00  0.00    -0.491 OA
ATOM     28  C   UNL     1       5.944  -0.270   1.684  0.00  0.00    +0.079 C 
ENDBRANCH   6  27
TORSDOF 5
