MODEL 1
REMARK VINA RESULT:    -7.993      0.000      0.000
REMARK INTER + INTRA:         -11.006
REMARK INTER:                 -10.329
REMARK INTRA:                  -0.677
REMARK UNBOUND:                -0.677
REMARK  Name = cpd5.pdb
REMARK  7 active torsions:
REMARK  status: ('A' for Active; 'I' for Inactive)
REMARK    1  A    between atoms: C_1  and  O_2
REMARK    2  A    between atoms: O_2  and  C_3
REMARK    3  A    between atoms: C_8  and  O_9
REMARK    4  A    between atoms: O_9  and  C_10
REMARK    5  A    between atoms: C_13  and  C_14
REMARK    6  A    between atoms: N_17  and  C_18
REMARK    7  A    between atoms: C_18  and  C_19
REMARK                            x       y       z     vdW  Elec       q    Type
REMARK                         _______ _______ _______ _____ _____    ______ ____
ROOT
ATOM      1  C   UNL     1      39.283 -23.390 -33.607  0.00  0.00    +0.162 A 
ATOM      2  C   UNL     1      39.196 -23.216 -35.003  0.00  0.00    -0.012 A 
ATOM      3  C   UNL     1      40.079 -22.365 -35.643  0.00  0.00    -0.033 A 
ATOM      4  C   UNL     1      41.048 -21.714 -34.902  0.00  0.00    +0.025 A 
ATOM      5  C   UNL     1      41.171 -21.854 -33.531  0.00  0.00    -0.006 A 
ATOM      6  C   UNL     1      40.266 -22.690 -32.860  0.00  0.00    +0.162 A 
ATOM      7  C   UNL     1      41.833 -20.880 -35.802  0.00  0.00    +0.167 C 
ATOM      8  O   UNL     1      42.803 -20.238 -35.441  0.00  0.00    -0.292 OA
ATOM      9  C   UNL     1      41.192 -20.899 -37.183  0.00  0.00    +0.029 C 
ATOM     10  C   UNL     1      40.174 -22.065 -37.105  0.00  0.00    -0.017 C 
ENDROOT
BRANCH   9  11
ATOM     11  C   UNL     1      42.160 -21.000 -38.372  0.00  0.00    -0.029 C 
ATOM     12  C   UNL     1      41.499 -21.584 -39.627  0.00  0.00    -0.037 C 
ATOM     13  C   UNL     1      42.534 -21.846 -40.732  0.00  0.00    -0.001 C 
ATOM     14  N   UNL     1      43.714 -20.969 -40.654  0.00  0.00    -0.298 N 
ATOM     15  C   UNL     1      43.341 -19.629 -40.199  0.00  0.00    -0.001 C 
ATOM     16  C   UNL     1      42.876 -19.680 -38.734  0.00  0.00    -0.037 C 
ATOM     17  H   UNL     1      44.358 -21.344 -39.957  0.00  0.00    +0.000 HD
BRANCH  14  18
ATOM     18  C   UNL     1      44.429 -20.953 -41.940  0.00  0.00    +0.024 C 
BRANCH  18  19
ATOM     19  C   UNL     1      45.765 -21.665 -41.893  0.00  0.00    -0.033 A 
ATOM     20  C   UNL     1      46.812 -21.166 -41.105  0.00  0.00    -0.057 A 
ATOM     21  C   UNL     1      48.055 -21.804 -41.091  0.00  0.00    -0.061 A 
ATOM     22  C   UNL     1      48.266 -22.942 -41.867  0.00  0.00    -0.062 A 
ATOM     23  C   UNL     1      47.236 -23.444 -42.660  0.00  0.00    -0.061 A 
ATOM     24  C   UNL     1      45.995 -22.808 -42.677  0.00  0.00    -0.057 A 
ENDBRANCH  18  19
ENDBRANCH  14  18
ENDBRANCH   9  11
BRANCH   1  26
ATOM     25  C   UNL     1      37.583 -25.025 -34.086  0.00  0.00    +0.079 C 
ATOM     26  O   UNL     1      38.322 -24.256 -33.148  0.00  0.00    -0.491 OA
ENDBRANCH   1  26
BRANCH   6  27
ATOM     27  O   UNL     1      40.299 -22.865 -31.501  0.00  0.00    -0.491 OA
ATOM     28  C   UNL     1      41.375 -23.621 -30.957  0.00  0.00    +0.079 C 
ENDBRANCH   6  27
TORSDOF 5
ENDMDL
MODEL 2
REMARK VINA RESULT:    -7.542     16.304     19.201
REMARK INTER + INTRA:         -10.424
REMARK INTER:                  -9.746
REMARK INTRA:                  -0.678
REMARK UNBOUND:                -0.677
REMARK  Name = cpd5.pdb
REMARK  7 active torsions:
REMARK  status: ('A' for Active; 'I' for Inactive)
REMARK    1  A    between atoms: C_1  and  O_2
REMARK    2  A    between atoms: O_2  and  C_3
REMARK    3  A    between atoms: C_8  and  O_9
REMARK    4  A    between atoms: O_9  and  C_10
REMARK    5  A    between atoms: C_13  and  C_14
REMARK    6  A    between atoms: N_17  and  C_18
REMARK    7  A    between atoms: C_18  and  C_19
REMARK                            x       y       z     vdW  Elec       q    Type
REMARK                         _______ _______ _______ _____ _____    ______ ____
ROOT
ATOM      1  C   UNL     1      42.195 -38.244 -29.796  0.00  0.00    +0.162 A 
ATOM      2  C   UNL     1      40.928 -38.433 -29.208  0.00  0.00    -0.012 A 
ATOM      3  C   UNL     1      39.839 -37.728 -29.687  0.00  0.00    -0.033 A 
ATOM      4  C   UNL     1      40.010 -36.862 -30.752  0.00  0.00    +0.025 A 
ATOM      5  C   UNL     1      41.234 -36.645 -31.360  0.00  0.00    -0.006 A 
ATOM      6  C   UNL     1      42.355 -37.329 -30.868  0.00  0.00    +0.162 A 
ATOM      7  C   UNL     1      38.726 -36.244 -31.053  0.00  0.00    +0.167 C 
ATOM      8  O   UNL     1      38.554 -35.483 -31.989  0.00  0.00    -0.292 OA
ATOM      9  C   UNL     1      37.719 -36.643 -29.983  0.00  0.00    +0.029 C 
ATOM     10  C   UNL     1      38.418 -37.802 -29.228  0.00  0.00    -0.017 C 
ENDROOT
BRANCH   9  11
ATOM     11  C   UNL     1      36.308 -36.992 -30.484  0.00  0.00    -0.029 C 
ATOM     12  C   UNL     1      35.726 -38.234 -29.799  0.00  0.00    -0.037 C 
ATOM     13  C   UNL     1      34.403 -38.663 -30.453  0.00  0.00    -0.001 C 
ATOM     14  N   UNL     1      33.675 -37.555 -31.091  0.00  0.00    -0.298 N 
ATOM     15  C   UNL     1      33.833 -36.316 -30.328  0.00  0.00    -0.001 C 
ATOM     16  C   UNL     1      35.291 -35.833 -30.403  0.00  0.00    -0.037 C 
ATOM     17  H   UNL     1      34.077 -37.381 -32.012  0.00  0.00    +0.000 HD
BRANCH  14  18
ATOM     18  C   UNL     1      32.263 -37.917 -31.298  0.00  0.00    +0.024 C 
BRANCH  18  19
ATOM     19  C   UNL     1      31.870 -37.991 -32.758  0.00  0.00    -0.033 A 
ATOM     20  C   UNL     1      32.041 -39.179 -33.484  0.00  0.00    -0.057 A 
ATOM     21  C   UNL     1      31.711 -39.235 -34.840  0.00  0.00    -0.061 A 
ATOM     22  C   UNL     1      31.213 -38.105 -35.487  0.00  0.00    -0.062 A 
ATOM     23  C   UNL     1      31.045 -36.916 -34.779  0.00  0.00    -0.061 A 
ATOM     24  C   UNL     1      31.375 -36.858 -33.425  0.00  0.00    -0.057 A 
ENDBRANCH  18  19
ENDBRANCH  14  18
ENDBRANCH   9  11
BRANCH   1  26
ATOM     25  C   UNL     1      43.736 -40.090 -29.902  0.00  0.00    +0.079 C 
ATOM     26  O   UNL     1      43.152 -39.014 -29.182  0.00  0.00    -0.491 OA
ENDBRANCH   1  26
BRANCH   6  27
ATOM     27  O   UNL     1      43.609 -37.154 -31.394  0.00  0.00    -0.491 OA
ATOM     28  C   UNL     1      44.413 -36.110 -30.857  0.00  0.00    +0.079 C 
ENDBRANCH   6  27
TORSDOF 5
ENDMDL
MODEL 3
REMARK VINA RESULT:    -7.457     30.102     34.255
REMARK INTER + INTRA:         -10.314
REMARK INTER:                  -9.546
REMARK INTRA:                  -0.768
REMARK UNBOUND:                -0.677
REMARK  Name = cpd5.pdb
REMARK  7 active torsions:
REMARK  status: ('A' for Active; 'I' for Inactive)
REMARK    1  A    between atoms: C_1  and  O_2
REMARK    2  A    between atoms: O_2  and  C_3
REMARK    3  A    between atoms: C_8  and  O_9
REMARK    4  A    between atoms: O_9  and  C_10
REMARK    5  A    between atoms: C_13  and  C_14
REMARK    6  A    between atoms: N_17  and  C_18
REMARK    7  A    between atoms: C_18  and  C_19
REMARK                            x       y       z     vdW  Elec       q    Type
REMARK                         _______ _______ _______ _____ _____    ______ ____
ROOT
ATOM      1  C   UNL     1      63.532 -23.638  -5.773  0.00  0.00    +0.162 A 
ATOM      2  C   UNL     1      63.246 -22.295  -6.092  0.00  0.00    -0.012 A 
ATOM      3  C   UNL     1      63.147 -21.913  -7.418  0.00  0.00    -0.033 A 
ATOM      4  C   UNL     1      63.310 -22.863  -8.409  0.00  0.00    +0.025 A 
ATOM      5  C   UNL     1      63.592 -24.191  -8.144  0.00  0.00    -0.006 A 
ATOM      6  C   UNL     1      63.726 -24.591  -6.805  0.00  0.00    +0.162 A 
ATOM      7  C   UNL     1      63.169 -22.208  -9.702  0.00  0.00    +0.167 C 
ATOM      8  O   UNL     1      63.198 -22.809 -10.762  0.00  0.00    -0.292 OA
ATOM      9  C   UNL     1      63.068 -20.704  -9.489  0.00  0.00    +0.029 C 
ATOM     10  C   UNL     1      62.825 -20.559  -7.965  0.00  0.00    -0.017 C 
ENDROOT
BRANCH   9  11
ATOM     11  C   UNL     1      62.032 -19.970 -10.355  0.00  0.00    -0.029 C 
ATOM     12  C   UNL     1      60.809 -19.508  -9.552  0.00  0.00    -0.037 C 
ATOM     13  C   UNL     1      59.714 -18.950 -10.474  0.00  0.00    -0.001 C 
ATOM     14  N   UNL     1      60.233 -18.395 -11.735  0.00  0.00    -0.298 N 
ATOM     15  C   UNL     1      61.524 -17.739 -11.527  0.00  0.00    -0.001 C 
ATOM     16  C   UNL     1      62.595 -18.783 -11.166  0.00  0.00    -0.037 C 
ATOM     17  H   UNL     1      60.398 -19.160 -12.389  0.00  0.00    +0.000 HD
BRANCH  14  18
ATOM     18  C   UNL     1      59.238 -17.505 -12.354  0.00  0.00    +0.024 C 
BRANCH  18  19
ATOM     19  C   UNL     1      57.989 -18.227 -12.813  0.00  0.00    -0.033 A 
ATOM     20  C   UNL     1      56.728 -17.849 -12.330  0.00  0.00    -0.057 A 
ATOM     21  C   UNL     1      55.580 -18.540 -12.726  0.00  0.00    -0.061 A 
ATOM     22  C   UNL     1      55.680 -19.617 -13.604  0.00  0.00    -0.062 A 
ATOM     23  C   UNL     1      56.928 -20.008 -14.087  0.00  0.00    -0.061 A 
ATOM     24  C   UNL     1      58.075 -19.320 -13.691  0.00  0.00    -0.057 A 
ENDBRANCH  18  19
ENDBRANCH  14  18
ENDBRANCH   9  11
BRANCH   1  26
ATOM     25  C   UNL     1      64.843 -23.607  -3.755  0.00  0.00    +0.079 C 
ATOM     26  O   UNL     1      63.605 -23.825  -4.415  0.00  0.00    -0.491 OA
ENDBRANCH   1  26
BRANCH   6  27
ATOM     27  O   UNL     1      64.030 -25.881  -6.453  0.00  0.00    -0.491 OA
ATOM     28  C   UNL     1      63.036 -26.877  -6.661  0.00  0.00    +0.079 C 
ENDBRANCH   6  27
TORSDOF 5
ENDMDL
MODEL 4
REMARK VINA RESULT:    -7.396     16.515     21.926
REMARK INTER + INTRA:         -10.235
REMARK INTER:                  -9.540
REMARK INTRA:                  -0.695
REMARK UNBOUND:                -0.677
REMARK  Name = cpd5.pdb
REMARK  7 active torsions:
REMARK  status: ('A' for Active; 'I' for Inactive)
REMARK    1  A    between atoms: C_1  and  O_2
REMARK    2  A    between atoms: O_2  and  C_3
REMARK    3  A    between atoms: C_8  and  O_9
REMARK    4  A    between atoms: O_9  and  C_10
REMARK    5  A    between atoms: C_13  and  C_14
REMARK    6  A    between atoms: N_17  and  C_18
REMARK    7  A    between atoms: C_18  and  C_19
REMARK                            x       y       z     vdW  Elec       q    Type
REMARK                         _______ _______ _______ _____ _____    ______ ____
ROOT
ATOM      1  C   UNL     1      41.356 -37.126 -30.630  0.00  0.00    +0.162 A 
ATOM      2  C   UNL     1      40.812 -37.876 -29.569  0.00  0.00    -0.012 A 
ATOM      3  C   UNL     1      39.444 -37.877 -29.362  0.00  0.00    -0.033 A 
ATOM      4  C   UNL     1      38.631 -37.155 -30.216  0.00  0.00    +0.025 A 
ATOM      5  C   UNL     1      39.120 -36.403 -31.270  0.00  0.00    -0.006 A 
ATOM      6  C   UNL     1      40.507 -36.367 -31.477  0.00  0.00    +0.162 A 
ATOM      7  C   UNL     1      37.250 -37.312 -29.780  0.00  0.00    +0.167 C 
ATOM      8  O   UNL     1      36.302 -36.841 -30.383  0.00  0.00    -0.292 OA
ATOM      9  C   UNL     1      37.229 -38.062 -28.455  0.00  0.00    +0.029 C 
ATOM     10  C   UNL     1      38.669 -38.621 -28.322  0.00  0.00    -0.017 C 
ENDROOT
BRANCH   9  11
ATOM     11  C   UNL     1      36.134 -39.129 -28.304  0.00  0.00    -0.029 C 
ATOM     12  C   UNL     1      34.737 -38.524 -28.115  0.00  0.00    -0.037 C 
ATOM     13  C   UNL     1      33.700 -39.607 -27.779  0.00  0.00    -0.001 C 
ATOM     14  N   UNL     1      34.047 -40.937 -28.304  0.00  0.00    -0.298 N 
ATOM     15  C   UNL     1      34.711 -40.830 -29.604  0.00  0.00    -0.001 C 
ATOM     16  C   UNL     1      36.092 -40.175 -29.439  0.00  0.00    -0.037 C 
ATOM     17  H   UNL     1      34.716 -41.378 -27.672  0.00  0.00    +0.000 HD
BRANCH  14  18
ATOM     18  C   UNL     1      32.857 -41.801 -28.345  0.00  0.00    +0.024 C 
BRANCH  18  19
ATOM     19  C   UNL     1      33.152 -43.246 -28.000  0.00  0.00    -0.033 A 
ATOM     20  C   UNL     1      33.204 -44.222 -29.006  0.00  0.00    -0.057 A 
ATOM     21  C   UNL     1      33.440 -45.561 -28.683  0.00  0.00    -0.061 A 
ATOM     22  C   UNL     1      33.621 -45.939 -27.354  0.00  0.00    -0.062 A 
ATOM     23  C   UNL     1      33.565 -44.980 -26.344  0.00  0.00    -0.061 A 
ATOM     24  C   UNL     1      33.328 -43.643 -26.664  0.00  0.00    -0.057 A 
ENDBRANCH  18  19
ENDBRANCH  14  18
ENDBRANCH   9  11
BRANCH   1  26
ATOM     25  C   UNL     1      43.313 -38.527 -30.675  0.00  0.00    +0.079 C 
ATOM     26  O   UNL     1      42.724 -37.235 -30.671  0.00  0.00    -0.491 OA
ENDBRANCH   1  26
BRANCH   6  27
ATOM     27  O   UNL     1      41.079 -35.629 -32.480  0.00  0.00    -0.491 OA
ATOM     28  C   UNL     1      41.003 -36.139 -33.806  0.00  0.00    +0.079 C 
ENDBRANCH   6  27
TORSDOF 5
ENDMDL
MODEL 5
REMARK VINA RESULT:    -7.131      1.760      2.318
REMARK INTER + INTRA:          -9.892
REMARK INTER:                  -9.314
REMARK INTRA:                  -0.579
REMARK UNBOUND:                -0.677
REMARK  Name = cpd5.pdb
REMARK  7 active torsions:
REMARK  status: ('A' for Active; 'I' for Inactive)
REMARK    1  A    between atoms: C_1  and  O_2
REMARK    2  A    between atoms: O_2  and  C_3
REMARK    3  A    between atoms: C_8  and  O_9
REMARK    4  A    between atoms: O_9  and  C_10
REMARK    5  A    between atoms: C_13  and  C_14
REMARK    6  A    between atoms: N_17  and  C_18
REMARK    7  A    between atoms: C_18  and  C_19
REMARK                            x       y       z     vdW  Elec       q    Type
REMARK                         _______ _______ _______ _____ _____    ______ ____
ROOT
ATOM      1  C   UNL     1      38.619 -22.275 -33.999  0.00  0.00    +0.162 A 
ATOM      2  C   UNL     1      39.329 -23.007 -34.972  0.00  0.00    -0.012 A 
ATOM      3  C   UNL     1      39.687 -22.398 -36.161  0.00  0.00    -0.033 A 
ATOM      4  C   UNL     1      39.359 -21.071 -36.366  0.00  0.00    +0.025 A 
ATOM      5  C   UNL     1      38.663 -20.312 -35.440  0.00  0.00    -0.006 A 
ATOM      6  C   UNL     1      38.266 -20.922 -34.241  0.00  0.00    +0.162 A 
ATOM      7  C   UNL     1      39.835 -20.677 -37.685  0.00  0.00    +0.167 C 
ATOM      8  O   UNL     1      39.747 -19.540 -38.115  0.00  0.00    -0.292 OA
ATOM      9  C   UNL     1      40.357 -21.908 -38.413  0.00  0.00    +0.029 C 
ATOM     10  C   UNL     1      40.459 -22.983 -37.300  0.00  0.00    -0.017 C 
ENDROOT
BRANCH   9  11
ATOM     11  C   UNL     1      41.657 -21.717 -39.210  0.00  0.00    -0.029 C 
ATOM     12  C   UNL     1      41.406 -21.463 -40.702  0.00  0.00    -0.037 C 
ATOM     13  C   UNL     1      42.721 -21.465 -41.497  0.00  0.00    -0.001 C 
ATOM     14  N   UNL     1      43.893 -21.078 -40.697  0.00  0.00    -0.298 N 
ATOM     15  C   UNL     1      43.543 -20.046 -39.720  0.00  0.00    -0.001 C 
ATOM     16  C   UNL     1      42.600 -20.628 -38.654  0.00  0.00    -0.037 C 
ATOM     17  H   UNL     1      44.212 -21.887 -40.164  0.00  0.00    +0.000 HD
BRANCH  14  18
ATOM     18  C   UNL     1      45.005 -20.674 -41.574  0.00  0.00    +0.024 C 
BRANCH  18  19
ATOM     19  C   UNL     1      46.131 -21.686 -41.620  0.00  0.00    -0.033 A 
ATOM     20  C   UNL     1      46.151 -22.686 -42.602  0.00  0.00    -0.057 A 
ATOM     21  C   UNL     1      47.171 -23.640 -42.621  0.00  0.00    -0.061 A 
ATOM     22  C   UNL     1      48.178 -23.608 -41.658  0.00  0.00    -0.062 A 
ATOM     23  C   UNL     1      48.166 -22.623 -40.672  0.00  0.00    -0.061 A 
ATOM     24  C   UNL     1      47.147 -21.671 -40.650  0.00  0.00    -0.057 A 
ENDBRANCH  18  19
ENDBRANCH  14  18
ENDBRANCH   9  11
BRANCH   1  26
ATOM     25  C   UNL     1      37.959 -24.399 -33.081  0.00  0.00    +0.079 C 
ATOM     26  O   UNL     1      38.340 -23.044 -32.897  0.00  0.00    -0.491 OA
ENDBRANCH   1  26
BRANCH   6  27
ATOM     27  O   UNL     1      37.552 -20.254 -33.281  0.00  0.00    -0.491 OA
ATOM     28  C   UNL     1      38.006 -18.962 -32.895  0.00  0.00    +0.079 C 
ENDBRANCH   6  27
TORSDOF 5
ENDMDL
MODEL 6
REMARK VINA RESULT:    -7.024     19.823     22.126
REMARK INTER + INTRA:          -9.755
REMARK INTER:                  -8.996
REMARK INTRA:                  -0.759
REMARK UNBOUND:                -0.677
REMARK  Name = cpd5.pdb
REMARK  7 active torsions:
REMARK  status: ('A' for Active; 'I' for Inactive)
REMARK    1  A    between atoms: C_1  and  O_2
REMARK    2  A    between atoms: O_2  and  C_3
REMARK    3  A    between atoms: C_8  and  O_9
REMARK    4  A    between atoms: O_9  and  C_10
REMARK    5  A    between atoms: C_13  and  C_14
REMARK    6  A    between atoms: N_17  and  C_18
REMARK    7  A    between atoms: C_18  and  C_19
REMARK                            x       y       z     vdW  Elec       q    Type
REMARK                         _______ _______ _______ _____ _____    ______ ____
ROOT
ATOM      1  C   UNL     1      48.927 -32.387 -55.974  0.00  0.00    +0.162 A 
ATOM      2  C   UNL     1      50.157 -33.061 -55.834  0.00  0.00    -0.012 A 
ATOM      3  C   UNL     1      51.071 -32.629 -54.891  0.00  0.00    -0.033 A 
ATOM      4  C   UNL     1      50.753 -31.551 -54.085  0.00  0.00    +0.025 A 
ATOM      5  C   UNL     1      49.559 -30.858 -54.186  0.00  0.00    -0.006 A 
ATOM      6  C   UNL     1      48.632 -31.264 -55.158  0.00  0.00    +0.162 A 
ATOM      7  C   UNL     1      51.876 -31.295 -53.194  0.00  0.00    +0.167 C 
ATOM      8  O   UNL     1      51.857 -30.443 -52.323  0.00  0.00    -0.292 OA
ATOM      9  C   UNL     1      53.042 -32.188 -53.594  0.00  0.00    +0.029 C 
ATOM     10  C   UNL     1      52.407 -33.216 -54.565  0.00  0.00    -0.017 C 
ENDROOT
BRANCH   9  11
ATOM     11  C   UNL     1      53.826 -32.829 -52.438  0.00  0.00    -0.029 C 
ATOM     12  C   UNL     1      53.787 -34.362 -52.473  0.00  0.00    -0.037 C 
ATOM     13  C   UNL     1      54.416 -34.965 -51.207  0.00  0.00    -0.001 C 
ATOM     14  N   UNL     1      55.428 -34.098 -50.583  0.00  0.00    -0.298 N 
ATOM     15  C   UNL     1      56.194 -33.372 -51.597  0.00  0.00    -0.001 C 
ATOM     16  C   UNL     1      55.290 -32.353 -52.311  0.00  0.00    -0.037 C 
ATOM     17  H   UNL     1      54.956 -33.393 -50.016  0.00  0.00    +0.000 HD
BRANCH  14  18
ATOM     18  C   UNL     1      56.285 -34.878 -49.675  0.00  0.00    +0.024 C 
BRANCH  18  19
ATOM     19  C   UNL     1      55.971 -34.654 -48.211  0.00  0.00    -0.033 A 
ATOM     20  C   UNL     1      55.197 -35.580 -47.498  0.00  0.00    -0.057 A 
ATOM     21  C   UNL     1      54.877 -35.354 -46.157  0.00  0.00    -0.061 A 
ATOM     22  C   UNL     1      55.324 -34.199 -45.516  0.00  0.00    -0.062 A 
ATOM     23  C   UNL     1      56.089 -33.267 -46.215  0.00  0.00    -0.061 A 
ATOM     24  C   UNL     1      56.407 -33.491 -47.555  0.00  0.00    -0.057 A 
ENDBRANCH  18  19
ENDBRANCH  14  18
ENDBRANCH   9  11
BRANCH   1  26
ATOM     25  C   UNL     1      47.298 -34.028 -56.640  0.00  0.00    +0.079 C 
ATOM     26  O   UNL     1      48.158 -32.946 -56.964  0.00  0.00    -0.491 OA
ENDBRANCH   1  26
BRANCH   6  27
ATOM     27  O   UNL     1      47.437 -30.619 -55.344  0.00  0.00    -0.491 OA
ATOM     28  C   UNL     1      47.354 -29.253 -54.959  0.00  0.00    +0.079 C 
ENDBRANCH   6  27
TORSDOF 5
ENDMDL
MODEL 7
REMARK VINA RESULT:    -7.016     15.455     17.784
REMARK INTER + INTRA:          -9.743
REMARK INTER:                  -8.919
REMARK INTRA:                  -0.824
REMARK UNBOUND:                -0.677
REMARK  Name = cpd5.pdb
REMARK  7 active torsions:
REMARK  status: ('A' for Active; 'I' for Inactive)
REMARK    1  A    between atoms: C_1  and  O_2
REMARK    2  A    between atoms: O_2  and  C_3
REMARK    3  A    between atoms: C_8  and  O_9
REMARK    4  A    between atoms: O_9  and  C_10
REMARK    5  A    between atoms: C_13  and  C_14
REMARK    6  A    between atoms: N_17  and  C_18
REMARK    7  A    between atoms: C_18  and  C_19
REMARK                            x       y       z     vdW  Elec       q    Type
REMARK                         _______ _______ _______ _____ _____    ______ ____
ROOT
ATOM      1  C   UNL     1      37.135 -36.671 -30.056  0.00  0.00    +0.162 A 
ATOM      2  C   UNL     1      35.961 -36.268 -29.388  0.00  0.00    -0.012 A 
ATOM      3  C   UNL     1      35.348 -35.078 -29.738  0.00  0.00    -0.033 A 
ATOM      4  C   UNL     1      35.888 -34.313 -30.755  0.00  0.00    +0.025 A 
ATOM      5  C   UNL     1      37.038 -34.668 -31.439  0.00  0.00    -0.006 A 
ATOM      6  C   UNL     1      37.690 -35.857 -31.077  0.00  0.00    +0.162 A 
ATOM      7  C   UNL     1      35.069 -33.120 -30.919  0.00  0.00    +0.167 C 
ATOM      8  O   UNL     1      35.265 -32.290 -31.789  0.00  0.00    -0.292 OA
ATOM      9  C   UNL     1      34.033 -33.071 -29.804  0.00  0.00    +0.029 C 
ATOM     10  C   UNL     1      34.093 -34.489 -29.179  0.00  0.00    -0.017 C 
ENDROOT
BRANCH   9  11
ATOM     11  C   UNL     1      32.619 -32.636 -30.219  0.00  0.00    -0.029 C 
ATOM     12  C   UNL     1      32.019 -33.530 -31.311  0.00  0.00    -0.037 C 
ATOM     13  C   UNL     1      30.691 -32.959 -31.833  0.00  0.00    -0.001 C 
ATOM     14  N   UNL     1      29.979 -32.131 -30.847  0.00  0.00    -0.298 N 
ATOM     15  C   UNL     1      30.153 -32.660 -29.494  0.00  0.00    -0.001 C 
ATOM     16  C   UNL     1      31.617 -32.505 -29.051  0.00  0.00    -0.037 C 
ATOM     17  H   UNL     1      30.385 -31.194 -30.847  0.00  0.00    +0.000 HD
BRANCH  14  18
ATOM     18  C   UNL     1      28.563 -31.987 -31.222  0.00  0.00    +0.024 C 
BRANCH  18  19
ATOM     19  C   UNL     1      28.324 -30.916 -32.266  0.00  0.00    -0.033 A 
ATOM     20  C   UNL     1      27.850 -31.257 -33.541  0.00  0.00    -0.057 A 
ATOM     21  C   UNL     1      27.664 -30.272 -34.515  0.00  0.00    -0.061 A 
ATOM     22  C   UNL     1      27.954 -28.940 -34.227  0.00  0.00    -0.062 A 
ATOM     23  C   UNL     1      28.432 -28.588 -32.966  0.00  0.00    -0.061 A 
ATOM     24  C   UNL     1      28.620 -29.571 -31.993  0.00  0.00    -0.057 A 
ENDBRANCH  18  19
ENDBRANCH  14  18
ENDBRANCH   9  11
BRANCH   1  26
ATOM     25  C   UNL     1      36.775 -38.634 -28.711  0.00  0.00    +0.079 C 
ATOM     26  O   UNL     1      37.606 -37.864 -29.567  0.00  0.00    -0.491 OA
ENDBRANCH   1  26
BRANCH   6  27
ATOM     27  O   UNL     1      38.847 -36.271 -31.684  0.00  0.00    -0.491 OA
ATOM     28  C   UNL     1      40.081 -35.898 -31.082  0.00  0.00    +0.079 C 
ENDBRANCH   6  27
TORSDOF 5
ENDMDL
MODEL 8
REMARK VINA RESULT:    -7.000     16.051     18.810
REMARK INTER + INTRA:          -9.723
REMARK INTER:                  -9.165
REMARK INTRA:                  -0.557
REMARK UNBOUND:                -0.677
REMARK  Name = cpd5.pdb
REMARK  7 active torsions:
REMARK  status: ('A' for Active; 'I' for Inactive)
REMARK    1  A    between atoms: C_1  and  O_2
REMARK    2  A    between atoms: O_2  and  C_3
REMARK    3  A    between atoms: C_8  and  O_9
REMARK    4  A    between atoms: O_9  and  C_10
REMARK    5  A    between atoms: C_13  and  C_14
REMARK    6  A    between atoms: N_17  and  C_18
REMARK    7  A    between atoms: C_18  and  C_19
REMARK                            x       y       z     vdW  Elec       q    Type
REMARK                         _______ _______ _______ _____ _____    ______ ____
ROOT
ATOM      1  C   UNL     1      41.080 -38.081 -29.742  0.00  0.00    +0.162 A 
ATOM      2  C   UNL     1      39.768 -37.985 -29.235  0.00  0.00    -0.012 A 
ATOM      3  C   UNL     1      38.853 -37.156 -29.858  0.00  0.00    -0.033 A 
ATOM      4  C   UNL     1      39.236 -36.451 -30.984  0.00  0.00    +0.025 A 
ATOM      5  C   UNL     1      40.512 -36.513 -31.517  0.00  0.00    -0.006 A 
ATOM      6  C   UNL     1      41.462 -37.325 -30.880  0.00  0.00    +0.162 A 
ATOM      7  C   UNL     1      38.103 -35.655 -31.437  0.00  0.00    +0.167 C 
ATOM      8  O   UNL     1      38.125 -34.979 -32.450  0.00  0.00    -0.292 OA
ATOM      9  C   UNL     1      36.982 -35.759 -30.413  0.00  0.00    +0.029 C 
ATOM     10  C   UNL     1      37.418 -36.936 -29.502  0.00  0.00    -0.017 C 
ENDROOT
BRANCH   9  11
ATOM     11  C   UNL     1      35.562 -35.910 -30.983  0.00  0.00    -0.029 C 
ATOM     12  C   UNL     1      35.038 -37.349 -30.897  0.00  0.00    -0.037 C 
ATOM     13  C   UNL     1      33.703 -37.501 -31.642  0.00  0.00    -0.001 C 
ATOM     14  N   UNL     1      32.923 -36.255 -31.713  0.00  0.00    -0.298 N 
ATOM     15  C   UNL     1      33.078 -35.469 -30.489  0.00  0.00    -0.001 C 
ATOM     16  C   UNL     1      34.520 -34.944 -30.379  0.00  0.00    -0.037 C 
ATOM     17  H   UNL     1      33.285 -35.681 -32.475  0.00  0.00    +0.000 HD
BRANCH  14  18
ATOM     18  C   UNL     1      31.514 -36.547 -32.025  0.00  0.00    +0.024 C 
BRANCH  18  19
ATOM     19  C   UNL     1      30.587 -35.377 -31.767  0.00  0.00    -0.033 A 
ATOM     20  C   UNL     1      30.740 -34.176 -32.474  0.00  0.00    -0.057 A 
ATOM     21  C   UNL     1      29.908 -33.086 -32.209  0.00  0.00    -0.061 A 
ATOM     22  C   UNL     1      28.919 -33.182 -31.232  0.00  0.00    -0.062 A 
ATOM     23  C   UNL     1      28.760 -34.367 -30.517  0.00  0.00    -0.061 A 
ATOM     24  C   UNL     1      29.592 -35.457 -30.779  0.00  0.00    -0.057 A 
ENDBRANCH  18  19
ENDBRANCH  14  18
ENDBRANCH   9  11
BRANCH   1  26
ATOM     25  C   UNL     1      41.652 -38.979 -27.584  0.00  0.00    +0.079 C 
ATOM     26  O   UNL     1      41.847 -38.935 -28.989  0.00  0.00    -0.491 OA
ENDBRANCH   1  26
BRANCH   6  27
ATOM     27  O   UNL     1      42.755 -37.426 -31.325  0.00  0.00    -0.491 OA
ATOM     28  C   UNL     1      43.657 -36.379 -30.986  0.00  0.00    +0.079 C 
ENDBRANCH   6  27
TORSDOF 5
ENDMDL
MODEL 9
REMARK VINA RESULT:    -6.968     15.700     17.223
REMARK INTER + INTRA:          -9.682
REMARK INTER:                  -8.887
REMARK INTRA:                  -0.795
REMARK UNBOUND:                -0.677
REMARK  Name = cpd5.pdb
REMARK  7 active torsions:
REMARK  status: ('A' for Active; 'I' for Inactive)
REMARK    1  A    between atoms: C_1  and  O_2
REMARK    2  A    between atoms: O_2  and  C_3
REMARK    3  A    between atoms: C_8  and  O_9
REMARK    4  A    between atoms: O_9  and  C_10
REMARK    5  A    between atoms: C_13  and  C_14
REMARK    6  A    between atoms: N_17  and  C_18
REMARK    7  A    between atoms: C_18  and  C_19
REMARK                            x       y       z     vdW  Elec       q    Type
REMARK                         _______ _______ _______ _____ _____    ______ ____
ROOT
ATOM      1  C   UNL     1      28.161 -31.535 -30.885  0.00  0.00    +0.162 A 
ATOM      2  C   UNL     1      28.876 -32.592 -31.484  0.00  0.00    -0.012 A 
ATOM      3  C   UNL     1      30.258 -32.597 -31.438  0.00  0.00    -0.033 A 
ATOM      4  C   UNL     1      30.916 -31.571 -30.786  0.00  0.00    +0.025 A 
ATOM      5  C   UNL     1      30.258 -30.512 -30.184  0.00  0.00    -0.006 A 
ATOM      6  C   UNL     1      28.857 -30.475 -30.247  0.00  0.00    +0.162 A 
ATOM      7  C   UNL     1      32.350 -31.804 -30.889  0.00  0.00    +0.167 C 
ATOM      8  O   UNL     1      33.183 -31.096 -30.350  0.00  0.00    -0.292 OA
ATOM      9  C   UNL     1      32.596 -32.985 -31.818  0.00  0.00    +0.029 C 
ATOM     10  C   UNL     1      31.195 -33.628 -31.979  0.00  0.00    -0.017 C 
ENDROOT
BRANCH   9  11
ATOM     11  C   UNL     1      33.685 -33.974 -31.374  0.00  0.00    -0.029 C 
ATOM     12  C   UNL     1      33.537 -34.401 -29.908  0.00  0.00    -0.037 C 
ATOM     13  C   UNL     1      34.741 -35.236 -29.445  0.00  0.00    -0.001 C 
ATOM     14  N   UNL     1      35.408 -35.962 -30.537  0.00  0.00    -0.298 N 
ATOM     15  C   UNL     1      34.436 -36.428 -31.527  0.00  0.00    -0.001 C 
ATOM     16  C   UNL     1      33.818 -35.228 -32.265  0.00  0.00    -0.037 C 
ATOM     17  H   UNL     1      36.036 -35.322 -31.025  0.00  0.00    +0.000 HD
BRANCH  14  18
ATOM     18  C   UNL     1      36.237 -37.053 -30.000  0.00  0.00    +0.024 C 
BRANCH  18  19
ATOM     19  C   UNL     1      37.710 -36.903 -30.321  0.00  0.00    -0.033 A 
ATOM     20  C   UNL     1      38.123 -36.188 -31.454  0.00  0.00    -0.057 A 
ATOM     21  C   UNL     1      39.480 -36.081 -31.768  0.00  0.00    -0.061 A 
ATOM     22  C   UNL     1      40.436 -36.690 -30.958  0.00  0.00    -0.062 A 
ATOM     23  C   UNL     1      40.039 -37.410 -29.833  0.00  0.00    -0.061 A 
ATOM     24  C   UNL     1      38.684 -37.519 -29.518  0.00  0.00    -0.057 A 
ENDBRANCH  18  19
ENDBRANCH  14  18
ENDBRANCH   9  11
BRANCH   1  26
ATOM     25  C   UNL     1      26.257 -31.660 -32.350  0.00  0.00    +0.079 C 
ATOM     26  O   UNL     1      26.807 -31.692 -31.042  0.00  0.00    -0.491 OA
ENDBRANCH   1  26
BRANCH   6  27
ATOM     27  O   UNL     1      28.126 -29.452 -29.701  0.00  0.00    -0.491 OA
ATOM     28  C   UNL     1      28.813 -28.503 -28.895  0.00  0.00    +0.079 C 
ENDBRANCH   6  27
TORSDOF 5
ENDMDL
MODEL 10
REMARK VINA RESULT:    -6.888     17.190     21.523
REMARK INTER + INTRA:          -9.578
REMARK INTER:                  -8.757
REMARK INTRA:                  -0.821
REMARK UNBOUND:                -0.677
REMARK  Name = cpd5.pdb
REMARK  7 active torsions:
REMARK  status: ('A' for Active; 'I' for Inactive)
REMARK    1  A    between atoms: C_1  and  O_2
REMARK    2  A    between atoms: O_2  and  C_3
REMARK    3  A    between atoms: C_8  and  O_9
REMARK    4  A    between atoms: O_9  and  C_10
REMARK    5  A    between atoms: C_13  and  C_14
REMARK    6  A    between atoms: N_17  and  C_18
REMARK    7  A    between atoms: C_18  and  C_19
REMARK                            x       y       z     vdW  Elec       q    Type
REMARK                         _______ _______ _______ _____ _____    ______ ____
ROOT
ATOM      1  C   UNL     1      31.691 -43.659 -28.210  0.00  0.00    +0.162 A 
ATOM      2  C   UNL     1      31.829 -42.257 -28.261  0.00  0.00    -0.012 A 
ATOM      3  C   UNL     1      33.083 -41.688 -28.135  0.00  0.00    -0.033 A 
ATOM      4  C   UNL     1      34.185 -42.508 -27.982  0.00  0.00    +0.025 A 
ATOM      5  C   UNL     1      34.099 -43.888 -27.926  0.00  0.00    -0.006 A 
ATOM      6  C   UNL     1      32.832 -44.482 -28.021  0.00  0.00    +0.162 A 
ATOM      7  C   UNL     1      35.370 -41.669 -27.864  0.00  0.00    +0.167 C 
ATOM      8  O   UNL     1      36.501 -42.117 -27.784  0.00  0.00    -0.292 OA
ATOM      9  C   UNL     1      34.941 -40.211 -27.778  0.00  0.00    +0.029 C 
ATOM     10  C   UNL     1      33.447 -40.239 -28.191  0.00  0.00    -0.017 C 
ENDROOT
BRANCH   9  11
ATOM     11  C   UNL     1      35.788 -39.212 -28.582  0.00  0.00    -0.029 C 
ATOM     12  C   UNL     1      35.133 -38.813 -29.910  0.00  0.00    -0.037 C 
ATOM     13  C   UNL     1      36.085 -37.967 -30.770  0.00  0.00    -0.001 C 
ATOM     14  N   UNL     1      37.073 -37.211 -29.984  0.00  0.00    -0.298 N 
ATOM     15  C   UNL     1      36.493 -36.744 -28.724  0.00  0.00    -0.001 C 
ATOM     16  C   UNL     1      36.194 -37.941 -27.805  0.00  0.00    -0.037 C 
ATOM     17  H   UNL     1      37.843 -37.832 -29.737  0.00  0.00    +0.000 HD
BRANCH  14  18
ATOM     18  C   UNL     1      37.641 -36.117 -30.787  0.00  0.00    +0.024 C 
BRANCH  18  19
ATOM     19  C   UNL     1      39.063 -36.377 -31.237  0.00  0.00    -0.033 A 
ATOM     20  C   UNL     1      39.531 -35.863 -32.455  0.00  0.00    -0.057 A 
ATOM     21  C   UNL     1      40.832 -36.135 -32.886  0.00  0.00    -0.061 A 
ATOM     22  C   UNL     1      41.676 -36.926 -32.109  0.00  0.00    -0.062 A 
ATOM     23  C   UNL     1      41.221 -37.449 -30.900  0.00  0.00    -0.061 A 
ATOM     24  C   UNL     1      39.922 -37.180 -30.468  0.00  0.00    -0.057 A 
ENDBRANCH  18  19
ENDBRANCH  14  18
ENDBRANCH   9  11
BRANCH   1  26
ATOM     25  C   UNL     1      29.634 -43.582 -29.457  0.00  0.00    +0.079 C 
ATOM     26  O   UNL     1      30.378 -44.039 -28.337  0.00  0.00    -0.491 OA
ENDBRANCH   1  26
BRANCH   6  27
ATOM     27  O   UNL     1      32.652 -45.839 -27.949  0.00  0.00    -0.491 OA
ATOM     28  C   UNL     1      32.855 -46.469 -26.691  0.00  0.00    +0.079 C 
ENDBRANCH   6  27
TORSDOF 5
ENDMDL
MODEL 11
REMARK VINA RESULT:    -6.872     15.460     18.020
REMARK INTER + INTRA:          -9.558
REMARK INTER:                  -8.786
REMARK INTRA:                  -0.772
REMARK UNBOUND:                -0.677
REMARK  Name = cpd5.pdb
REMARK  7 active torsions:
REMARK  status: ('A' for Active; 'I' for Inactive)
REMARK    1  A    between atoms: C_1  and  O_2
REMARK    2  A    between atoms: O_2  and  C_3
REMARK    3  A    between atoms: C_8  and  O_9
REMARK    4  A    between atoms: O_9  and  C_10
REMARK    5  A    between atoms: C_13  and  C_14
REMARK    6  A    between atoms: N_17  and  C_18
REMARK    7  A    between atoms: C_18  and  C_19
REMARK                            x       y       z     vdW  Elec       q    Type
REMARK                         _______ _______ _______ _____ _____    ______ ____
ROOT
ATOM      1  C   UNL     1      36.147 -36.541 -29.664  0.00  0.00    +0.162 A 
ATOM      2  C   UNL     1      35.082 -35.845 -29.058  0.00  0.00    -0.012 A 
ATOM      3  C   UNL     1      34.712 -34.604 -29.543  0.00  0.00    -0.033 A 
ATOM      4  C   UNL     1      35.382 -34.076 -30.631  0.00  0.00    +0.025 A 
ATOM      5  C   UNL     1      36.433 -34.722 -31.258  0.00  0.00    -0.006 A 
ATOM      6  C   UNL     1      36.842 -35.969 -30.761  0.00  0.00    +0.162 A 
ATOM      7  C   UNL     1      34.812 -32.770 -30.934  0.00  0.00    +0.167 C 
ATOM      8  O   UNL     1      35.159 -32.095 -31.887  0.00  0.00    -0.292 OA
ATOM      9  C   UNL     1      33.817 -32.397 -29.844  0.00  0.00    +0.029 C 
ATOM     10  C   UNL     1      33.602 -33.722 -29.068  0.00  0.00    -0.017 C 
ENDROOT
BRANCH   9  11
ATOM     11  C   UNL     1      32.512 -31.740 -30.321  0.00  0.00    -0.029 C 
ATOM     12  C   UNL     1      31.637 -32.691 -31.148  0.00  0.00    -0.037 C 
ATOM     13  C   UNL     1      30.439 -31.952 -31.765  0.00  0.00    -0.001 C 
ATOM     14  N   UNL     1      30.017 -30.770 -30.996  0.00  0.00    -0.298 N 
ATOM     15  C   UNL     1      30.172 -30.998 -29.558  0.00  0.00    -0.001 C 
ATOM     16  C   UNL     1      31.664 -31.103 -29.199  0.00  0.00    -0.037 C 
ATOM     17  H   UNL     1      30.626 -29.987 -31.233  0.00  0.00    +0.000 HD
BRANCH  14  18
ATOM     18  C   UNL     1      28.646 -30.379 -31.363  0.00  0.00    +0.024 C 
BRANCH  18  19
ATOM     19  C   UNL     1      28.099 -29.246 -30.521  0.00  0.00    -0.033 A 
ATOM     20  C   UNL     1      27.011 -29.458 -29.662  0.00  0.00    -0.057 A 
ATOM     21  C   UNL     1      26.483 -28.403 -28.913  0.00  0.00    -0.061 A 
ATOM     22  C   UNL     1      27.033 -27.127 -29.017  0.00  0.00    -0.062 A 
ATOM     23  C   UNL     1      28.110 -26.901 -29.871  0.00  0.00    -0.061 A 
ATOM     24  C   UNL     1      28.637 -27.953 -30.622  0.00  0.00    -0.057 A 
ENDBRANCH  18  19
ENDBRANCH  14  18
ENDBRANCH   9  11
BRANCH   1  26
ATOM     25  C   UNL     1      37.209 -37.773 -27.890  0.00  0.00    +0.079 C 
ATOM     26  O   UNL     1      36.379 -37.743 -29.042  0.00  0.00    -0.491 OA
ENDBRANCH   1  26
BRANCH   6  27
ATOM     27  O   UNL     1      37.890 -36.666 -31.304  0.00  0.00    -0.491 OA
ATOM     28  C   UNL     1      39.207 -36.201 -31.034  0.00  0.00    +0.079 C 
ENDBRANCH   6  27
TORSDOF 5
ENDMDL
MODEL 12
REMARK VINA RESULT:    -6.767     16.393     22.651
REMARK INTER + INTRA:          -9.422
REMARK INTER:                  -8.629
REMARK INTRA:                  -0.793
REMARK UNBOUND:                -0.677
REMARK  Name = cpd5.pdb
REMARK  7 active torsions:
REMARK  status: ('A' for Active; 'I' for Inactive)
REMARK    1  A    between atoms: C_1  and  O_2
REMARK    2  A    between atoms: O_2  and  C_3
REMARK    3  A    between atoms: C_8  and  O_9
REMARK    4  A    between atoms: O_9  and  C_10
REMARK    5  A    between atoms: C_13  and  C_14
REMARK    6  A    between atoms: N_17  and  C_18
REMARK    7  A    between atoms: C_18  and  C_19
REMARK                            x       y       z     vdW  Elec       q    Type
REMARK                         _______ _______ _______ _____ _____    ______ ____
ROOT
ATOM      1  C   UNL     1      32.442 -33.748 -29.250  0.00  0.00    +0.162 A 
ATOM      2  C   UNL     1      31.844 -34.304 -28.101  0.00  0.00    -0.012 A 
ATOM      3  C   UNL     1      32.450 -35.371 -27.463  0.00  0.00    -0.033 A 
ATOM      4  C   UNL     1      33.646 -35.861 -27.953  0.00  0.00    +0.025 A 
ATOM      5  C   UNL     1      34.269 -35.348 -29.077  0.00  0.00    -0.006 A 
ATOM      6  C   UNL     1      33.654 -34.285 -29.755  0.00  0.00    +0.162 A 
ATOM      7  C   UNL     1      34.063 -36.978 -27.116  0.00  0.00    +0.167 C 
ATOM      8  O   UNL     1      35.119 -37.568 -27.267  0.00  0.00    -0.292 OA
ATOM      9  C   UNL     1      32.952 -37.300 -26.126  0.00  0.00    +0.029 C 
ATOM     10  C   UNL     1      32.001 -36.080 -26.226  0.00  0.00    -0.017 C 
ENDROOT
BRANCH   9  11
ATOM     11  C   UNL     1      33.401 -37.621 -24.692  0.00  0.00    -0.029 C 
ATOM     12  C   UNL     1      33.463 -36.377 -23.797  0.00  0.00    -0.037 C 
ATOM     13  C   UNL     1      34.092 -36.701 -22.434  0.00  0.00    -0.001 C 
ATOM     14  N   UNL     1      33.919 -38.104 -22.024  0.00  0.00    -0.298 N 
ATOM     15  C   UNL     1      32.620 -38.619 -22.456  0.00  0.00    -0.001 C 
ATOM     16  C   UNL     1      32.575 -38.721 -23.990  0.00  0.00    -0.037 C 
ATOM     17  H   UNL     1      34.627 -38.673 -22.489  0.00  0.00    +0.000 HD
BRANCH  14  18
ATOM     18  C   UNL     1      34.133 -38.248 -20.575  0.00  0.00    +0.024 C 
BRANCH  18  19
ATOM     19  C   UNL     1      35.357 -39.070 -20.227  0.00  0.00    -0.033 A 
ATOM     20  C   UNL     1      35.433 -40.422 -20.588  0.00  0.00    -0.057 A 
ATOM     21  C   UNL     1      36.546 -41.189 -20.235  0.00  0.00    -0.061 A 
ATOM     22  C   UNL     1      37.591 -40.615 -19.514  0.00  0.00    -0.062 A 
ATOM     23  C   UNL     1      37.525 -39.273 -19.142  0.00  0.00    -0.061 A 
ATOM     24  C   UNL     1      36.413 -38.506 -19.493  0.00  0.00    -0.057 A 
ENDBRANCH  18  19
ENDBRANCH  14  18
ENDBRANCH   9  11
BRANCH   1  26
ATOM     25  C   UNL     1      30.304 -32.667 -29.473  0.00  0.00    +0.079 C 
ATOM     26  O   UNL     1      31.695 -32.712 -29.753  0.00  0.00    -0.491 OA
ENDBRANCH   1  26
BRANCH   6  27
ATOM     27  O   UNL     1      34.189 -33.734 -30.890  0.00  0.00    -0.491 OA
ATOM     28  C   UNL     1      35.339 -32.910 -30.750  0.00  0.00    +0.079 C 
ENDBRANCH   6  27
TORSDOF 5
ENDMDL
MODEL 13
REMARK VINA RESULT:    -6.766      2.403      3.593
REMARK INTER + INTRA:          -9.421
REMARK INTER:                  -8.673
REMARK INTRA:                  -0.748
REMARK UNBOUND:                -0.677
REMARK  Name = cpd5.pdb
REMARK  7 active torsions:
REMARK  status: ('A' for Active; 'I' for Inactive)
REMARK    1  A    between atoms: C_1  and  O_2
REMARK    2  A    between atoms: O_2  and  C_3
REMARK    3  A    between atoms: C_8  and  O_9
REMARK    4  A    between atoms: O_9  and  C_10
REMARK    5  A    between atoms: C_13  and  C_14
REMARK    6  A    between atoms: N_17  and  C_18
REMARK    7  A    between atoms: C_18  and  C_19
REMARK                            x       y       z     vdW  Elec       q    Type
REMARK                         _______ _______ _______ _____ _____    ______ ____
ROOT
ATOM      1  C   UNL     1      39.761 -21.995 -33.201  0.00  0.00    +0.162 A 
ATOM      2  C   UNL     1      40.621 -22.491 -34.201  0.00  0.00    -0.012 A 
ATOM      3  C   UNL     1      40.563 -21.962 -35.477  0.00  0.00    -0.033 A 
ATOM      4  C   UNL     1      39.672 -20.939 -35.745  0.00  0.00    +0.025 A 
ATOM      5  C   UNL     1      38.808 -20.421 -34.796  0.00  0.00    -0.006 A 
ATOM      6  C   UNL     1      38.833 -20.966 -33.504  0.00  0.00    +0.162 A 
ATOM      7  C   UNL     1      39.801 -20.572 -37.149  0.00  0.00    +0.167 C 
ATOM      8  O   UNL     1      39.186 -19.651 -37.658  0.00  0.00    -0.292 OA
ATOM      9  C   UNL     1      40.734 -21.559 -37.837  0.00  0.00    +0.029 C 
ATOM     10  C   UNL     1      41.399 -22.322 -36.663  0.00  0.00    -0.017 C 
ENDROOT
BRANCH   9  11
ATOM     11  C   UNL     1      41.738 -20.954 -38.831  0.00  0.00    -0.029 C 
ATOM     12  C   UNL     1      43.185 -21.019 -38.326  0.00  0.00    -0.037 C 
ATOM     13  C   UNL     1      44.134 -20.241 -39.251  0.00  0.00    -0.001 C 
ATOM     14  N   UNL     1      43.663 -20.158 -40.643  0.00  0.00    -0.298 N 
ATOM     15  C   UNL     1      42.980 -21.389 -41.040  0.00  0.00    -0.001 C 
ATOM     16  C   UNL     1      41.663 -21.537 -40.259  0.00  0.00    -0.037 C 
ATOM     17  H   UNL     1      42.975 -19.408 -40.714  0.00  0.00    +0.000 HD
BRANCH  14  18
ATOM     18  C   UNL     1      44.774 -19.810 -41.543  0.00  0.00    +0.024 C 
BRANCH  18  19
ATOM     19  C   UNL     1      45.335 -18.425 -41.298  0.00  0.00    -0.033 A 
ATOM     20  C   UNL     1      46.699 -18.247 -41.024  0.00  0.00    -0.057 A 
ATOM     21  C   UNL     1      47.209 -16.973 -40.763  0.00  0.00    -0.061 A 
ATOM     22  C   UNL     1      46.362 -15.866 -40.767  0.00  0.00    -0.062 A 
ATOM     23  C   UNL     1      45.004 -16.030 -41.032  0.00  0.00    -0.061 A 
ATOM     24  C   UNL     1      44.493 -17.302 -41.291  0.00  0.00    -0.057 A 
ENDBRANCH  18  19
ENDBRANCH  14  18
ENDBRANCH   9  11
BRANCH   1  26
ATOM     25  C   UNL     1      41.211 -23.245 -31.743  0.00  0.00    +0.079 C 
ATOM     26  O   UNL     1      39.951 -22.647 -32.007  0.00  0.00    -0.491 OA
ENDBRANCH   1  26
BRANCH   6  27
ATOM     27  O   UNL     1      37.994 -20.531 -32.510  0.00  0.00    -0.491 OA
ATOM     28  C   UNL     1      36.596 -20.543 -32.770  0.00  0.00    +0.079 C 
ENDBRANCH   6  27
TORSDOF 5
ENDMDL
MODEL 14
REMARK VINA RESULT:    -6.721     15.997     17.665
REMARK INTER + INTRA:          -9.363
REMARK INTER:                  -8.459
REMARK INTRA:                  -0.904
REMARK UNBOUND:                -0.677
REMARK  Name = cpd5.pdb
REMARK  7 active torsions:
REMARK  status: ('A' for Active; 'I' for Inactive)
REMARK    1  A    between atoms: C_1  and  O_2
REMARK    2  A    between atoms: O_2  and  C_3
REMARK    3  A    between atoms: C_8  and  O_9
REMARK    4  A    between atoms: O_9  and  C_10
REMARK    5  A    between atoms: C_13  and  C_14
REMARK    6  A    between atoms: N_17  and  C_18
REMARK    7  A    between atoms: C_18  and  C_19
REMARK                            x       y       z     vdW  Elec       q    Type
REMARK                         _______ _______ _______ _____ _____    ______ ____
ROOT
ATOM      1  C   UNL     1      27.956 -29.751 -31.283  0.00  0.00    +0.162 A 
ATOM      2  C   UNL     1      29.357 -29.772 -31.440  0.00  0.00    -0.012 A 
ATOM      3  C   UNL     1      30.110 -30.699 -30.743  0.00  0.00    -0.033 A 
ATOM      4  C   UNL     1      29.471 -31.605 -29.917  0.00  0.00    +0.025 A 
ATOM      5  C   UNL     1      28.099 -31.623 -29.732  0.00  0.00    -0.006 A 
ATOM      6  C   UNL     1      27.322 -30.670 -30.408  0.00  0.00    +0.162 A 
ATOM      7  C   UNL     1      30.479 -32.455 -29.299  0.00  0.00    +0.167 C 
ATOM      8  O   UNL     1      30.206 -33.393 -28.570  0.00  0.00    -0.292 OA
ATOM      9  C   UNL     1      31.861 -31.924 -29.650  0.00  0.00    +0.029 C 
ATOM     10  C   UNL     1      31.590 -30.906 -30.788  0.00  0.00    -0.017 C 
ENDROOT
BRANCH   9  11
ATOM     11  C   UNL     1      32.919 -32.982 -30.004  0.00  0.00    -0.029 C 
ATOM     12  C   UNL     1      32.749 -33.538 -31.423  0.00  0.00    -0.037 C 
ATOM     13  C   UNL     1      33.698 -34.721 -31.676  0.00  0.00    -0.001 C 
ATOM     14  N   UNL     1      34.921 -34.678 -30.859  0.00  0.00    -0.298 N 
ATOM     15  C   UNL     1      35.380 -33.301 -30.673  0.00  0.00    -0.001 C 
ATOM     16  C   UNL     1      34.380 -32.525 -29.800  0.00  0.00    -0.037 C 
ATOM     17  H   UNL     1      34.711 -35.042 -29.930  0.00  0.00    +0.000 HD
BRANCH  14  18
ATOM     18  C   UNL     1      35.958 -35.548 -31.439  0.00  0.00    +0.024 C 
BRANCH  18  19
ATOM     19  C   UNL     1      36.714 -36.353 -30.403  0.00  0.00    -0.033 A 
ATOM     20  C   UNL     1      36.120 -36.671 -29.173  0.00  0.00    -0.057 A 
ATOM     21  C   UNL     1      36.832 -37.382 -28.205  0.00  0.00    -0.061 A 
ATOM     22  C   UNL     1      38.146 -37.778 -28.451  0.00  0.00    -0.062 A 
ATOM     23  C   UNL     1      38.751 -37.463 -29.666  0.00  0.00    -0.061 A 
ATOM     24  C   UNL     1      38.041 -36.751 -30.635  0.00  0.00    -0.057 A 
ENDBRANCH  18  19
ENDBRANCH  14  18
ENDBRANCH   9  11
BRANCH   1  26
ATOM     25  C   UNL     1      27.056 -29.028 -33.395  0.00  0.00    +0.079 C 
ATOM     26  O   UNL     1      27.382 -28.759 -32.039  0.00  0.00    -0.491 OA
ENDBRANCH   1  26
BRANCH   6  27
ATOM     27  O   UNL     1      25.961 -30.599 -30.263  0.00  0.00    -0.491 OA
ATOM     28  C   UNL     1      25.163 -31.464 -31.061  0.00  0.00    +0.079 C 
ENDBRANCH   6  27
TORSDOF 5
ENDMDL
MODEL 15
REMARK VINA RESULT:    -6.470     16.439     20.678
REMARK INTER + INTRA:          -9.039
REMARK INTER:                  -8.344
REMARK INTRA:                  -0.695
REMARK UNBOUND:                -0.677
REMARK  Name = cpd5.pdb
REMARK  7 active torsions:
REMARK  status: ('A' for Active; 'I' for Inactive)
REMARK    1  A    between atoms: C_1  and  O_2
REMARK    2  A    between atoms: O_2  and  C_3
REMARK    3  A    between atoms: C_8  and  O_9
REMARK    4  A    between atoms: O_9  and  C_10
REMARK    5  A    between atoms: C_13  and  C_14
REMARK    6  A    between atoms: N_17  and  C_18
REMARK    7  A    between atoms: C_18  and  C_19
REMARK                            x       y       z     vdW  Elec       q    Type
REMARK                         _______ _______ _______ _____ _____    ______ ____
ROOT
ATOM      1  C   UNL     1      30.398 -41.423 -36.379  0.00  0.00    +0.162 A 
ATOM      2  C   UNL     1      30.525 -40.527 -35.299  0.00  0.00    -0.012 A 
ATOM      3  C   UNL     1      31.662 -40.561 -34.512  0.00  0.00    -0.033 A 
ATOM      4  C   UNL     1      32.666 -41.463 -34.814  0.00  0.00    +0.025 A 
ATOM      5  C   UNL     1      32.585 -42.361 -35.863  0.00  0.00    -0.006 A 
ATOM      6  C   UNL     1      31.426 -42.361 -36.654  0.00  0.00    +0.162 A 
ATOM      7  C   UNL     1      33.737 -41.304 -33.839  0.00  0.00    +0.167 C 
ATOM      8  O   UNL     1      34.786 -41.922 -33.891  0.00  0.00    -0.292 OA
ATOM      9  C   UNL     1      33.283 -40.335 -32.756  0.00  0.00    +0.029 C 
ATOM     10  C   UNL     1      32.005 -39.688 -33.348  0.00  0.00    -0.017 C 
ENDROOT
BRANCH   9  11
ATOM     11  C   UNL     1      34.331 -39.316 -32.282  0.00  0.00    -0.029 C 
ATOM     12  C   UNL     1      33.702 -38.057 -31.673  0.00  0.00    -0.037 C 
ATOM     13  C   UNL     1      34.766 -36.986 -31.385  0.00  0.00    -0.001 C 
ATOM     14  N   UNL     1      36.107 -37.538 -31.139  0.00  0.00    -0.298 N 
ATOM     15  C   UNL     1      36.026 -38.809 -30.417  0.00  0.00    -0.001 C 
ATOM     16  C   UNL     1      35.390 -39.885 -31.313  0.00  0.00    -0.037 C 
ATOM     17  H   UNL     1      36.550 -37.742 -32.036  0.00  0.00    +0.000 HD
BRANCH  14  18
ATOM     18  C   UNL     1      36.954 -36.549 -30.453  0.00  0.00    +0.024 C 
BRANCH  18  19
ATOM     19  C   UNL     1      38.368 -36.492 -30.993  0.00  0.00    -0.033 A 
ATOM     20  C   UNL     1      39.410 -37.159 -30.333  0.00  0.00    -0.057 A 
ATOM     21  C   UNL     1      40.720 -37.076 -30.812  0.00  0.00    -0.061 A 
ATOM     22  C   UNL     1      41.003 -36.322 -31.949  0.00  0.00    -0.062 A 
ATOM     23  C   UNL     1      39.978 -35.648 -32.610  0.00  0.00    -0.061 A 
ATOM     24  C   UNL     1      38.669 -35.729 -32.133  0.00  0.00    -0.057 A 
ENDBRANCH  18  19
ENDBRANCH  14  18
ENDBRANCH   9  11
BRANCH   1  26
ATOM     25  C   UNL     1      29.081 -40.203 -37.982  0.00  0.00    +0.079 C 
ATOM     26  O   UNL     1      29.203 -41.252 -37.034  0.00  0.00    -0.491 OA
ENDBRANCH   1  26
BRANCH   6  27
ATOM     27  O   UNL     1      31.251 -43.234 -37.697  0.00  0.00    -0.491 OA
ATOM     28  C   UNL     1      31.985 -42.995 -38.891  0.00  0.00    +0.079 C 
ENDBRANCH   6  27
TORSDOF 5
ENDMDL
MODEL 16
REMARK VINA RESULT:    -6.452      7.344     11.151
REMARK INTER + INTRA:          -9.015
REMARK INTER:                  -8.399
REMARK INTRA:                  -0.616
REMARK UNBOUND:                -0.677
REMARK  Name = cpd5.pdb
REMARK  7 active torsions:
REMARK  status: ('A' for Active; 'I' for Inactive)
REMARK    1  A    between atoms: C_1  and  O_2
REMARK    2  A    between atoms: O_2  and  C_3
REMARK    3  A    between atoms: C_8  and  O_9
REMARK    4  A    between atoms: O_9  and  C_10
REMARK    5  A    between atoms: C_13  and  C_14
REMARK    6  A    between atoms: N_17  and  C_18
REMARK    7  A    between atoms: C_18  and  C_19
REMARK                            x       y       z     vdW  Elec       q    Type
REMARK                         _______ _______ _______ _____ _____    ______ ____
ROOT
ATOM      1  C   UNL     1      49.811 -11.522 -38.628  0.00  0.00    +0.162 A 
ATOM      2  C   UNL     1      48.950 -12.484 -38.062  0.00  0.00    -0.012 A 
ATOM      3  C   UNL     1      48.491 -13.532 -38.839  0.00  0.00    -0.033 A 
ATOM      4  C   UNL     1      48.902 -13.628 -40.156  0.00  0.00    +0.025 A 
ATOM      5  C   UNL     1      49.744 -12.708 -40.754  0.00  0.00    -0.006 A 
ATOM      6  C   UNL     1      50.196 -11.621 -39.989  0.00  0.00    +0.162 A 
ATOM      7  C   UNL     1      48.275 -14.802 -40.749  0.00  0.00    +0.167 C 
ATOM      8  O   UNL     1      48.504 -15.178 -41.886  0.00  0.00    -0.292 OA
ATOM      9  C   UNL     1      47.272 -15.383 -39.762  0.00  0.00    +0.029 C 
ATOM     10  C   UNL     1      47.604 -14.664 -38.429  0.00  0.00    -0.017 C 
ENDROOT
BRANCH   9  11
ATOM     11  C   UNL     1      47.249 -16.915 -39.651  0.00  0.00    -0.029 C 
ATOM     12  C   UNL     1      46.930 -17.402 -38.232  0.00  0.00    -0.037 C 
ATOM     13  C   UNL     1      47.101 -18.925 -38.113  0.00  0.00    -0.001 C 
ATOM     14  N   UNL     1      46.900 -19.641 -39.383  0.00  0.00    -0.298 N 
ATOM     15  C   UNL     1      45.852 -19.006 -40.182  0.00  0.00    -0.001 C 
ATOM     16  C   UNL     1      46.318 -17.621 -40.660  0.00  0.00    -0.037 C 
ATOM     17  H   UNL     1      47.758 -19.585 -39.933  0.00  0.00    +0.000 HD
BRANCH  14  18
ATOM     18  C   UNL     1      46.639 -21.068 -39.135  0.00  0.00    +0.024 C 
BRANCH  18  19
ATOM     19  C   UNL     1      47.090 -21.967 -40.267  0.00  0.00    -0.033 A 
ATOM     20  C   UNL     1      46.189 -22.362 -41.266  0.00  0.00    -0.057 A 
ATOM     21  C   UNL     1      46.597 -23.220 -42.289  0.00  0.00    -0.061 A 
ATOM     22  C   UNL     1      47.906 -23.698 -42.323  0.00  0.00    -0.062 A 
ATOM     23  C   UNL     1      48.810 -23.318 -41.332  0.00  0.00    -0.061 A 
ATOM     24  C   UNL     1      48.404 -22.462 -40.308  0.00  0.00    -0.057 A 
ENDBRANCH  18  19
ENDBRANCH  14  18
ENDBRANCH   9  11
BRANCH   1  26
ATOM     25  C   UNL     1      49.424  -9.334 -37.703  0.00  0.00    +0.079 C 
ATOM     26  O   UNL     1      50.150 -10.554 -37.715  0.00  0.00    -0.491 OA
ENDBRANCH   1  26
BRANCH   6  27
ATOM     27  O   UNL     1      51.012 -10.650 -40.509  0.00  0.00    -0.491 OA
ATOM     28  C   UNL     1      52.397 -10.707 -40.191  0.00  0.00    +0.079 C 
ENDBRANCH   6  27
TORSDOF 5
ENDMDL
MODEL 17
REMARK VINA RESULT:    -6.448      3.442      9.609
REMARK INTER + INTRA:          -9.010
REMARK INTER:                  -8.419
REMARK INTRA:                  -0.591
REMARK UNBOUND:                -0.677
REMARK  Name = cpd5.pdb
REMARK  7 active torsions:
REMARK  status: ('A' for Active; 'I' for Inactive)
REMARK    1  A    between atoms: C_1  and  O_2
REMARK    2  A    between atoms: O_2  and  C_3
REMARK    3  A    between atoms: C_8  and  O_9
REMARK    4  A    between atoms: O_9  and  C_10
REMARK    5  A    between atoms: C_13  and  C_14
REMARK    6  A    between atoms: N_17  and  C_18
REMARK    7  A    between atoms: C_18  and  C_19
REMARK                            x       y       z     vdW  Elec       q    Type
REMARK                         _______ _______ _______ _____ _____    ______ ____
ROOT
ATOM      1  C   UNL     1      47.220 -21.312 -40.995  0.00  0.00    +0.162 A 
ATOM      2  C   UNL     1      46.934 -20.507 -39.874  0.00  0.00    -0.012 A 
ATOM      3  C   UNL     1      45.636 -20.424 -39.405  0.00  0.00    -0.033 A 
ATOM      4  C   UNL     1      44.642 -21.152 -40.032  0.00  0.00    +0.025 A 
ATOM      5  C   UNL     1      44.876 -21.955 -41.135  0.00  0.00    -0.006 A 
ATOM      6  C   UNL     1      46.181 -22.028 -41.644  0.00  0.00    +0.162 A 
ATOM      7  C   UNL     1      43.379 -20.885 -39.357  0.00  0.00    +0.167 C 
ATOM      8  O   UNL     1      42.335 -21.440 -39.651  0.00  0.00    -0.292 OA
ATOM      9  C   UNL     1      43.588 -19.780 -38.332  0.00  0.00    +0.029 C 
ATOM     10  C   UNL     1      45.130 -19.658 -38.225  0.00  0.00    -0.017 C 
ENDROOT
BRANCH   9  11
ATOM     11  C   UNL     1      42.886 -19.977 -36.979  0.00  0.00    -0.029 C 
ATOM     12  C   UNL     1      43.848 -19.861 -35.789  0.00  0.00    -0.037 C 
ATOM     13  C   UNL     1      43.156 -20.248 -34.473  0.00  0.00    -0.001 C 
ATOM     14  N   UNL     1      41.701 -20.030 -34.486  0.00  0.00    -0.298 N 
ATOM     15  C   UNL     1      41.357 -18.835 -35.257  0.00  0.00    -0.001 C 
ATOM     16  C   UNL     1      41.665 -19.061 -36.746  0.00  0.00    -0.037 C 
ATOM     17  H   UNL     1      41.253 -20.818 -34.956  0.00  0.00    +0.000 HD
BRANCH  14  18
ATOM     18  C   UNL     1      41.174 -19.991 -33.113  0.00  0.00    +0.024 C 
BRANCH  18  19
ATOM     19  C   UNL     1      39.663 -20.079 -33.046  0.00  0.00    -0.033 A 
ATOM     20  C   UNL     1      38.895 -18.940 -32.763  0.00  0.00    -0.057 A 
ATOM     21  C   UNL     1      37.504 -19.030 -32.666  0.00  0.00    -0.061 A 
ATOM     22  C   UNL     1      36.867 -20.256 -32.846  0.00  0.00    -0.062 A 
ATOM     23  C   UNL     1      37.620 -21.397 -33.122  0.00  0.00    -0.061 A 
ATOM     24  C   UNL     1      39.009 -21.310 -33.217  0.00  0.00    -0.057 A 
ENDBRANCH  18  19
ENDBRANCH  14  18
ENDBRANCH   9  11
BRANCH   1  26
ATOM     25  C   UNL     1      49.449 -22.175 -40.712  0.00  0.00    +0.079 C 
ATOM     26  O   UNL     1      48.552 -21.260 -41.323  0.00  0.00    -0.491 OA
ENDBRANCH   1  26
BRANCH   6  27
ATOM     27  O   UNL     1      46.496 -22.778 -42.747  0.00  0.00    -0.491 OA
ATOM     28  C   UNL     1      47.127 -24.035 -42.536  0.00  0.00    +0.079 C 
ENDBRANCH   6  27
TORSDOF 5
ENDMDL
MODEL 18
REMARK VINA RESULT:    -6.418     15.739     18.066
REMARK INTER + INTRA:          -8.972
REMARK INTER:                  -8.227
REMARK INTRA:                  -0.745
REMARK UNBOUND:                -0.677
REMARK  Name = cpd5.pdb
REMARK  7 active torsions:
REMARK  status: ('A' for Active; 'I' for Inactive)
REMARK    1  A    between atoms: C_1  and  O_2
REMARK    2  A    between atoms: O_2  and  C_3
REMARK    3  A    between atoms: C_8  and  O_9
REMARK    4  A    between atoms: O_9  and  C_10
REMARK    5  A    between atoms: C_13  and  C_14
REMARK    6  A    between atoms: N_17  and  C_18
REMARK    7  A    between atoms: C_18  and  C_19
REMARK                            x       y       z     vdW  Elec       q    Type
REMARK                         _______ _______ _______ _____ _____    ______ ____
ROOT
ATOM      1  C   UNL     1      28.547 -31.490 -30.531  0.00  0.00    +0.162 A 
ATOM      2  C   UNL     1      29.208 -32.528 -31.218  0.00  0.00    -0.012 A 
ATOM      3  C   UNL     1      30.588 -32.603 -31.181  0.00  0.00    -0.033 A 
ATOM      4  C   UNL     1      31.297 -31.667 -30.451  0.00  0.00    +0.025 A 
ATOM      5  C   UNL     1      30.692 -30.631 -29.761  0.00  0.00    -0.006 A 
ATOM      6  C   UNL     1      29.294 -30.521 -29.812  0.00  0.00    +0.162 A 
ATOM      7  C   UNL     1      32.718 -31.960 -30.582  0.00  0.00    +0.167 C 
ATOM      8  O   UNL     1      33.585 -31.339 -29.992  0.00  0.00    -0.292 OA
ATOM      9  C   UNL     1      32.904 -33.071 -31.606  0.00  0.00    +0.029 C 
ATOM     10  C   UNL     1      31.473 -33.631 -31.811  0.00  0.00    -0.017 C 
ENDROOT
BRANCH   9  11
ATOM     11  C   UNL     1      33.945 -34.145 -31.251  0.00  0.00    -0.029 C 
ATOM     12  C   UNL     1      35.380 -33.606 -31.260  0.00  0.00    -0.037 C 
ATOM     13  C   UNL     1      36.403 -34.740 -31.088  0.00  0.00    -0.001 C 
ATOM     14  N   UNL     1      35.876 -35.902 -30.355  0.00  0.00    -0.298 N 
ATOM     15  C   UNL     1      34.953 -35.482 -29.300  0.00  0.00    -0.001 C 
ATOM     16  C   UNL     1      33.679 -34.884 -29.921  0.00  0.00    -0.037 C 
ATOM     17  H   UNL     1      35.337 -36.482 -30.999  0.00  0.00    +0.000 HD
BRANCH  14  18
ATOM     18  C   UNL     1      36.979 -36.733 -29.846  0.00  0.00    +0.024 C 
BRANCH  18  19
ATOM     19  C   UNL     1      36.672 -38.216 -29.865  0.00  0.00    -0.033 A 
ATOM     20  C   UNL     1      37.121 -39.050 -28.831  0.00  0.00    -0.057 A 
ATOM     21  C   UNL     1      36.868 -40.423 -28.868  0.00  0.00    -0.061 A 
ATOM     22  C   UNL     1      36.170 -40.978 -29.939  0.00  0.00    -0.062 A 
ATOM     23  C   UNL     1      35.725 -40.162 -30.977  0.00  0.00    -0.061 A 
ATOM     24  C   UNL     1      35.978 -38.790 -30.942  0.00  0.00    -0.057 A 
ENDBRANCH  18  19
ENDBRANCH  14  18
ENDBRANCH   9  11
BRANCH   1  26
ATOM     25  C   UNL     1      26.458 -32.530 -29.942  0.00  0.00    +0.079 C 
ATOM     26  O   UNL     1      27.186 -31.569 -30.692  0.00  0.00    -0.491 OA
ENDBRANCH   1  26
BRANCH   6  27
ATOM     27  O   UNL     1      28.615 -29.512 -29.180  0.00  0.00    -0.491 OA
ATOM     28  C   UNL     1      28.238 -29.714 -27.824  0.00  0.00    +0.079 C 
ENDBRANCH   6  27
TORSDOF 5
ENDMDL
MODEL 19
REMARK VINA RESULT:    -6.127      3.564      9.720
REMARK INTER + INTRA:          -8.595
REMARK INTER:                  -7.856
REMARK INTRA:                  -0.739
REMARK UNBOUND:                -0.677
REMARK  Name = cpd5.pdb
REMARK  7 active torsions:
REMARK  status: ('A' for Active; 'I' for Inactive)
REMARK    1  A    between atoms: C_1  and  O_2
REMARK    2  A    between atoms: O_2  and  C_3
REMARK    3  A    between atoms: C_8  and  O_9
REMARK    4  A    between atoms: O_9  and  C_10
REMARK    5  A    between atoms: C_13  and  C_14
REMARK    6  A    between atoms: N_17  and  C_18
REMARK    7  A    between atoms: C_18  and  C_19
REMARK                            x       y       z     vdW  Elec       q    Type
REMARK                         _______ _______ _______ _____ _____    ______ ____
ROOT
ATOM      1  C   UNL     1      46.047 -19.842 -40.949  0.00  0.00    +0.162 A 
ATOM      2  C   UNL     1      45.157 -19.075 -40.169  0.00  0.00    -0.012 A 
ATOM      3  C   UNL     1      44.026 -19.669 -39.640  0.00  0.00    -0.033 A 
ATOM      4  C   UNL     1      43.797 -21.013 -39.870  0.00  0.00    +0.025 A 
ATOM      5  C   UNL     1      44.641 -21.804 -40.629  0.00  0.00    -0.006 A 
ATOM      6  C   UNL     1      45.778 -21.212 -41.199  0.00  0.00    +0.162 A 
ATOM      7  C   UNL     1      42.548 -21.385 -39.219  0.00  0.00    +0.167 C 
ATOM      8  O   UNL     1      42.122 -22.527 -39.195  0.00  0.00    -0.292 OA
ATOM      9  C   UNL     1      41.875 -20.131 -38.681  0.00  0.00    +0.029 C 
ATOM     10  C   UNL     1      42.981 -19.048 -38.770  0.00  0.00    -0.017 C 
ENDROOT
BRANCH   9  11
ATOM     11  C   UNL     1      41.239 -20.254 -37.287  0.00  0.00    -0.029 C 
ATOM     12  C   UNL     1      42.202 -20.836 -36.245  0.00  0.00    -0.037 C 
ATOM     13  C   UNL     1      41.483 -21.122 -34.917  0.00  0.00    -0.001 C 
ATOM     14  N   UNL     1      40.310 -20.263 -34.687  0.00  0.00    -0.298 N 
ATOM     15  C   UNL     1      40.538 -18.914 -35.208  0.00  0.00    -0.001 C 
ATOM     16  C   UNL     1      40.619 -18.948 -36.743  0.00  0.00    -0.037 C 
ATOM     17  H   UNL     1      39.516 -20.643 -35.202  0.00  0.00    +0.000 HD
BRANCH  14  18
ATOM     18  C   UNL     1      39.941 -20.266 -33.262  0.00  0.00    +0.024 C 
BRANCH  18  19
ATOM     19  C   UNL     1      38.471 -19.995 -33.022  0.00  0.00    -0.033 A 
ATOM     20  C   UNL     1      37.530 -21.030 -33.122  0.00  0.00    -0.057 A 
ATOM     21  C   UNL     1      36.170 -20.771 -32.935  0.00  0.00    -0.061 A 
ATOM     22  C   UNL     1      35.735 -19.478 -32.653  0.00  0.00    -0.062 A 
ATOM     23  C   UNL     1      36.659 -18.439 -32.558  0.00  0.00    -0.061 A 
ATOM     24  C   UNL     1      38.018 -18.695 -32.745  0.00  0.00    -0.057 A 
ENDBRANCH  18  19
ENDBRANCH  14  18
ENDBRANCH   9  11
BRANCH   1  26
ATOM     25  C   UNL     1      47.197 -17.728 -40.988  0.00  0.00    +0.079 C 
ATOM     26  O   UNL     1      47.100 -19.084 -41.398  0.00  0.00    -0.491 OA
ENDBRANCH   1  26
BRANCH   6  27
ATOM     27  O   UNL     1      46.653 -21.915 -41.986  0.00  0.00    -0.491 OA
ATOM     28  C   UNL     1      47.705 -22.622 -41.340  0.00  0.00    +0.079 C 
ENDBRANCH   6  27
TORSDOF 5
ENDMDL
MODEL 20
REMARK VINA RESULT:    -6.053      5.690      9.739
REMARK INTER + INTRA:          -8.499
REMARK INTER:                  -7.792
REMARK INTRA:                  -0.707
REMARK UNBOUND:                -0.677
REMARK  Name = cpd5.pdb
REMARK  7 active torsions:
REMARK  status: ('A' for Active; 'I' for Inactive)
REMARK    1  A    between atoms: C_1  and  O_2
REMARK    2  A    between atoms: O_2  and  C_3
REMARK    3  A    between atoms: C_8  and  O_9
REMARK    4  A    between atoms: O_9  and  C_10
REMARK    5  A    between atoms: C_13  and  C_14
REMARK    6  A    between atoms: N_17  and  C_18
REMARK    7  A    between atoms: C_18  and  C_19
REMARK                            x       y       z     vdW  Elec       q    Type
REMARK                         _______ _______ _______ _____ _____    ______ ____
ROOT
ATOM      1  C   UNL     1      45.533 -21.315 -40.400  0.00  0.00    +0.162 A 
ATOM      2  C   UNL     1      44.544 -21.080 -39.424  0.00  0.00    -0.012 A 
ATOM      3  C   UNL     1      44.899 -20.518 -38.211  0.00  0.00    -0.033 A 
ATOM      4  C   UNL     1      46.219 -20.178 -37.985  0.00  0.00    +0.025 A 
ATOM      5  C   UNL     1      47.225 -20.390 -38.912  0.00  0.00    -0.006 A 
ATOM      6  C   UNL     1      46.888 -20.986 -40.136  0.00  0.00    +0.162 A 
ATOM      7  C   UNL     1      46.328 -19.620 -36.643  0.00  0.00    +0.167 C 
ATOM      8  O   UNL     1      47.365 -19.169 -36.189  0.00  0.00    -0.292 OA
ATOM      9  C   UNL     1      44.992 -19.779 -35.930  0.00  0.00    +0.029 C 
ATOM     10  C   UNL     1      44.008 -20.163 -37.064  0.00  0.00    -0.017 C 
ENDROOT
BRANCH   9  11
ATOM     11  C   UNL     1      44.531 -18.577 -35.090  0.00  0.00    -0.029 C 
ATOM     12  C   UNL     1      43.005 -18.442 -35.036  0.00  0.00    -0.037 C 
ATOM     13  C   UNL     1      42.584 -17.131 -34.352  0.00  0.00    -0.001 C 
ATOM     14  N   UNL     1      43.573 -16.629 -33.385  0.00  0.00    -0.298 N 
ATOM     15  C   UNL     1      44.226 -17.733 -32.681  0.00  0.00    -0.001 C 
ATOM     16  C   UNL     1      45.104 -18.535 -33.657  0.00  0.00    -0.037 C 
ATOM     17  H   UNL     1      44.307 -16.132 -33.891  0.00  0.00    +0.000 HD
BRANCH  14  18
ATOM     18  C   UNL     1      42.951 -15.661 -32.468  0.00  0.00    +0.024 C 
BRANCH  18  19
ATOM     19  C   UNL     1      43.800 -14.430 -32.227  0.00  0.00    -0.033 A 
ATOM     20  C   UNL     1      44.372 -14.194 -30.968  0.00  0.00    -0.057 A 
ATOM     21  C   UNL     1      45.125 -13.041 -30.737  0.00  0.00    -0.061 A 
ATOM     22  C   UNL     1      45.310 -12.109 -31.757  0.00  0.00    -0.062 A 
ATOM     23  C   UNL     1      44.741 -12.327 -33.010  0.00  0.00    -0.061 A 
ATOM     24  C   UNL     1      43.987 -13.478 -33.243  0.00  0.00    -0.057 A 
ENDBRANCH  18  19
ENDBRANCH  14  18
ENDBRANCH   9  11
BRANCH   1  26
ATOM     25  C   UNL     1      44.672 -21.058 -42.632  0.00  0.00    +0.079 C 
ATOM     26  O   UNL     1      45.000 -21.888 -41.528  0.00  0.00    -0.491 OA
ENDBRANCH   1  26
BRANCH   6  27
ATOM     27  O   UNL     1      47.824 -21.257 -41.101  0.00  0.00    -0.491 OA
ATOM     28  C   UNL     1      48.344 -22.579 -41.168  0.00  0.00    +0.079 C 
ENDBRANCH   6  27
TORSDOF 5
ENDMDL
