REMARK  Name = cpd135.pdb
REMARK  7 active torsions:
REMARK  status: ('A' for Active; 'I' for Inactive)
REMARK    1  A    between atoms: C_1  and  O_2
REMARK    2  A    between atoms: O_2  and  C_3
REMARK    3  A    between atoms: C_9  and  C_10
REMARK    4  A    between atoms: C_10  and  C_12
REMARK    5  A    between atoms: C_13  and  C_14
REMARK    6  A    between atoms: N_18  and  C_19
REMARK    7  A    between atoms: C_19  and  C_20
REMARK                            x       y       z     vdW  Elec       q    Type
REMARK                         _______ _______ _______ _____ _____    ______ ____
ROOT
ATOM      1  C   UNL A   1      -3.179   0.215  -0.061  0.00  0.00    -0.011 C 
ATOM      2  C   UNL A   1      -3.468  -1.031   0.346  0.00  0.00    -0.049 C 
ENDROOT
BRANCH   2   3
ATOM      3  C   UNL A   1      -4.814  -1.609   0.243  0.00  0.00    -0.009 A 
ATOM      4  C   UNL A   1      -4.962  -2.938  -0.148  0.00  0.00    -0.052 A 
ATOM      5  C   UNL A   1      -6.232  -3.498  -0.225  0.00  0.00    -0.045 A 
ATOM      6  C   UNL A   1      -7.342  -2.725   0.094  0.00  0.00    +0.005 A 
ATOM      7  N   UNL A   1      -7.197  -1.435   0.479  0.00  0.00    -0.348 N 
ATOM      8  C   UNL A   1      -5.961  -0.884   0.580  0.00  0.00    +0.012 A 
BRANCH   7   9
ATOM      9  C   UNL A   1      -8.402  -0.635   0.833  0.00  0.00    +0.049 C 
BRANCH   9  10
ATOM     10  C   UNL A   1      -8.456   0.690   0.112  0.00  0.00    -0.014 A 
ATOM     11  C   UNL A   1      -8.274   1.873   0.856  0.00  0.00    -0.056 A 
ATOM     12  C   UNL A   1      -8.289   3.121   0.232  0.00  0.00    -0.061 A 
ATOM     13  C   UNL A   1      -8.491   3.212  -1.141  0.00  0.00    -0.061 A 
ATOM     14  C   UNL A   1      -8.687   2.056  -1.892  0.00  0.00    -0.047 A 
ATOM     15  C   UNL A   1      -8.674   0.802  -1.272  0.00  0.00    +0.023 A 
ATOM     16 BR   UNL A   1      -8.969  -0.711  -2.379  0.00  0.00    -0.050 Br
ENDBRANCH   9  10
ENDBRANCH   7   9
ENDBRANCH   2   3
BRANCH   1  17
ATOM     17  C   UNL A   1      -1.848   0.876   0.107  0.00  0.00    +0.221 C 
ATOM     18  O   UNL A   1      -1.891   2.077   0.374  0.00  0.00    -0.284 OA
BRANCH  17  25
ATOM     19  C   UNL A   1       2.888   0.000   0.547  0.00  0.00    +0.163 A 
ATOM     20  C   UNL A   1       3.775  -1.011   0.151  0.00  0.00    -0.016 A 
ATOM     21  C   UNL A   1       3.336  -2.127  -0.572  0.00  0.00    -0.058 A 
ATOM     22  C   UNL A   1       1.989  -2.280  -0.924  0.00  0.00    -0.051 A 
ATOM     23  C   UNL A   1       1.077  -1.287  -0.529  0.00  0.00    +0.025 A 
ATOM     24  C   UNL A   1      -0.320  -1.076  -0.687  0.00  0.00    -0.005 A 
ATOM     25  C   UNL A   1      -0.625   0.119  -0.059  0.00  0.00    +0.176 A 
ATOM     26  O   UNL A   1       0.519   0.654   0.466  0.00  0.00    -0.448 OA
ATOM     27  C   UNL A   1       1.549  -0.194   0.186  0.00  0.00    +0.177 A 
BRANCH  19  29
ATOM     28  C   UNL A   1       4.589   1.492   1.252  0.00  0.00    +0.079 C 
ATOM     29  O   UNL A   1       3.217   1.118   1.260  0.00  0.00    -0.491 OA
ENDBRANCH  19  29
ENDBRANCH  17  25
ENDBRANCH   1  17
TORSDOF 6
