MODEL 1
REMARK VINA RESULT:   -10.099      0.000      0.000
REMARK INTER + INTRA:         -14.483
REMARK INTER:                 -13.642
REMARK INTRA:                  -0.841
REMARK UNBOUND:                -0.841
REMARK  Name = cpd135.pdb
REMARK  7 active torsions:
REMARK  status: ('A' for Active; 'I' for Inactive)
REMARK    1  A    between atoms: C_1  and  O_2
REMARK    2  A    between atoms: O_2  and  C_3
REMARK    3  A    between atoms: C_9  and  C_10
REMARK    4  A    between atoms: C_10  and  C_12
REMARK    5  A    between atoms: C_13  and  C_14
REMARK    6  A    between atoms: N_18  and  C_19
REMARK    7  A    between atoms: C_19  and  C_20
REMARK                            x       y       z     vdW  Elec       q    Type
REMARK                         _______ _______ _______ _____ _____    ______ ____
ROOT
ATOM      1  C   UNL A   1      41.852 -37.462 -31.025  0.00  0.00    -0.011 C 
ATOM      2  C   UNL A   1      41.339 -36.231 -30.869  0.00  0.00    -0.049 C 
ENDROOT
BRANCH   2   3
ATOM      3  C   UNL A   1      39.919 -35.929 -31.089  0.00  0.00    -0.009 A 
ATOM      4  C   UNL A   1      39.553 -34.683 -31.595  0.00  0.00    -0.052 A 
ATOM      5  C   UNL A   1      38.212 -34.399 -31.827  0.00  0.00    -0.045 A 
ATOM      6  C   UNL A   1      37.250 -35.365 -31.557  0.00  0.00    +0.005 A 
ATOM      7  N   UNL A   1      37.607 -36.577 -31.070  0.00  0.00    -0.348 N 
ATOM      8  C   UNL A   1      38.914 -36.874 -30.861  0.00  0.00    +0.012 A 
BRANCH   7   9
ATOM      9  C   UNL A   1      36.557 -37.600 -30.807  0.00  0.00    +0.049 C 
BRANCH   9  10
ATOM     10  C   UNL A   1      35.809 -37.350 -29.520  0.00  0.00    -0.014 A 
ATOM     11  C   UNL A   1      36.398 -37.755 -28.305  0.00  0.00    -0.056 A 
ATOM     12  C   UNL A   1      35.758 -37.523 -27.087  0.00  0.00    -0.061 A 
ATOM     13  C   UNL A   1      34.520 -36.890 -27.058  0.00  0.00    -0.061 A 
ATOM     14  C   UNL A   1      33.914 -36.495 -28.248  0.00  0.00    -0.047 A 
ATOM     15  C   UNL A   1      34.550 -36.726 -29.473  0.00  0.00    +0.023 A 
ATOM     16 BR   UNL A   1      33.635 -36.167 -31.039  0.00  0.00    -0.050 Br
ENDBRANCH   9  10
ENDBRANCH   7   9
ENDBRANCH   2   3
BRANCH   1  17
ATOM     17  C   UNL A   1      43.304 -37.797 -30.901  0.00  0.00    +0.221 C 
ATOM     18  O   UNL A   1      44.072 -37.010 -31.454  0.00  0.00    -0.284 OA
BRANCH  17  25
ATOM     19  C   UNL A   1      44.585 -40.382 -27.018  0.00  0.00    +0.163 A 
ATOM     20  C   UNL A   1      44.998 -41.698 -26.765  0.00  0.00    -0.016 A 
ATOM     21  C   UNL A   1      45.129 -42.635 -27.798  0.00  0.00    -0.058 A 
ATOM     22  C   UNL A   1      44.847 -42.294 -29.127  0.00  0.00    -0.051 A 
ATOM     23  C   UNL A   1      44.419 -40.985 -29.406  0.00  0.00    +0.025 A 
ATOM     24  C   UNL A   1      44.052 -40.270 -30.579  0.00  0.00    -0.005 A 
ATOM     25  C   UNL A   1      43.726 -38.984 -30.185  0.00  0.00    +0.176 A 
ATOM     26  O   UNL A   1      43.885 -38.875 -28.831  0.00  0.00    -0.448 OA
ATOM     27  C   UNL A   1      44.302 -40.083 -28.357  0.00  0.00    +0.177 A 
BRANCH  19  29
ATOM     28  C   UNL A   1      43.335 -39.570 -25.177  0.00  0.00    +0.079 C 
ATOM     29  O   UNL A   1      44.419 -39.402 -26.081  0.00  0.00    -0.491 OA
ENDBRANCH  19  29
ENDBRANCH  17  25
ENDBRANCH   1  17
TORSDOF 6
ENDMDL
MODEL 2
REMARK VINA RESULT:    -9.279      2.429      3.369
REMARK INTER + INTRA:         -13.375
REMARK INTER:                 -12.543
REMARK INTRA:                  -0.832
REMARK UNBOUND:                -0.841
REMARK  Name = cpd135.pdb
REMARK  7 active torsions:
REMARK  status: ('A' for Active; 'I' for Inactive)
REMARK    1  A    between atoms: C_1  and  O_2
REMARK    2  A    between atoms: O_2  and  C_3
REMARK    3  A    between atoms: C_9  and  C_10
REMARK    4  A    between atoms: C_10  and  C_12
REMARK    5  A    between atoms: C_13  and  C_14
REMARK    6  A    between atoms: N_18  and  C_19
REMARK    7  A    between atoms: C_19  and  C_20
REMARK                            x       y       z     vdW  Elec       q    Type
REMARK                         _______ _______ _______ _____ _____    ______ ____
ROOT
ATOM      1  C   UNL A   1      40.737 -36.938 -30.604  0.00  0.00    -0.011 C 
ATOM      2  C   UNL A   1      39.740 -36.224 -31.149  0.00  0.00    -0.049 C 
ENDROOT
BRANCH   2   3
ATOM      3  C   UNL A   1      38.346 -36.332 -30.699  0.00  0.00    -0.009 A 
ATOM      4  C   UNL A   1      38.063 -36.962 -29.489  0.00  0.00    -0.052 A 
ATOM      5  C   UNL A   1      36.748 -37.047 -29.045  0.00  0.00    -0.045 A 
ATOM      6  C   UNL A   1      35.729 -36.496 -29.814  0.00  0.00    +0.005 A 
ATOM      7  N   UNL A   1      36.006 -35.879 -30.987  0.00  0.00    -0.348 N 
ATOM      8  C   UNL A   1      37.288 -35.770 -31.419  0.00  0.00    +0.012 A 
BRANCH   7   9
ATOM      9  C   UNL A   1      34.897 -35.282 -31.781  0.00  0.00    +0.049 C 
BRANCH   9  10
ATOM     10  C   UNL A   1      34.154 -34.205 -31.028  0.00  0.00    -0.014 A 
ATOM     11  C   UNL A   1      34.783 -32.960 -30.830  0.00  0.00    -0.056 A 
ATOM     12  C   UNL A   1      34.128 -31.924 -30.163  0.00  0.00    -0.061 A 
ATOM     13  C   UNL A   1      32.838 -32.113 -29.679  0.00  0.00    -0.061 A 
ATOM     14  C   UNL A   1      32.204 -33.340 -29.852  0.00  0.00    -0.047 A 
ATOM     15  C   UNL A   1      32.856 -34.383 -30.518  0.00  0.00    +0.023 A 
ATOM     16 BR   UNL A   1      31.914 -36.022 -30.687  0.00  0.00    -0.050 Br
ENDBRANCH   9  10
ENDBRANCH   7   9
ENDBRANCH   2   3
BRANCH   1  17
ATOM     17  C   UNL A   1      42.152 -36.929 -31.089  0.00  0.00    +0.221 C 
ATOM     18  O   UNL A   1      42.433 -36.015 -31.864  0.00  0.00    -0.284 OA
BRANCH  17  25
ATOM     19  C   UNL A   1      46.304 -38.642 -29.297  0.00  0.00    +0.163 A 
ATOM     20  C   UNL A   1      46.858 -39.905 -29.047  0.00  0.00    -0.016 A 
ATOM     21  C   UNL A   1      46.158 -41.082 -29.340  0.00  0.00    -0.058 A 
ATOM     22  C   UNL A   1      44.871 -41.042 -29.890  0.00  0.00    -0.051 A 
ATOM     23  C   UNL A   1      44.287 -39.789 -30.139  0.00  0.00    +0.025 A 
ATOM     24  C   UNL A   1      43.050 -39.337 -30.674  0.00  0.00    -0.005 A 
ATOM     25  C   UNL A   1      43.082 -37.953 -30.662  0.00  0.00    +0.176 A 
ATOM     26  O   UNL A   1      44.283 -37.537 -30.156  0.00  0.00    -0.448 OA
ATOM     27  C   UNL A   1      45.013 -38.643 -29.837  0.00  0.00    +0.177 A 
BRANCH  19  29
ATOM     28  C   UNL A   1      48.079 -37.147 -29.782  0.00  0.00    +0.079 C 
ATOM     29  O   UNL A   1      46.903 -37.441 -29.038  0.00  0.00    -0.491 OA
ENDBRANCH  19  29
ENDBRANCH  17  25
ENDBRANCH   1  17
TORSDOF 6
ENDMDL
MODEL 3
REMARK VINA RESULT:    -8.881      2.407      3.061
REMARK INTER + INTRA:         -12.838
REMARK INTER:                 -12.231
REMARK INTRA:                  -0.606
REMARK UNBOUND:                -0.841
REMARK  Name = cpd135.pdb
REMARK  7 active torsions:
REMARK  status: ('A' for Active; 'I' for Inactive)
REMARK    1  A    between atoms: C_1  and  O_2
REMARK    2  A    between atoms: O_2  and  C_3
REMARK    3  A    between atoms: C_9  and  C_10
REMARK    4  A    between atoms: C_10  and  C_12
REMARK    5  A    between atoms: C_13  and  C_14
REMARK    6  A    between atoms: N_18  and  C_19
REMARK    7  A    between atoms: C_19  and  C_20
REMARK                            x       y       z     vdW  Elec       q    Type
REMARK                         _______ _______ _______ _____ _____    ______ ____
ROOT
ATOM      1  C   UNL A   1      41.171 -36.258 -30.993  0.00  0.00    -0.011 C 
ATOM      2  C   UNL A   1      40.379 -37.146 -30.371  0.00  0.00    -0.049 C 
ENDROOT
BRANCH   2   3
ATOM      3  C   UNL A   1      38.957 -36.895 -30.107  0.00  0.00    -0.009 A 
ATOM      4  C   UNL A   1      38.253 -36.012 -30.924  0.00  0.00    -0.052 A 
ATOM      5  C   UNL A   1      36.900 -35.788 -30.693  0.00  0.00    -0.045 A 
ATOM      6  C   UNL A   1      36.263 -36.452 -29.652  0.00  0.00    +0.005 A 
ATOM      7  N   UNL A   1      36.947 -37.314 -28.862  0.00  0.00    -0.348 N 
ATOM      8  C   UNL A   1      38.262 -37.558 -29.091  0.00  0.00    +0.012 A 
BRANCH   7   9
ATOM      9  C   UNL A   1      36.236 -38.026 -27.765  0.00  0.00    +0.049 C 
BRANCH   9  10
ATOM     10  C   UNL A   1      35.169 -38.965 -28.274  0.00  0.00    -0.014 A 
ATOM     11  C   UNL A   1      33.841 -38.500 -28.357  0.00  0.00    -0.056 A 
ATOM     12  C   UNL A   1      32.824 -39.320 -28.845  0.00  0.00    -0.061 A 
ATOM     13  C   UNL A   1      33.110 -40.619 -29.252  0.00  0.00    -0.061 A 
ATOM     14  C   UNL A   1      34.412 -41.103 -29.164  0.00  0.00    -0.047 A 
ATOM     15  C   UNL A   1      35.437 -40.286 -28.675  0.00  0.00    +0.023 A 
ATOM     16 BR   UNL A   1      37.174 -41.044 -28.577  0.00  0.00    -0.050 Br
ENDBRANCH   9  10
ENDBRANCH   7   9
ENDBRANCH   2   3
BRANCH   1  17
ATOM     17  C   UNL A   1      42.642 -36.431 -31.202  0.00  0.00    +0.221 C 
ATOM     18  O   UNL A   1      43.203 -35.493 -31.767  0.00  0.00    -0.284 OA
BRANCH  17  25
ATOM     19  C   UNL A   1      46.149 -39.026 -29.114  0.00  0.00    +0.163 A 
ATOM     20  C   UNL A   1      46.428 -40.386 -28.921  0.00  0.00    -0.016 A 
ATOM     21  C   UNL A   1      45.570 -41.384 -29.400  0.00  0.00    -0.058 A 
ATOM     22  C   UNL A   1      44.393 -41.061 -30.087  0.00  0.00    -0.051 A 
ATOM     23  C   UNL A   1      44.084 -39.705 -30.284  0.00  0.00    +0.025 A 
ATOM     24  C   UNL A   1      43.028 -38.989 -30.912  0.00  0.00    -0.005 A 
ATOM     25  C   UNL A   1      43.308 -37.641 -30.769  0.00  0.00    +0.176 A 
ATOM     26  O   UNL A   1      44.489 -37.498 -30.093  0.00  0.00    -0.448 OA
ATOM     27  C   UNL A   1      44.959 -38.743 -29.796  0.00  0.00    +0.177 A 
BRANCH  19  29
ATOM     28  C   UNL A   1      47.966 -37.566 -29.543  0.00  0.00    +0.079 C 
ATOM     29  O   UNL A   1      46.916 -37.982 -28.679  0.00  0.00    -0.491 OA
ENDBRANCH  19  29
ENDBRANCH  17  25
ENDBRANCH   1  17
TORSDOF 6
ENDMDL
MODEL 4
REMARK VINA RESULT:    -8.487      2.937      6.456
REMARK INTER + INTRA:         -12.305
REMARK INTER:                 -11.392
REMARK INTRA:                  -0.913
REMARK UNBOUND:                -0.841
REMARK  Name = cpd135.pdb
REMARK  7 active torsions:
REMARK  status: ('A' for Active; 'I' for Inactive)
REMARK    1  A    between atoms: C_1  and  O_2
REMARK    2  A    between atoms: O_2  and  C_3
REMARK    3  A    between atoms: C_9  and  C_10
REMARK    4  A    between atoms: C_10  and  C_12
REMARK    5  A    between atoms: C_13  and  C_14
REMARK    6  A    between atoms: N_18  and  C_19
REMARK    7  A    between atoms: C_19  and  C_20
REMARK                            x       y       z     vdW  Elec       q    Type
REMARK                         _______ _______ _______ _____ _____    ______ ____
ROOT
ATOM      1  C   UNL A   1      36.129 -37.241 -28.258  0.00  0.00    -0.011 C 
ATOM      2  C   UNL A   1      35.204 -37.574 -27.344  0.00  0.00    -0.049 C 
ENDROOT
BRANCH   2   3
ATOM      3  C   UNL A   1      34.042 -36.728 -27.045  0.00  0.00    -0.009 A 
ATOM      4  C   UNL A   1      33.349 -36.910 -25.850  0.00  0.00    -0.052 A 
ATOM      5  C   UNL A   1      32.263 -36.097 -25.550  0.00  0.00    -0.045 A 
ATOM      6  C   UNL A   1      31.881 -35.106 -26.447  0.00  0.00    +0.005 A 
ATOM      7  N   UNL A   1      32.557 -34.926 -27.606  0.00  0.00    -0.348 N 
ATOM      8  C   UNL A   1      33.634 -35.698 -27.899  0.00  0.00    +0.012 A 
BRANCH   7   9
ATOM      9  C   UNL A   1      32.138 -33.844 -28.540  0.00  0.00    +0.049 C 
BRANCH   9  10
ATOM     10  C   UNL A   1      32.308 -34.226 -29.990  0.00  0.00    -0.014 A 
ATOM     11  C   UNL A   1      31.343 -35.061 -30.588  0.00  0.00    -0.056 A 
ATOM     12  C   UNL A   1      31.441 -35.422 -31.932  0.00  0.00    -0.061 A 
ATOM     13  C   UNL A   1      32.505 -34.962 -32.702  0.00  0.00    -0.061 A 
ATOM     14  C   UNL A   1      33.477 -34.148 -32.126  0.00  0.00    -0.047 A 
ATOM     15  C   UNL A   1      33.384 -33.784 -30.779  0.00  0.00    +0.023 A 
ATOM     16 BR   UNL A   1      34.769 -32.687 -30.084  0.00  0.00    -0.050 Br
ENDBRANCH   9  10
ENDBRANCH   7   9
ENDBRANCH   2   3
BRANCH   1  17
ATOM     17  C   UNL A   1      37.374 -38.025 -28.531  0.00  0.00    +0.221 C 
ATOM     18  O   UNL A   1      37.496 -39.058 -27.872  0.00  0.00    -0.284 OA
BRANCH  17  25
ATOM     19  C   UNL A   1      41.752 -37.615 -30.542  0.00  0.00    +0.163 A 
ATOM     20  C   UNL A   1      42.312 -36.922 -31.626  0.00  0.00    -0.016 A 
ATOM     21  C   UNL A   1      41.536 -36.085 -32.437  0.00  0.00    -0.058 A 
ATOM     22  C   UNL A   1      40.167 -35.910 -32.201  0.00  0.00    -0.051 A 
ATOM     23  C   UNL A   1      39.579 -36.601 -31.128  0.00  0.00    +0.025 A 
ATOM     24  C   UNL A   1      38.273 -36.686 -30.574  0.00  0.00    -0.005 A 
ATOM     25  C   UNL A   1      38.343 -37.553 -29.497  0.00  0.00    +0.176 A 
ATOM     26  O   UNL A   1      39.630 -37.993 -29.360  0.00  0.00    -0.448 OA
ATOM     27  C   UNL A   1      40.380 -37.422 -30.345  0.00  0.00    +0.177 A 
BRANCH  19  29
ATOM     28  C   UNL A   1      43.281 -39.411 -30.315  0.00  0.00    +0.079 C 
ATOM     29  O   UNL A   1      42.421 -38.459 -29.702  0.00  0.00    -0.491 OA
ENDBRANCH  19  29
ENDBRANCH  17  25
ENDBRANCH   1  17
TORSDOF 6
ENDMDL
MODEL 5
REMARK VINA RESULT:    -8.170     16.141     20.506
REMARK INTER + INTRA:         -11.877
REMARK INTER:                 -10.901
REMARK INTRA:                  -0.976
REMARK UNBOUND:                -0.841
REMARK  Name = cpd135.pdb
REMARK  7 active torsions:
REMARK  status: ('A' for Active; 'I' for Inactive)
REMARK    1  A    between atoms: C_1  and  O_2
REMARK    2  A    between atoms: O_2  and  C_3
REMARK    3  A    between atoms: C_9  and  C_10
REMARK    4  A    between atoms: C_10  and  C_12
REMARK    5  A    between atoms: C_13  and  C_14
REMARK    6  A    between atoms: N_18  and  C_19
REMARK    7  A    between atoms: C_19  and  C_20
REMARK                            x       y       z     vdW  Elec       q    Type
REMARK                         _______ _______ _______ _____ _____    ______ ____
ROOT
ATOM      1  C   UNL A   1      42.352 -21.242 -37.861  0.00  0.00    -0.011 C 
ATOM      2  C   UNL A   1      43.218 -20.885 -36.900  0.00  0.00    -0.049 C 
ENDROOT
BRANCH   2   3
ATOM      3  C   UNL A   1      44.452 -20.139 -37.178  0.00  0.00    -0.009 A 
ATOM      4  C   UNL A   1      45.104 -19.478 -36.139  0.00  0.00    -0.052 A 
ATOM      5  C   UNL A   1      46.285 -18.790 -36.391  0.00  0.00    -0.045 A 
ATOM      6  C   UNL A   1      46.805 -18.772 -37.679  0.00  0.00    +0.005 A 
ATOM      7  N   UNL A   1      46.174 -19.418 -38.688  0.00  0.00    -0.348 N 
ATOM      8  C   UNL A   1      45.033 -20.112 -38.449  0.00  0.00    +0.012 A 
BRANCH   7   9
ATOM      9  C   UNL A   1      46.763 -19.398 -40.055  0.00  0.00    +0.049 C 
BRANCH   9  10
ATOM     10  C   UNL A   1      46.903 -20.777 -40.651  0.00  0.00    -0.014 A 
ATOM     11  C   UNL A   1      47.831 -21.671 -40.079  0.00  0.00    -0.056 A 
ATOM     12  C   UNL A   1      47.979 -22.966 -40.577  0.00  0.00    -0.061 A 
ATOM     13  C   UNL A   1      47.211 -23.390 -41.656  0.00  0.00    -0.061 A 
ATOM     14  C   UNL A   1      46.299 -22.518 -42.245  0.00  0.00    -0.047 A 
ATOM     15  C   UNL A   1      46.147 -21.218 -41.751  0.00  0.00    +0.023 A 
ATOM     16 BR   UNL A   1      44.892 -20.101 -42.634  0.00  0.00    -0.050 Br
ENDBRANCH   9  10
ENDBRANCH   7   9
ENDBRANCH   2   3
BRANCH   1  17
ATOM     17  C   UNL A   1      41.133 -22.078 -37.637  0.00  0.00    +0.221 C 
ATOM     18  O   UNL A   1      41.034 -23.065 -38.367  0.00  0.00    -0.284 OA
BRANCH  17  25
ATOM     19  C   UNL A   1      38.199 -22.792 -33.859  0.00  0.00    +0.163 A 
ATOM     20  C   UNL A   1      37.280 -22.026 -33.128  0.00  0.00    -0.016 A 
ATOM     21  C   UNL A   1      37.026 -20.687 -33.448  0.00  0.00    -0.058 A 
ATOM     22  C   UNL A   1      37.685 -20.057 -34.511  0.00  0.00    -0.051 A 
ATOM     23  C   UNL A   1      38.620 -20.799 -35.253  0.00  0.00    +0.025 A 
ATOM     24  C   UNL A   1      39.463 -20.537 -36.367  0.00  0.00    -0.005 A 
ATOM     25  C   UNL A   1      40.158 -21.704 -36.634  0.00  0.00    +0.176 A 
ATOM     26  O   UNL A   1      39.773 -22.669 -35.744  0.00  0.00    -0.448 OA
ATOM     27  C   UNL A   1      38.845 -22.124 -34.907  0.00  0.00    +0.177 A 
BRANCH  19  29
ATOM     28  C   UNL A   1      37.433 -25.005 -33.493  0.00  0.00    +0.079 C 
ATOM     29  O   UNL A   1      38.521 -24.098 -33.619  0.00  0.00    -0.491 OA
ENDBRANCH  19  29
ENDBRANCH  17  25
ENDBRANCH   1  17
TORSDOF 6
ENDMDL
MODEL 6
REMARK VINA RESULT:    -8.156     16.152     20.333
REMARK INTER + INTRA:         -11.858
REMARK INTER:                 -10.914
REMARK INTRA:                  -0.944
REMARK UNBOUND:                -0.841
REMARK  Name = cpd135.pdb
REMARK  7 active torsions:
REMARK  status: ('A' for Active; 'I' for Inactive)
REMARK    1  A    between atoms: C_1  and  O_2
REMARK    2  A    between atoms: O_2  and  C_3
REMARK    3  A    between atoms: C_9  and  C_10
REMARK    4  A    between atoms: C_10  and  C_12
REMARK    5  A    between atoms: C_13  and  C_14
REMARK    6  A    between atoms: N_18  and  C_19
REMARK    7  A    between atoms: C_19  and  C_20
REMARK                            x       y       z     vdW  Elec       q    Type
REMARK                         _______ _______ _______ _____ _____    ______ ____
ROOT
ATOM      1  C   UNL A   1      42.690 -20.555 -36.297  0.00  0.00    -0.011 C 
ATOM      2  C   UNL A   1      41.976 -21.347 -37.113  0.00  0.00    -0.049 C 
ENDROOT
BRANCH   2   3
ATOM      3  C   UNL A   1      42.220 -21.425 -38.559  0.00  0.00    -0.009 A 
ATOM      4  C   UNL A   1      41.241 -21.965 -39.391  0.00  0.00    -0.052 A 
ATOM      5  C   UNL A   1      41.456 -22.020 -40.763  0.00  0.00    -0.045 A 
ATOM      6  C   UNL A   1      42.645 -21.532 -41.291  0.00  0.00    +0.005 A 
ATOM      7  N   UNL A   1      43.593 -21.003 -40.482  0.00  0.00    -0.348 N 
ATOM      8  C   UNL A   1      43.386 -20.922 -39.143  0.00  0.00    +0.012 A 
BRANCH   7   9
ATOM      9  C   UNL A   1      44.851 -20.469 -41.075  0.00  0.00    +0.049 C 
BRANCH   9  10
ATOM     10  C   UNL A   1      45.950 -21.501 -41.138  0.00  0.00    -0.014 A 
ATOM     11  C   UNL A   1      46.018 -22.350 -42.261  0.00  0.00    -0.056 A 
ATOM     12  C   UNL A   1      47.031 -23.302 -42.379  0.00  0.00    -0.061 A 
ATOM     13  C   UNL A   1      47.989 -23.429 -41.379  0.00  0.00    -0.061 A 
ATOM     14  C   UNL A   1      47.932 -22.609 -40.255  0.00  0.00    -0.047 A 
ATOM     15  C   UNL A   1      46.918 -21.653 -40.130  0.00  0.00    +0.023 A 
ATOM     16 BR   UNL A   1      46.916 -20.598 -38.553  0.00  0.00    -0.050 Br
ENDBRANCH   9  10
ENDBRANCH   7   9
ENDBRANCH   2   3
BRANCH   1  17
ATOM     17  C   UNL A   1      42.419 -20.375 -34.837  0.00  0.00    +0.221 C 
ATOM     18  O   UNL A   1      43.418 -20.361 -34.118  0.00  0.00    -0.284 OA
BRANCH  17  25
ATOM     19  C   UNL A   1      38.222 -21.948 -33.020  0.00  0.00    +0.163 A 
ATOM     20  C   UNL A   1      36.986 -21.381 -32.681  0.00  0.00    -0.016 A 
ATOM     21  C   UNL A   1      36.736 -20.014 -32.856  0.00  0.00    -0.058 A 
ATOM     22  C   UNL A   1      37.716 -19.157 -33.374  0.00  0.00    -0.051 A 
ATOM     23  C   UNL A   1      38.968 -19.699 -33.710  0.00  0.00    +0.025 A 
ATOM     24  C   UNL A   1      40.180 -19.186 -34.248  0.00  0.00    -0.005 A 
ATOM     25  C   UNL A   1      41.061 -20.248 -34.352  0.00  0.00    +0.176 A 
ATOM     26  O   UNL A   1      40.443 -21.387 -33.914  0.00  0.00    -0.448 OA
ATOM     27  C   UNL A   1      39.179 -21.058 -33.524  0.00  0.00    +0.177 A 
BRANCH  19  29
ATOM     28  C   UNL A   1      38.012 -24.166 -33.828  0.00  0.00    +0.079 C 
ATOM     29  O   UNL A   1      38.564 -23.263 -32.878  0.00  0.00    -0.491 OA
ENDBRANCH  19  29
ENDBRANCH  17  25
ENDBRANCH   1  17
TORSDOF 6
ENDMDL
MODEL 7
REMARK VINA RESULT:    -8.013      3.792      6.603
REMARK INTER + INTRA:         -11.665
REMARK INTER:                 -10.733
REMARK INTRA:                  -0.932
REMARK UNBOUND:                -0.841
REMARK  Name = cpd135.pdb
REMARK  7 active torsions:
REMARK  status: ('A' for Active; 'I' for Inactive)
REMARK    1  A    between atoms: C_1  and  O_2
REMARK    2  A    between atoms: O_2  and  C_3
REMARK    3  A    between atoms: C_9  and  C_10
REMARK    4  A    between atoms: C_10  and  C_12
REMARK    5  A    between atoms: C_13  and  C_14
REMARK    6  A    between atoms: N_18  and  C_19
REMARK    7  A    between atoms: C_19  and  C_20
REMARK                            x       y       z     vdW  Elec       q    Type
REMARK                         _______ _______ _______ _____ _____    ______ ____
ROOT
ATOM      1  C   UNL A   1      35.787 -37.215 -29.048  0.00  0.00    -0.011 C 
ATOM      2  C   UNL A   1      35.300 -37.902 -30.093  0.00  0.00    -0.049 C 
ENDROOT
BRANCH   2   3
ATOM      3  C   UNL A   1      33.986 -37.621 -30.686  0.00  0.00    -0.009 A 
ATOM      4  C   UNL A   1      32.956 -38.548 -30.542  0.00  0.00    -0.052 A 
ATOM      5  C   UNL A   1      31.703 -38.278 -31.081  0.00  0.00    -0.045 A 
ATOM      6  C   UNL A   1      31.491 -37.082 -31.755  0.00  0.00    +0.005 A 
ATOM      7  N   UNL A   1      32.491 -36.179 -31.889  0.00  0.00    -0.348 N 
ATOM      8  C   UNL A   1      33.711 -36.421 -31.348  0.00  0.00    +0.012 A 
BRANCH   7   9
ATOM      9  C   UNL A   1      32.231 -34.896 -32.600  0.00  0.00    +0.049 C 
BRANCH   9  10
ATOM     10  C   UNL A   1      32.685 -33.690 -31.814  0.00  0.00    -0.014 A 
ATOM     11  C   UNL A   1      33.939 -33.121 -32.113  0.00  0.00    -0.056 A 
ATOM     12  C   UNL A   1      34.393 -31.991 -31.433  0.00  0.00    -0.061 A 
ATOM     13  C   UNL A   1      33.609 -31.411 -30.441  0.00  0.00    -0.061 A 
ATOM     14  C   UNL A   1      32.373 -31.966 -30.121  0.00  0.00    -0.047 A 
ATOM     15  C   UNL A   1      31.913 -33.101 -30.798  0.00  0.00    +0.023 A 
ATOM     16 BR   UNL A   1      30.224 -33.792 -30.276  0.00  0.00    -0.050 Br
ENDBRANCH   9  10
ENDBRANCH   7   9
ENDBRANCH   2   3
BRANCH   1  17
ATOM     17  C   UNL A   1      37.076 -37.524 -28.355  0.00  0.00    +0.221 C 
ATOM     18  O   UNL A   1      36.973 -37.811 -27.162  0.00  0.00    -0.284 OA
BRANCH  17  25
ATOM     19  C   UNL A   1      40.067 -36.112 -31.884  0.00  0.00    +0.163 A 
ATOM     20  C   UNL A   1      41.399 -36.359 -32.246  0.00  0.00    -0.016 A 
ATOM     21  C   UNL A   1      42.213 -37.218 -31.497  0.00  0.00    -0.058 A 
ATOM     22  C   UNL A   1      41.729 -37.862 -30.351  0.00  0.00    -0.051 A 
ATOM     23  C   UNL A   1      40.401 -37.623 -29.960  0.00  0.00    +0.025 A 
ATOM     24  C   UNL A   1      39.562 -38.069 -28.903  0.00  0.00    -0.005 A 
ATOM     25  C   UNL A   1      38.331 -37.460 -29.074  0.00  0.00    +0.176 A 
ATOM     26  O   UNL A   1      38.373 -36.671 -30.191  0.00  0.00    -0.448 OA
ATOM     27  C   UNL A   1      39.623 -36.765 -30.727  0.00  0.00    +0.177 A 
BRANCH  19  29
ATOM     28  C   UNL A   1      39.152 -33.936 -32.097  0.00  0.00    +0.079 C 
ATOM     29  O   UNL A   1      39.200 -35.286 -32.541  0.00  0.00    -0.491 OA
ENDBRANCH  19  29
ENDBRANCH  17  25
ENDBRANCH   1  17
TORSDOF 6
ENDMDL
MODEL 8
REMARK VINA RESULT:    -7.832     30.749     33.502
REMARK INTER + INTRA:         -11.420
REMARK INTER:                 -10.740
REMARK INTRA:                  -0.681
REMARK UNBOUND:                -0.841
REMARK  Name = cpd135.pdb
REMARK  7 active torsions:
REMARK  status: ('A' for Active; 'I' for Inactive)
REMARK    1  A    between atoms: C_1  and  O_2
REMARK    2  A    between atoms: O_2  and  C_3
REMARK    3  A    between atoms: C_9  and  C_10
REMARK    4  A    between atoms: C_10  and  C_12
REMARK    5  A    between atoms: C_13  and  C_14
REMARK    6  A    between atoms: N_18  and  C_19
REMARK    7  A    between atoms: C_19  and  C_20
REMARK                            x       y       z     vdW  Elec       q    Type
REMARK                         _______ _______ _______ _____ _____    ______ ____
ROOT
ATOM      1  C   UNL A   1      62.329 -21.360  -9.959  0.00  0.00    -0.011 C 
ATOM      2  C   UNL A   1      62.684 -20.100 -10.256  0.00  0.00    -0.049 C 
ENDROOT
BRANCH   2   3
ATOM      3  C   UNL A   1      61.719 -19.087 -10.703  0.00  0.00    -0.009 A 
ATOM      4  C   UNL A   1      62.169 -17.983 -11.424  0.00  0.00    -0.052 A 
ATOM      5  C   UNL A   1      61.259 -17.032 -11.871  0.00  0.00    -0.045 A 
ATOM      6  C   UNL A   1      59.906 -17.196 -11.596  0.00  0.00    +0.005 A 
ATOM      7  N   UNL A   1      59.469 -18.273 -10.900  0.00  0.00    -0.348 N 
ATOM      8  C   UNL A   1      60.346 -19.219 -10.479  0.00  0.00    +0.012 A 
BRANCH   7   9
ATOM      9  C   UNL A   1      58.013 -18.434 -10.636  0.00  0.00    +0.049 C 
BRANCH   9  10
ATOM     10  C   UNL A   1      57.262 -18.989 -11.821  0.00  0.00    -0.014 A 
ATOM     11  C   UNL A   1      57.878 -19.984 -12.607  0.00  0.00    -0.056 A 
ATOM     12  C   UNL A   1      57.216 -20.548 -13.697  0.00  0.00    -0.061 A 
ATOM     13  C   UNL A   1      55.931 -20.128 -14.027  0.00  0.00    -0.061 A 
ATOM     14  C   UNL A   1      55.310 -19.136 -13.272  0.00  0.00    -0.047 A 
ATOM     15  C   UNL A   1      55.970 -18.566 -12.178  0.00  0.00    +0.023 A 
ATOM     16 BR   UNL A   1      55.046 -17.210 -11.225  0.00  0.00    -0.050 Br
ENDBRANCH   9  10
ENDBRANCH   7   9
ENDBRANCH   2   3
BRANCH   1  17
ATOM     17  C   UNL A   1      63.286 -22.447  -9.588  0.00  0.00    +0.221 C 
ATOM     18  O   UNL A   1      63.848 -22.995 -10.537  0.00  0.00    -0.284 OA
BRANCH  17  25
ATOM     19  C   UNL A   1      63.988 -25.458  -5.869  0.00  0.00    +0.163 A 
ATOM     20  C   UNL A   1      64.129 -25.339  -4.479  0.00  0.00    -0.016 A 
ATOM     21  C   UNL A   1      64.074 -24.094  -3.842  0.00  0.00    -0.058 A 
ATOM     22  C   UNL A   1      63.879 -22.914  -4.570  0.00  0.00    -0.051 A 
ATOM     23  C   UNL A   1      63.746 -23.003  -5.966  0.00  0.00    +0.025 A 
ATOM     24  C   UNL A   1      63.539 -22.076  -7.024  0.00  0.00    -0.005 A 
ATOM     25  C   UNL A   1      63.491 -22.805  -8.200  0.00  0.00    +0.176 A 
ATOM     26  O   UNL A   1      63.649 -24.132  -7.912  0.00  0.00    -0.448 OA
ATOM     27  C   UNL A   1      63.806 -24.256  -6.563  0.00  0.00    +0.177 A 
BRANCH  19  29
ATOM     28  C   UNL A   1      63.411 -27.754  -5.987  0.00  0.00    +0.079 C 
ATOM     29  O   UNL A   1      64.037 -26.623  -6.581  0.00  0.00    -0.491 OA
ENDBRANCH  19  29
ENDBRANCH  17  25
ENDBRANCH   1  17
TORSDOF 6
ENDMDL
MODEL 9
REMARK VINA RESULT:    -7.734     17.414     20.723
REMARK INTER + INTRA:         -11.288
REMARK INTER:                 -10.264
REMARK INTRA:                  -1.025
REMARK UNBOUND:                -0.841
REMARK  Name = cpd135.pdb
REMARK  7 active torsions:
REMARK  status: ('A' for Active; 'I' for Inactive)
REMARK    1  A    between atoms: C_1  and  O_2
REMARK    2  A    between atoms: O_2  and  C_3
REMARK    3  A    between atoms: C_9  and  C_10
REMARK    4  A    between atoms: C_10  and  C_12
REMARK    5  A    between atoms: C_13  and  C_14
REMARK    6  A    between atoms: N_18  and  C_19
REMARK    7  A    between atoms: C_19  and  C_20
REMARK                            x       y       z     vdW  Elec       q    Type
REMARK                         _______ _______ _______ _____ _____    ______ ____
ROOT
ATOM      1  C   UNL A   1      41.766 -21.502 -37.912  0.00  0.00    -0.011 C 
ATOM      2  C   UNL A   1      42.634 -21.273 -36.914  0.00  0.00    -0.049 C 
ENDROOT
BRANCH   2   3
ATOM      3  C   UNL A   1      43.903 -20.562 -37.112  0.00  0.00    -0.009 A 
ATOM      4  C   UNL A   1      44.615 -20.106 -36.004  0.00  0.00    -0.052 A 
ATOM      5  C   UNL A   1      45.829 -19.453 -36.183  0.00  0.00    -0.045 A 
ATOM      6  C   UNL A   1      46.322 -19.266 -37.469  0.00  0.00    +0.005 A 
ATOM      7  N   UNL A   1      45.633 -19.713 -38.545  0.00  0.00    -0.348 N 
ATOM      8  C   UNL A   1      44.458 -20.372 -38.381  0.00  0.00    +0.012 A 
BRANCH   7   9
ATOM      9  C   UNL A   1      46.194 -19.515 -39.910  0.00  0.00    +0.049 C 
BRANCH   9  10
ATOM     10  C   UNL A   1      46.451 -20.817 -40.630  0.00  0.00    -0.014 A 
ATOM     11  C   UNL A   1      47.404 -21.708 -40.098  0.00  0.00    -0.056 A 
ATOM     12  C   UNL A   1      47.659 -22.935 -40.712  0.00  0.00    -0.061 A 
ATOM     13  C   UNL A   1      46.973 -23.292 -41.868  0.00  0.00    -0.061 A 
ATOM     14  C   UNL A   1      46.038 -22.419 -42.418  0.00  0.00    -0.047 A 
ATOM     15  C   UNL A   1      45.779 -21.187 -41.808  0.00  0.00    +0.023 A 
ATOM     16 BR   UNL A   1      44.500 -20.062 -42.645  0.00  0.00    -0.050 Br
ENDBRANCH   9  10
ENDBRANCH   7   9
ENDBRANCH   2   3
BRANCH   1  17
ATOM     17  C   UNL A   1      40.507 -22.298 -37.776  0.00  0.00    +0.221 C 
ATOM     18  O   UNL A   1      40.237 -23.017 -38.739  0.00  0.00    -0.284 OA
BRANCH  17  25
ATOM     19  C   UNL A   1      37.974 -19.976 -34.373  0.00  0.00    +0.163 A 
ATOM     20  C   UNL A   1      37.261 -20.330 -33.219  0.00  0.00    -0.016 A 
ATOM     21  C   UNL A   1      37.162 -21.663 -32.801  0.00  0.00    -0.058 A 
ATOM     22  C   UNL A   1      37.768 -22.698 -33.524  0.00  0.00    -0.051 A 
ATOM     23  C   UNL A   1      38.479 -22.371 -34.691  0.00  0.00    +0.025 A 
ATOM     24  C   UNL A   1      39.214 -23.101 -35.665  0.00  0.00    -0.005 A 
ATOM     25  C   UNL A   1      39.690 -22.185 -36.587  0.00  0.00    +0.176 A 
ATOM     26  O   UNL A   1      39.291 -20.930 -36.218  0.00  0.00    -0.448 OA
ATOM     27  C   UNL A   1      38.557 -21.039 -35.074  0.00  0.00    +0.177 A 
BRANCH  19  29
ATOM     28  C   UNL A   1      36.931 -17.941 -34.994  0.00  0.00    +0.079 C 
ATOM     29  O   UNL A   1      38.120 -18.710 -34.866  0.00  0.00    -0.491 OA
ENDBRANCH  19  29
ENDBRANCH  17  25
ENDBRANCH   1  17
TORSDOF 6
ENDMDL
MODEL 10
REMARK VINA RESULT:    -7.678      7.434     10.883
REMARK INTER + INTRA:         -11.213
REMARK INTER:                 -10.487
REMARK INTRA:                  -0.726
REMARK UNBOUND:                -0.841
REMARK  Name = cpd135.pdb
REMARK  7 active torsions:
REMARK  status: ('A' for Active; 'I' for Inactive)
REMARK    1  A    between atoms: C_1  and  O_2
REMARK    2  A    between atoms: O_2  and  C_3
REMARK    3  A    between atoms: C_9  and  C_10
REMARK    4  A    between atoms: C_10  and  C_12
REMARK    5  A    between atoms: C_13  and  C_14
REMARK    6  A    between atoms: N_18  and  C_19
REMARK    7  A    between atoms: C_19  and  C_20
REMARK                            x       y       z     vdW  Elec       q    Type
REMARK                         _______ _______ _______ _____ _____    ______ ____
ROOT
ATOM      1  C   UNL A   1      34.383 -40.981 -32.844  0.00  0.00    -0.011 C 
ATOM      2  C   UNL A   1      34.590 -39.845 -32.159  0.00  0.00    -0.049 C 
ENDROOT
BRANCH   2   3
ATOM      3  C   UNL A   1      35.495 -39.766 -31.005  0.00  0.00    -0.009 A 
ATOM      4  C   UNL A   1      35.734 -40.906 -30.241  0.00  0.00    -0.052 A 
ATOM      5  C   UNL A   1      36.607 -40.843 -29.161  0.00  0.00    -0.045 A 
ATOM      6  C   UNL A   1      37.237 -39.642 -28.859  0.00  0.00    +0.005 A 
ATOM      7  N   UNL A   1      37.008 -38.536 -29.605  0.00  0.00    -0.348 N 
ATOM      8  C   UNL A   1      36.175 -38.590 -30.675  0.00  0.00    +0.012 A 
BRANCH   7   9
ATOM      9  C   UNL A   1      37.710 -37.266 -29.270  0.00  0.00    +0.049 C 
BRANCH   9  10
ATOM     10  C   UNL A   1      38.740 -36.878 -30.302  0.00  0.00    -0.014 A 
ATOM     11  C   UNL A   1      38.342 -36.067 -31.384  0.00  0.00    -0.056 A 
ATOM     12  C   UNL A   1      39.262 -35.659 -32.350  0.00  0.00    -0.061 A 
ATOM     13  C   UNL A   1      40.591 -36.057 -32.260  0.00  0.00    -0.061 A 
ATOM     14  C   UNL A   1      41.002 -36.870 -31.207  0.00  0.00    -0.047 A 
ATOM     15  C   UNL A   1      40.084 -37.283 -30.235  0.00  0.00    +0.023 A 
ATOM     16 BR   UNL A   1      40.739 -38.404 -28.851  0.00  0.00    -0.050 Br
ENDBRANCH   9  10
ENDBRANCH   7   9
ENDBRANCH   2   3
BRANCH   1  17
ATOM     17  C   UNL A   1      33.405 -41.131 -33.966  0.00  0.00    +0.221 C 
ATOM     18  O   UNL A   1      32.776 -40.112 -34.249  0.00  0.00    -0.284 OA
BRANCH  17  25
ATOM     19  C   UNL A   1      32.297 -44.081 -37.635  0.00  0.00    +0.163 A 
ATOM     20  C   UNL A   1      32.253 -45.466 -37.846  0.00  0.00    -0.016 A 
ATOM     21  C   UNL A   1      32.581 -46.372 -36.830  0.00  0.00    -0.058 A 
ATOM     22  C   UNL A   1      32.973 -45.928 -35.561  0.00  0.00    -0.051 A 
ATOM     23  C   UNL A   1      33.038 -44.544 -35.326  0.00  0.00    +0.025 A 
ATOM     24  C   UNL A   1      33.373 -43.721 -34.216  0.00  0.00    -0.005 A 
ATOM     25  C   UNL A   1      33.235 -42.407 -34.627  0.00  0.00    +0.176 A 
ATOM     26  O   UNL A   1      32.822 -42.387 -35.931  0.00  0.00    -0.448 OA
ATOM     27  C   UNL A   1      32.704 -43.676 -36.357  0.00  0.00    +0.177 A 
BRANCH  19  29
ATOM     28  C   UNL A   1      30.661 -43.073 -39.021  0.00  0.00    +0.079 C 
ATOM     29  O   UNL A   1      32.006 -43.120 -38.562  0.00  0.00    -0.491 OA
ENDBRANCH  19  29
ENDBRANCH  17  25
ENDBRANCH   1  17
TORSDOF 6
ENDMDL
MODEL 11
REMARK VINA RESULT:    -7.655      4.584      6.891
REMARK INTER + INTRA:         -11.181
REMARK INTER:                 -10.152
REMARK INTRA:                  -1.029
REMARK UNBOUND:                -0.841
REMARK  Name = cpd135.pdb
REMARK  7 active torsions:
REMARK  status: ('A' for Active; 'I' for Inactive)
REMARK    1  A    between atoms: C_1  and  O_2
REMARK    2  A    between atoms: O_2  and  C_3
REMARK    3  A    between atoms: C_9  and  C_10
REMARK    4  A    between atoms: C_10  and  C_12
REMARK    5  A    between atoms: C_13  and  C_14
REMARK    6  A    between atoms: N_18  and  C_19
REMARK    7  A    between atoms: C_19  and  C_20
REMARK                            x       y       z     vdW  Elec       q    Type
REMARK                         _______ _______ _______ _____ _____    ______ ____
ROOT
ATOM      1  C   UNL A   1      36.145 -38.893 -29.297  0.00  0.00    -0.011 C 
ATOM      2  C   UNL A   1      36.223 -39.552 -30.463  0.00  0.00    -0.049 C 
ENDROOT
BRANCH   2   3
ATOM      3  C   UNL A   1      35.142 -40.411 -30.965  0.00  0.00    -0.009 A 
ATOM      4  C   UNL A   1      35.133 -40.790 -32.305  0.00  0.00    -0.052 A 
ATOM      5  C   UNL A   1      34.126 -41.622 -32.781  0.00  0.00    -0.045 A 
ATOM      6  C   UNL A   1      33.139 -42.070 -31.910  0.00  0.00    +0.005 A 
ATOM      7  N   UNL A   1      33.152 -41.705 -30.607  0.00  0.00    -0.348 N 
ATOM      8  C   UNL A   1      34.142 -40.912 -30.126  0.00  0.00    +0.012 A 
BRANCH   7   9
ATOM      9  C   UNL A   1      32.093 -42.214 -29.692  0.00  0.00    +0.049 C 
BRANCH   9  10
ATOM     10  C   UNL A   1      32.645 -43.076 -28.582  0.00  0.00    -0.014 A 
ATOM     11  C   UNL A   1      33.098 -44.373 -28.894  0.00  0.00    -0.056 A 
ATOM     12  C   UNL A   1      33.641 -45.198 -27.909  0.00  0.00    -0.061 A 
ATOM     13  C   UNL A   1      33.736 -44.749 -26.596  0.00  0.00    -0.061 A 
ATOM     14  C   UNL A   1      33.280 -43.475 -26.264  0.00  0.00    -0.047 A 
ATOM     15  C   UNL A   1      32.734 -42.644 -27.247  0.00  0.00    +0.023 A 
ATOM     16 BR   UNL A   1      32.124 -40.935 -26.691  0.00  0.00    -0.050 Br
ENDBRANCH   9  10
ENDBRANCH   7   9
ENDBRANCH   2   3
BRANCH   1  17
ATOM     17  C   UNL A   1      37.253 -38.082 -28.704  0.00  0.00    +0.221 C 
ATOM     18  O   UNL A   1      37.231 -37.984 -27.477  0.00  0.00    -0.284 OA
BRANCH  17  25
ATOM     19  C   UNL A   1      41.692 -37.331 -30.473  0.00  0.00    +0.163 A 
ATOM     20  C   UNL A   1      42.277 -36.482 -31.422  0.00  0.00    -0.016 A 
ATOM     21  C   UNL A   1      41.516 -35.544 -32.131  0.00  0.00    -0.058 A 
ATOM     22  C   UNL A   1      40.136 -35.421 -31.922  0.00  0.00    -0.051 A 
ATOM     23  C   UNL A   1      39.523 -36.268 -30.984  0.00  0.00    +0.025 A 
ATOM     24  C   UNL A   1      38.200 -36.449 -30.497  0.00  0.00    -0.005 A 
ATOM     25  C   UNL A   1      38.247 -37.462 -29.556  0.00  0.00    +0.176 A 
ATOM     26  O   UNL A   1      39.537 -37.903 -29.436  0.00  0.00    -0.448 OA
ATOM     27  C   UNL A   1      40.310 -37.186 -30.300  0.00  0.00    +0.177 A 
BRANCH  19  29
ATOM     28  C   UNL A   1      43.166 -39.187 -30.467  0.00  0.00    +0.079 C 
ATOM     29  O   UNL A   1      42.346 -38.281 -29.740  0.00  0.00    -0.491 OA
ENDBRANCH  19  29
ENDBRANCH  17  25
ENDBRANCH   1  17
TORSDOF 6
ENDMDL
MODEL 12
REMARK VINA RESULT:    -7.645     16.984     20.643
REMARK INTER + INTRA:         -11.168
REMARK INTER:                 -10.462
REMARK INTRA:                  -0.706
REMARK UNBOUND:                -0.841
REMARK  Name = cpd135.pdb
REMARK  7 active torsions:
REMARK  status: ('A' for Active; 'I' for Inactive)
REMARK    1  A    between atoms: C_1  and  O_2
REMARK    2  A    between atoms: O_2  and  C_3
REMARK    3  A    between atoms: C_9  and  C_10
REMARK    4  A    between atoms: C_10  and  C_12
REMARK    5  A    between atoms: C_13  and  C_14
REMARK    6  A    between atoms: N_18  and  C_19
REMARK    7  A    between atoms: C_19  and  C_20
REMARK                            x       y       z     vdW  Elec       q    Type
REMARK                         _______ _______ _______ _____ _____    ______ ____
ROOT
ATOM      1  C   UNL A   1      43.381 -18.816 -34.653  0.00  0.00    -0.011 C 
ATOM      2  C   UNL A   1      44.683 -19.140 -34.694  0.00  0.00    -0.049 C 
ENDROOT
BRANCH   2   3
ATOM      3  C   UNL A   1      45.477 -19.085 -35.928  0.00  0.00    -0.009 A 
ATOM      4  C   UNL A   1      46.184 -17.926 -36.238  0.00  0.00    -0.052 A 
ATOM      5  C   UNL A   1      46.956 -17.876 -37.393  0.00  0.00    -0.045 A 
ATOM      6  C   UNL A   1      47.018 -18.987 -38.225  0.00  0.00    +0.005 A 
ATOM      7  N   UNL A   1      46.335 -20.116 -37.920  0.00  0.00    -0.348 N 
ATOM      8  C   UNL A   1      45.596 -20.185 -36.784  0.00  0.00    +0.012 A 
BRANCH   7   9
ATOM      9  C   UNL A   1      46.433 -21.298 -38.820  0.00  0.00    +0.049 C 
BRANCH   9  10
ATOM     10  C   UNL A   1      45.692 -21.106 -40.121  0.00  0.00    -0.014 A 
ATOM     11  C   UNL A   1      44.678 -20.130 -40.184  0.00  0.00    -0.056 A 
ATOM     12  C   UNL A   1      43.982 -19.896 -41.370  0.00  0.00    -0.061 A 
ATOM     13  C   UNL A   1      44.280 -20.634 -42.511  0.00  0.00    -0.061 A 
ATOM     14  C   UNL A   1      45.269 -21.613 -42.466  0.00  0.00    -0.047 A 
ATOM     15  C   UNL A   1      45.969 -21.853 -41.279  0.00  0.00    +0.023 A 
ATOM     16 BR   UNL A   1      47.284 -23.221 -41.314  0.00  0.00    -0.050 Br
ENDBRANCH   9  10
ENDBRANCH   7   9
ENDBRANCH   2   3
BRANCH   1  17
ATOM     17  C   UNL A   1      42.512 -18.943 -33.442  0.00  0.00    +0.221 C 
ATOM     18  O   UNL A   1      42.837 -18.235 -32.489  0.00  0.00    -0.284 OA
BRANCH  17  25
ATOM     19  C   UNL A   1      39.862 -22.679 -34.995  0.00  0.00    +0.163 A 
ATOM     20  C   UNL A   1      38.646 -23.279 -34.639  0.00  0.00    -0.016 A 
ATOM     21  C   UNL A   1      37.870 -22.788 -33.582  0.00  0.00    -0.058 A 
ATOM     22  C   UNL A   1      38.282 -21.679 -32.833  0.00  0.00    -0.051 A 
ATOM     23  C   UNL A   1      39.503 -21.066 -33.161  0.00  0.00    +0.025 A 
ATOM     24  C   UNL A   1      40.244 -19.957 -32.667  0.00  0.00    -0.005 A 
ATOM     25  C   UNL A   1      41.391 -19.859 -33.435  0.00  0.00    +0.176 A 
ATOM     26  O   UNL A   1      41.383 -20.847 -34.380  0.00  0.00    -0.448 OA
ATOM     27  C   UNL A   1      40.245 -21.580 -34.217  0.00  0.00    +0.177 A 
BRANCH  19  29
ATOM     28  C   UNL A   1      40.414 -22.575 -37.297  0.00  0.00    +0.079 C 
ATOM     29  O   UNL A   1      40.692 -23.088 -36.000  0.00  0.00    -0.491 OA
ENDBRANCH  19  29
ENDBRANCH  17  25
ENDBRANCH   1  17
TORSDOF 6
ENDMDL
MODEL 13
REMARK VINA RESULT:    -7.514     17.881     20.745
REMARK INTER + INTRA:         -10.991
REMARK INTER:                 -10.045
REMARK INTRA:                  -0.947
REMARK UNBOUND:                -0.841
REMARK  Name = cpd135.pdb
REMARK  7 active torsions:
REMARK  status: ('A' for Active; 'I' for Inactive)
REMARK    1  A    between atoms: C_1  and  O_2
REMARK    2  A    between atoms: O_2  and  C_3
REMARK    3  A    between atoms: C_9  and  C_10
REMARK    4  A    between atoms: C_10  and  C_12
REMARK    5  A    between atoms: C_13  and  C_14
REMARK    6  A    between atoms: N_18  and  C_19
REMARK    7  A    between atoms: C_19  and  C_20
REMARK                            x       y       z     vdW  Elec       q    Type
REMARK                         _______ _______ _______ _____ _____    ______ ____
ROOT
ATOM      1  C   UNL A   1      42.519 -20.556 -36.245  0.00  0.00    -0.011 C 
ATOM      2  C   UNL A   1      41.869 -21.405 -37.057  0.00  0.00    -0.049 C 
ENDROOT
BRANCH   2   3
ATOM      3  C   UNL A   1      42.124 -21.476 -38.501  0.00  0.00    -0.009 A 
ATOM      4  C   UNL A   1      41.165 -22.038 -39.340  0.00  0.00    -0.052 A 
ATOM      5  C   UNL A   1      41.390 -22.087 -40.711  0.00  0.00    -0.045 A 
ATOM      6  C   UNL A   1      42.570 -21.569 -41.231  0.00  0.00    +0.005 A 
ATOM      7  N   UNL A   1      43.499 -21.017 -40.415  0.00  0.00    -0.348 N 
ATOM      8  C   UNL A   1      43.281 -20.943 -39.078  0.00  0.00    +0.012 A 
BRANCH   7   9
ATOM      9  C   UNL A   1      44.747 -20.453 -41.000  0.00  0.00    +0.049 C 
BRANCH   9  10
ATOM     10  C   UNL A   1      45.871 -21.458 -41.059  0.00  0.00    -0.014 A 
ATOM     11  C   UNL A   1      45.926 -22.350 -42.148  0.00  0.00    -0.056 A 
ATOM     12  C   UNL A   1      46.960 -23.280 -42.262  0.00  0.00    -0.061 A 
ATOM     13  C   UNL A   1      47.953 -23.341 -41.290  0.00  0.00    -0.061 A 
ATOM     14  C   UNL A   1      47.910 -22.477 -40.198  0.00  0.00    -0.047 A 
ATOM     15  C   UNL A   1      46.875 -21.544 -40.078  0.00  0.00    +0.023 A 
ATOM     16 BR   UNL A   1      46.896 -20.425 -38.545  0.00  0.00    -0.050 Br
ENDBRANCH   9  10
ENDBRANCH   7   9
ENDBRANCH   2   3
BRANCH   1  17
ATOM     17  C   UNL A   1      42.230 -20.386 -34.787  0.00  0.00    +0.221 C 
ATOM     18  O   UNL A   1      43.203 -20.096 -34.092  0.00  0.00    -0.284 OA
BRANCH  17  25
ATOM     19  C   UNL A   1      37.694 -19.085 -33.726  0.00  0.00    +0.163 A 
ATOM     20  C   UNL A   1      36.581 -19.684 -33.120  0.00  0.00    -0.016 A 
ATOM     21  C   UNL A   1      36.630 -20.998 -32.638  0.00  0.00    -0.058 A 
ATOM     22  C   UNL A   1      37.795 -21.768 -32.747  0.00  0.00    -0.051 A 
ATOM     23  C   UNL A   1      38.921 -21.195 -33.361  0.00  0.00    +0.025 A 
ATOM     24  C   UNL A   1      40.244 -21.627 -33.650  0.00  0.00    -0.005 A 
ATOM     25  C   UNL A   1      40.888 -20.574 -34.277  0.00  0.00    +0.176 A 
ATOM     26  O   UNL A   1      40.026 -19.517 -34.377  0.00  0.00    -0.448 OA
ATOM     27  C   UNL A   1      38.836 -19.890 -33.826  0.00  0.00    +0.177 A 
BRANCH  19  29
ATOM     28  C   UNL A   1      38.145 -16.791 -33.336  0.00  0.00    +0.079 C 
ATOM     29  O   UNL A   1      37.742 -17.817 -34.234  0.00  0.00    -0.491 OA
ENDBRANCH  19  29
ENDBRANCH  17  25
ENDBRANCH   1  17
TORSDOF 6
ENDMDL
MODEL 14
REMARK VINA RESULT:    -7.493      3.082      6.405
REMARK INTER + INTRA:         -10.963
REMARK INTER:                  -9.985
REMARK INTRA:                  -0.977
REMARK UNBOUND:                -0.841
REMARK  Name = cpd135.pdb
REMARK  7 active torsions:
REMARK  status: ('A' for Active; 'I' for Inactive)
REMARK    1  A    between atoms: C_1  and  O_2
REMARK    2  A    between atoms: O_2  and  C_3
REMARK    3  A    between atoms: C_9  and  C_10
REMARK    4  A    between atoms: C_10  and  C_12
REMARK    5  A    between atoms: C_13  and  C_14
REMARK    6  A    between atoms: N_18  and  C_19
REMARK    7  A    between atoms: C_19  and  C_20
REMARK                            x       y       z     vdW  Elec       q    Type
REMARK                         _______ _______ _______ _____ _____    ______ ____
ROOT
ATOM      1  C   UNL A   1      35.829 -37.831 -28.976  0.00  0.00    -0.011 C 
ATOM      2  C   UNL A   1      34.876 -38.698 -29.351  0.00  0.00    -0.049 C 
ENDROOT
BRANCH   2   3
ATOM      3  C   UNL A   1      33.454 -38.336 -29.421  0.00  0.00    -0.009 A 
ATOM      4  C   UNL A   1      32.531 -39.026 -28.638  0.00  0.00    -0.052 A 
ATOM      5  C   UNL A   1      31.187 -38.673 -28.682  0.00  0.00    -0.045 A 
ATOM      6  C   UNL A   1      30.780 -37.630 -29.506  0.00  0.00    +0.005 A 
ATOM      7  N   UNL A   1      31.678 -36.957 -30.262  0.00  0.00    -0.348 N 
ATOM      8  C   UNL A   1      32.996 -37.277 -30.211  0.00  0.00    +0.012 A 
BRANCH   7   9
ATOM      9  C   UNL A   1      31.217 -35.831 -31.122  0.00  0.00    +0.049 C 
BRANCH   9  10
ATOM     10  C   UNL A   1      32.094 -34.608 -31.003  0.00  0.00    -0.014 A 
ATOM     11  C   UNL A   1      31.945 -33.776 -29.875  0.00  0.00    -0.056 A 
ATOM     12  C   UNL A   1      32.750 -32.649 -29.707  0.00  0.00    -0.061 A 
ATOM     13  C   UNL A   1      33.710 -32.328 -30.660  0.00  0.00    -0.061 A 
ATOM     14  C   UNL A   1      33.863 -33.129 -31.788  0.00  0.00    -0.047 A 
ATOM     15  C   UNL A   1      33.059 -34.260 -31.964  0.00  0.00    +0.023 A 
ATOM     16 BR   UNL A   1      33.332 -35.276 -33.543  0.00  0.00    -0.050 Br
ENDBRANCH   9  10
ENDBRANCH   7   9
ENDBRANCH   2   3
BRANCH   1  17
ATOM     17  C   UNL A   1      37.273 -38.179 -28.803  0.00  0.00    +0.221 C 
ATOM     18  O   UNL A   1      37.510 -39.004 -27.920  0.00  0.00    -0.284 OA
BRANCH  17  25
ATOM     19  C   UNL A   1      41.760 -37.336 -30.399  0.00  0.00    +0.163 A 
ATOM     20  C   UNL A   1      42.360 -36.494 -31.345  0.00  0.00    -0.016 A 
ATOM     21  C   UNL A   1      41.603 -35.598 -32.110  0.00  0.00    -0.058 A 
ATOM     22  C   UNL A   1      40.213 -35.512 -31.964  0.00  0.00    -0.051 A 
ATOM     23  C   UNL A   1      39.585 -36.354 -31.031  0.00  0.00    +0.025 A 
ATOM     24  C   UNL A   1      38.248 -36.563 -30.596  0.00  0.00    -0.005 A 
ATOM     25  C   UNL A   1      38.284 -37.551 -29.627  0.00  0.00    +0.176 A 
ATOM     26  O   UNL A   1      39.580 -37.948 -29.441  0.00  0.00    -0.448 OA
ATOM     27  C   UNL A   1      40.368 -37.229 -30.289  0.00  0.00    +0.177 A 
BRANCH  19  29
ATOM     28  C   UNL A   1      43.188 -39.225 -30.292  0.00  0.00    +0.079 C 
ATOM     29  O   UNL A   1      42.409 -38.247 -29.614  0.00  0.00    -0.491 OA
ENDBRANCH  19  29
ENDBRANCH  17  25
ENDBRANCH   1  17
TORSDOF 6
ENDMDL
MODEL 15
REMARK VINA RESULT:    -7.450     16.861     20.793
REMARK INTER + INTRA:         -10.905
REMARK INTER:                  -9.935
REMARK INTRA:                  -0.970
REMARK UNBOUND:                -0.841
REMARK  Name = cpd135.pdb
REMARK  7 active torsions:
REMARK  status: ('A' for Active; 'I' for Inactive)
REMARK    1  A    between atoms: C_1  and  O_2
REMARK    2  A    between atoms: O_2  and  C_3
REMARK    3  A    between atoms: C_9  and  C_10
REMARK    4  A    between atoms: C_10  and  C_12
REMARK    5  A    between atoms: C_13  and  C_14
REMARK    6  A    between atoms: N_18  and  C_19
REMARK    7  A    between atoms: C_19  and  C_20
REMARK                            x       y       z     vdW  Elec       q    Type
REMARK                         _______ _______ _______ _____ _____    ______ ____
ROOT
ATOM      1  C   UNL A   1      44.038 -18.718 -35.393  0.00  0.00    -0.011 C 
ATOM      2  C   UNL A   1      45.153 -19.142 -36.009  0.00  0.00    -0.049 C 
ENDROOT
BRANCH   2   3
ATOM      3  C   UNL A   1      45.700 -18.487 -37.204  0.00  0.00    -0.009 A 
ATOM      4  C   UNL A   1      46.646 -17.474 -37.059  0.00  0.00    -0.052 A 
ATOM      5  C   UNL A   1      47.185 -16.865 -38.186  0.00  0.00    -0.045 A 
ATOM      6  C   UNL A   1      46.777 -17.279 -39.449  0.00  0.00    +0.005 A 
ATOM      7  N   UNL A   1      45.862 -18.267 -39.589  0.00  0.00    -0.348 N 
ATOM      8  C   UNL A   1      45.345 -18.884 -38.497  0.00  0.00    +0.012 A 
BRANCH   7   9
ATOM      9  C   UNL A   1      45.456 -18.702 -40.954  0.00  0.00    +0.049 C 
BRANCH   9  10
ATOM     10  C   UNL A   1      46.065 -20.026 -41.350  0.00  0.00    -0.014 A 
ATOM     11  C   UNL A   1      47.438 -20.071 -41.664  0.00  0.00    -0.056 A 
ATOM     12  C   UNL A   1      48.054 -21.275 -42.011  0.00  0.00    -0.061 A 
ATOM     13  C   UNL A   1      47.312 -22.450 -42.055  0.00  0.00    -0.061 A 
ATOM     14  C   UNL A   1      45.951 -22.424 -41.762  0.00  0.00    -0.047 A 
ATOM     15  C   UNL A   1      45.328 -21.221 -41.415  0.00  0.00    +0.023 A 
ATOM     16 BR   UNL A   1      43.466 -21.286 -41.051  0.00  0.00    -0.050 Br
ENDBRANCH   9  10
ENDBRANCH   7   9
ENDBRANCH   2   3
BRANCH   1  17
ATOM     17  C   UNL A   1      43.395 -19.406 -34.232  0.00  0.00    +0.221 C 
ATOM     18  O   UNL A   1      43.888 -19.147 -33.133  0.00  0.00    -0.284 OA
BRANCH  17  25
ATOM     19  C   UNL A   1      40.236 -22.854 -32.999  0.00  0.00    +0.163 A 
ATOM     20  C   UNL A   1      39.191 -23.545 -33.628  0.00  0.00    -0.016 A 
ATOM     21  C   UNL A   1      38.845 -23.293 -34.961  0.00  0.00    -0.058 A 
ATOM     22  C   UNL A   1      39.528 -22.334 -35.719  0.00  0.00    -0.051 A 
ATOM     23  C   UNL A   1      40.572 -21.618 -35.110  0.00  0.00    +0.025 A 
ATOM     24  C   UNL A   1      41.479 -20.604 -35.522  0.00  0.00    -0.005 A 
ATOM     25  C   UNL A   1      42.287 -20.314 -34.437  0.00  0.00    +0.176 A 
ATOM     26  O   UNL A   1      41.925 -21.108 -33.384  0.00  0.00    -0.448 OA
ATOM     27  C   UNL A   1      40.887 -21.896 -33.786  0.00  0.00    +0.177 A 
BRANCH  19  29
ATOM     28  C   UNL A   1      41.479 -24.140 -31.445  0.00  0.00    +0.079 C 
ATOM     29  O   UNL A   1      40.641 -23.021 -31.705  0.00  0.00    -0.491 OA
ENDBRANCH  19  29
ENDBRANCH  17  25
ENDBRANCH   1  17
TORSDOF 6
ENDMDL
MODEL 16
REMARK VINA RESULT:    -7.356     16.939     20.159
REMARK INTER + INTRA:         -10.777
REMARK INTER:                  -9.841
REMARK INTRA:                  -0.936
REMARK UNBOUND:                -0.841
REMARK  Name = cpd135.pdb
REMARK  7 active torsions:
REMARK  status: ('A' for Active; 'I' for Inactive)
REMARK    1  A    between atoms: C_1  and  O_2
REMARK    2  A    between atoms: O_2  and  C_3
REMARK    3  A    between atoms: C_9  and  C_10
REMARK    4  A    between atoms: C_10  and  C_12
REMARK    5  A    between atoms: C_13  and  C_14
REMARK    6  A    between atoms: N_18  and  C_19
REMARK    7  A    between atoms: C_19  and  C_20
REMARK                            x       y       z     vdW  Elec       q    Type
REMARK                         _______ _______ _______ _____ _____    ______ ____
ROOT
ATOM      1  C   UNL A   1      41.602 -21.698 -38.060  0.00  0.00    -0.011 C 
ATOM      2  C   UNL A   1      40.380 -22.026 -37.612  0.00  0.00    -0.049 C 
ENDROOT
BRANCH   2   3
ATOM      3  C   UNL A   1      40.095 -22.281 -36.194  0.00  0.00    -0.009 A 
ATOM      4  C   UNL A   1      39.099 -23.191 -35.847  0.00  0.00    -0.052 A 
ATOM      5  C   UNL A   1      38.840 -23.454 -34.507  0.00  0.00    -0.045 A 
ATOM      6  C   UNL A   1      39.582 -22.808 -33.526  0.00  0.00    +0.005 A 
ATOM      7  N   UNL A   1      40.554 -21.928 -33.864  0.00  0.00    -0.348 N 
ATOM      8  C   UNL A   1      40.832 -21.680 -35.169  0.00  0.00    +0.012 A 
BRANCH   7   9
ATOM      9  C   UNL A   1      41.347 -21.263 -32.793  0.00  0.00    +0.049 C 
BRANCH   9  10
ATOM     10  C   UNL A   1      41.081 -19.780 -32.704  0.00  0.00    -0.014 A 
ATOM     11  C   UNL A   1      39.819 -19.345 -32.253  0.00  0.00    -0.056 A 
ATOM     12  C   UNL A   1      39.533 -17.985 -32.128  0.00  0.00    -0.061 A 
ATOM     13  C   UNL A   1      40.496 -17.037 -32.455  0.00  0.00    -0.061 A 
ATOM     14  C   UNL A   1      41.745 -17.446 -32.916  0.00  0.00    -0.047 A 
ATOM     15  C   UNL A   1      42.037 -18.808 -33.044  0.00  0.00    +0.023 A 
ATOM     16 BR   UNL A   1      43.760 -19.263 -33.698  0.00  0.00    -0.050 Br
ENDBRANCH   9  10
ENDBRANCH   7   9
ENDBRANCH   2   3
BRANCH   1  17
ATOM     17  C   UNL A   1      41.959 -21.519 -39.501  0.00  0.00    +0.221 C 
ATOM     18  O   UNL A   1      41.154 -21.997 -40.301  0.00  0.00    -0.284 OA
BRANCH  17  25
ATOM     19  C   UNL A   1      46.255 -21.057 -41.673  0.00  0.00    +0.163 A 
ATOM     20  C   UNL A   1      47.251 -20.074 -41.756  0.00  0.00    -0.016 A 
ATOM     21  C   UNL A   1      47.125 -18.848 -41.090  0.00  0.00    -0.058 A 
ATOM     22  C   UNL A   1      45.994 -18.554 -40.319  0.00  0.00    -0.051 A 
ATOM     23  C   UNL A   1      44.975 -19.517 -40.229  0.00  0.00    +0.025 A 
ATOM     24  C   UNL A   1      43.719 -19.603 -39.569  0.00  0.00    -0.005 A 
ATOM     25  C   UNL A   1      43.181 -20.840 -39.878  0.00  0.00    +0.176 A 
ATOM     26  O   UNL A   1      44.051 -21.519 -40.685  0.00  0.00    -0.448 OA
ATOM     27  C   UNL A   1      45.136 -20.722 -40.902  0.00  0.00    +0.177 A 
BRANCH  19  29
ATOM     28  C   UNL A   1      47.198 -23.230 -41.769  0.00  0.00    +0.079 C 
ATOM     29  O   UNL A   1      46.282 -22.276 -42.291  0.00  0.00    -0.491 OA
ENDBRANCH  19  29
ENDBRANCH  17  25
ENDBRANCH   1  17
TORSDOF 6
ENDMDL
MODEL 17
REMARK VINA RESULT:    -7.216     17.035     21.020
REMARK INTER + INTRA:         -10.588
REMARK INTER:                  -9.897
REMARK INTRA:                  -0.691
REMARK UNBOUND:                -0.841
REMARK  Name = cpd135.pdb
REMARK  7 active torsions:
REMARK  status: ('A' for Active; 'I' for Inactive)
REMARK    1  A    between atoms: C_1  and  O_2
REMARK    2  A    between atoms: O_2  and  C_3
REMARK    3  A    between atoms: C_9  and  C_10
REMARK    4  A    between atoms: C_10  and  C_12
REMARK    5  A    between atoms: C_13  and  C_14
REMARK    6  A    between atoms: N_18  and  C_19
REMARK    7  A    between atoms: C_19  and  C_20
REMARK                            x       y       z     vdW  Elec       q    Type
REMARK                         _______ _______ _______ _____ _____    ______ ____
ROOT
ATOM      1  C   UNL A   1      44.085 -17.705 -34.303  0.00  0.00    -0.011 C 
ATOM      2  C   UNL A   1      45.069 -18.585 -34.550  0.00  0.00    -0.049 C 
ENDROOT
BRANCH   2   3
ATOM      3  C   UNL A   1      45.718 -18.704 -35.861  0.00  0.00    -0.009 A 
ATOM      4  C   UNL A   1      46.418 -17.618 -36.382  0.00  0.00    -0.052 A 
ATOM      5  C   UNL A   1      47.054 -17.732 -37.613  0.00  0.00    -0.045 A 
ATOM      6  C   UNL A   1      46.988 -18.933 -38.310  0.00  0.00    +0.005 A 
ATOM      7  N   UNL A   1      46.312 -19.990 -37.800  0.00  0.00    -0.348 N 
ATOM      8  C   UNL A   1      45.706 -19.898 -36.589  0.00  0.00    +0.012 A 
BRANCH   7   9
ATOM      9  C   UNL A   1      46.273 -21.271 -38.559  0.00  0.00    +0.049 C 
BRANCH   9  10
ATOM     10  C   UNL A   1      45.582 -21.137 -39.894  0.00  0.00    -0.014 A 
ATOM     11  C   UNL A   1      44.478 -20.268 -40.001  0.00  0.00    -0.056 A 
ATOM     12  C   UNL A   1      43.822 -20.090 -41.220  0.00  0.00    -0.061 A 
ATOM     13  C   UNL A   1      44.250 -20.779 -42.350  0.00  0.00    -0.061 A 
ATOM     14  C   UNL A   1      45.330 -21.654 -42.262  0.00  0.00    -0.047 A 
ATOM     15  C   UNL A   1      45.991 -21.837 -41.043  0.00  0.00    +0.023 A 
ATOM     16 BR   UNL A   1      47.439 -23.063 -41.022  0.00  0.00    -0.050 Br
ENDBRANCH   9  10
ENDBRANCH   7   9
ENDBRANCH   2   3
BRANCH   1  17
ATOM     17  C   UNL A   1      43.335 -17.610 -33.012  0.00  0.00    +0.221 C 
ATOM     18  O   UNL A   1      43.874 -16.924 -32.144  0.00  0.00    -0.284 OA
BRANCH  17  25
ATOM     19  C   UNL A   1      40.465 -21.473 -32.531  0.00  0.00    +0.163 A 
ATOM     20  C   UNL A   1      39.090 -21.705 -32.392  0.00  0.00    -0.016 A 
ATOM     21  C   UNL A   1      38.168 -20.651 -32.372  0.00  0.00    -0.058 A 
ATOM     22  C   UNL A   1      38.587 -19.319 -32.485  0.00  0.00    -0.051 A 
ATOM     23  C   UNL A   1      39.961 -19.058 -32.614  0.00  0.00    +0.025 A 
ATOM     24  C   UNL A   1      40.760 -17.890 -32.754  0.00  0.00    -0.005 A 
ATOM     25  C   UNL A   1      42.078 -18.306 -32.840  0.00  0.00    +0.176 A 
ATOM     26  O   UNL A   1      42.122 -19.672 -32.770  0.00  0.00    -0.448 OA
ATOM     27  C   UNL A   1      40.845 -20.129 -32.631  0.00  0.00    +0.177 A 
BRANCH  19  29
ATOM     28  C   UNL A   1      41.431 -23.365 -31.481  0.00  0.00    +0.079 C 
ATOM     29  O   UNL A   1      41.440 -22.431 -32.553  0.00  0.00    -0.491 OA
ENDBRANCH  19  29
ENDBRANCH  17  25
ENDBRANCH   1  17
TORSDOF 6
ENDMDL
MODEL 18
REMARK VINA RESULT:    -7.208     17.109     20.579
REMARK INTER + INTRA:         -10.578
REMARK INTER:                  -9.633
REMARK INTRA:                  -0.945
REMARK UNBOUND:                -0.841
REMARK  Name = cpd135.pdb
REMARK  7 active torsions:
REMARK  status: ('A' for Active; 'I' for Inactive)
REMARK    1  A    between atoms: C_1  and  O_2
REMARK    2  A    between atoms: O_2  and  C_3
REMARK    3  A    between atoms: C_9  and  C_10
REMARK    4  A    between atoms: C_10  and  C_12
REMARK    5  A    between atoms: C_13  and  C_14
REMARK    6  A    between atoms: N_18  and  C_19
REMARK    7  A    between atoms: C_19  and  C_20
REMARK                            x       y       z     vdW  Elec       q    Type
REMARK                         _______ _______ _______ _____ _____    ______ ____
ROOT
ATOM      1  C   UNL A   1      45.416 -17.831 -37.245  0.00  0.00    -0.011 C 
ATOM      2  C   UNL A   1      45.398 -18.750 -36.267  0.00  0.00    -0.049 C 
ENDROOT
BRANCH   2   3
ATOM      3  C   UNL A   1      44.633 -18.575 -35.026  0.00  0.00    -0.009 A 
ATOM      4  C   UNL A   1      45.253 -18.016 -33.911  0.00  0.00    -0.052 A 
ATOM      5  C   UNL A   1      44.527 -17.827 -32.740  0.00  0.00    -0.045 A 
ATOM      6  C   UNL A   1      43.188 -18.195 -32.697  0.00  0.00    +0.005 A 
ATOM      7  N   UNL A   1      42.585 -18.733 -33.783  0.00  0.00    -0.348 N 
ATOM      8  C   UNL A   1      43.276 -18.901 -34.939  0.00  0.00    +0.012 A 
BRANCH   7   9
ATOM      9  C   UNL A   1      41.144 -19.101 -33.715  0.00  0.00    +0.049 C 
BRANCH   9  10
ATOM     10  C   UNL A   1      40.925 -20.591 -33.619  0.00  0.00    -0.014 A 
ATOM     11  C   UNL A   1      41.341 -21.262 -32.451  0.00  0.00    -0.056 A 
ATOM     12  C   UNL A   1      41.137 -22.634 -32.303  0.00  0.00    -0.061 A 
ATOM     13  C   UNL A   1      40.522 -23.362 -33.316  0.00  0.00    -0.061 A 
ATOM     14  C   UNL A   1      40.117 -22.721 -34.483  0.00  0.00    -0.047 A 
ATOM     15  C   UNL A   1      40.319 -21.345 -34.638  0.00  0.00    +0.023 A 
ATOM     16 BR   UNL A   1      39.748 -20.568 -36.273  0.00  0.00    -0.050 Br
ENDBRANCH   9  10
ENDBRANCH   7   9
ENDBRANCH   2   3
BRANCH   1  17
ATOM     17  C   UNL A   1      46.250 -17.924 -38.483  0.00  0.00    +0.221 C 
ATOM     18  O   UNL A   1      47.191 -17.132 -38.540  0.00  0.00    -0.284 OA
BRANCH  17  25
ATOM     19  C   UNL A   1      46.769 -21.993 -41.046  0.00  0.00    +0.163 A 
ATOM     20  C   UNL A   1      46.137 -22.587 -42.147  0.00  0.00    -0.016 A 
ATOM     21  C   UNL A   1      45.060 -21.968 -42.793  0.00  0.00    -0.058 A 
ATOM     22  C   UNL A   1      44.566 -20.732 -42.360  0.00  0.00    -0.051 A 
ATOM     23  C   UNL A   1      45.173 -20.120 -41.250  0.00  0.00    +0.025 A 
ATOM     24  C   UNL A   1      44.980 -18.910 -40.530  0.00  0.00    -0.005 A 
ATOM     25  C   UNL A   1      45.924 -18.882 -39.519  0.00  0.00    +0.176 A 
ATOM     26  O   UNL A   1      46.693 -20.011 -39.592  0.00  0.00    -0.448 OA
ATOM     27  C   UNL A   1      46.240 -20.763 -40.636  0.00  0.00    +0.177 A 
BRANCH  19  29
ATOM     28  C   UNL A   1      49.117 -22.259 -40.861  0.00  0.00    +0.079 C 
ATOM     29  O   UNL A   1      47.817 -22.519 -40.345  0.00  0.00    -0.491 OA
ENDBRANCH  19  29
ENDBRANCH  17  25
ENDBRANCH   1  17
TORSDOF 6
ENDMDL
MODEL 19
REMARK VINA RESULT:    -7.081     17.922     20.933
REMARK INTER + INTRA:         -10.406
REMARK INTER:                  -9.211
REMARK INTRA:                  -1.195
REMARK UNBOUND:                -0.841
REMARK  Name = cpd135.pdb
REMARK  7 active torsions:
REMARK  status: ('A' for Active; 'I' for Inactive)
REMARK    1  A    between atoms: C_1  and  O_2
REMARK    2  A    between atoms: O_2  and  C_3
REMARK    3  A    between atoms: C_9  and  C_10
REMARK    4  A    between atoms: C_10  and  C_12
REMARK    5  A    between atoms: C_13  and  C_14
REMARK    6  A    between atoms: N_18  and  C_19
REMARK    7  A    between atoms: C_19  and  C_20
REMARK                            x       y       z     vdW  Elec       q    Type
REMARK                         _______ _______ _______ _____ _____    ______ ____
ROOT
ATOM      1  C   UNL A   1      42.332 -21.877 -38.846  0.00  0.00    -0.011 C 
ATOM      2  C   UNL A   1      42.569 -21.108 -39.921  0.00  0.00    -0.049 C 
ENDROOT
BRANCH   2   3
ATOM      3  C   UNL A   1      43.919 -20.682 -40.311  0.00  0.00    -0.009 A 
ATOM      4  C   UNL A   1      44.210 -20.473 -41.657  0.00  0.00    -0.052 A 
ATOM      5  C   UNL A   1      45.479 -20.047 -42.032  0.00  0.00    -0.045 A 
ATOM      6  C   UNL A   1      46.445 -19.831 -41.056  0.00  0.00    +0.005 A 
ATOM      7  N   UNL A   1      46.160 -20.030 -39.747  0.00  0.00    -0.348 N 
ATOM      8  C   UNL A   1      44.918 -20.423 -39.368  0.00  0.00    +0.012 A 
BRANCH   7   9
ATOM      9  C   UNL A   1      47.207 -19.773 -38.721  0.00  0.00    +0.049 C 
BRANCH   9  10
ATOM     10  C   UNL A   1      46.929 -18.538 -37.898  0.00  0.00    -0.014 A 
ATOM     11  C   UNL A   1      47.024 -17.276 -38.518  0.00  0.00    -0.056 A 
ATOM     12  C   UNL A   1      46.750 -16.107 -37.807  0.00  0.00    -0.061 A 
ATOM     13  C   UNL A   1      46.383 -16.174 -36.467  0.00  0.00    -0.061 A 
ATOM     14  C   UNL A   1      46.297 -17.411 -35.833  0.00  0.00    -0.047 A 
ATOM     15  C   UNL A   1      46.571 -18.586 -36.539  0.00  0.00    +0.023 A 
ATOM     16 BR   UNL A   1      46.444 -20.219 -35.580  0.00  0.00    -0.050 Br
ENDBRANCH   9  10
ENDBRANCH   7   9
ENDBRANCH   2   3
BRANCH   1  17
ATOM     17  C   UNL A   1      40.970 -22.259 -38.360  0.00  0.00    +0.221 C 
ATOM     18  O   UNL A   1      40.225 -22.736 -39.215  0.00  0.00    -0.284 OA
BRANCH  17  25
ATOM     19  C   UNL A   1      41.648 -20.882 -33.773  0.00  0.00    +0.163 A 
ATOM     20  C   UNL A   1      40.896 -20.886 -32.590  0.00  0.00    -0.016 A 
ATOM     21  C   UNL A   1      39.590 -21.389 -32.555  0.00  0.00    -0.058 A 
ATOM     22  C   UNL A   1      38.980 -21.905 -33.706  0.00  0.00    -0.051 A 
ATOM     23  C   UNL A   1      39.707 -21.902 -34.908  0.00  0.00    +0.025 A 
ATOM     24  C   UNL A   1      39.458 -22.324 -36.242  0.00  0.00    -0.005 A 
ATOM     25  C   UNL A   1      40.598 -22.048 -36.976  0.00  0.00    +0.176 A 
ATOM     26  O   UNL A   1      41.536 -21.488 -36.154  0.00  0.00    -0.448 OA
ATOM     27  C   UNL A   1      41.000 -21.396 -34.904  0.00  0.00    +0.177 A 
BRANCH  19  29
ATOM     28  C   UNL A   1      43.182 -19.126 -33.348  0.00  0.00    +0.079 C 
ATOM     29  O   UNL A   1      42.922 -20.406 -33.910  0.00  0.00    -0.491 OA
ENDBRANCH  19  29
ENDBRANCH  17  25
ENDBRANCH   1  17
TORSDOF 6
ENDMDL
MODEL 20
REMARK VINA RESULT:    -7.069     16.455     20.658
REMARK INTER + INTRA:         -10.390
REMARK INTER:                  -9.442
REMARK INTRA:                  -0.948
REMARK UNBOUND:                -0.841
REMARK  Name = cpd135.pdb
REMARK  7 active torsions:
REMARK  status: ('A' for Active; 'I' for Inactive)
REMARK    1  A    between atoms: C_1  and  O_2
REMARK    2  A    between atoms: O_2  and  C_3
REMARK    3  A    between atoms: C_9  and  C_10
REMARK    4  A    between atoms: C_10  and  C_12
REMARK    5  A    between atoms: C_13  and  C_14
REMARK    6  A    between atoms: N_18  and  C_19
REMARK    7  A    between atoms: C_19  and  C_20
REMARK                            x       y       z     vdW  Elec       q    Type
REMARK                         _______ _______ _______ _____ _____    ______ ____
ROOT
ATOM      1  C   UNL A   1      41.718 -21.227 -38.492  0.00  0.00    -0.011 C 
ATOM      2  C   UNL A   1      42.643 -21.498 -39.426  0.00  0.00    -0.049 C 
ENDROOT
BRANCH   2   3
ATOM      3  C   UNL A   1      43.635 -20.511 -39.871  0.00  0.00    -0.009 A 
ATOM      4  C   UNL A   1      44.165 -20.603 -41.157  0.00  0.00    -0.052 A 
ATOM      5  C   UNL A   1      45.088 -19.659 -41.593  0.00  0.00    -0.045 A 
ATOM      6  C   UNL A   1      45.468 -18.629 -40.741  0.00  0.00    +0.005 A 
ATOM      7  N   UNL A   1      44.949 -18.537 -39.494  0.00  0.00    -0.348 N 
ATOM      8  C   UNL A   1      44.030 -19.439 -39.065  0.00  0.00    +0.012 A 
BRANCH   7   9
ATOM      9  C   UNL A   1      45.360 -17.412 -38.609  0.00  0.00    +0.049 C 
BRANCH   9  10
ATOM     10  C   UNL A   1      45.978 -17.883 -37.315  0.00  0.00    -0.014 A 
ATOM     11  C   UNL A   1      47.281 -18.419 -37.344  0.00  0.00    -0.056 A 
ATOM     12  C   UNL A   1      47.907 -18.844 -36.172  0.00  0.00    -0.061 A 
ATOM     13  C   UNL A   1      47.245 -18.748 -34.953  0.00  0.00    -0.061 A 
ATOM     14  C   UNL A   1      45.951 -18.235 -34.904  0.00  0.00    -0.047 A 
ATOM     15  C   UNL A   1      45.318 -17.808 -36.076  0.00  0.00    +0.023 A 
ATOM     16 BR   UNL A   1      43.549 -17.141 -35.908  0.00  0.00    -0.050 Br
ENDBRANCH   9  10
ENDBRANCH   7   9
ENDBRANCH   2   3
BRANCH   1  17
ATOM     17  C   UNL A   1      40.633 -22.168 -38.073  0.00  0.00    +0.221 C 
ATOM     18  O   UNL A   1      40.526 -23.182 -38.763  0.00  0.00    -0.284 OA
BRANCH  17  25
ATOM     19  C   UNL A   1      38.149 -23.115 -34.033  0.00  0.00    +0.163 A 
ATOM     20  C   UNL A   1      37.329 -22.395 -33.153  0.00  0.00    -0.016 A 
ATOM     21  C   UNL A   1      37.053 -21.037 -33.355  0.00  0.00    -0.058 A 
ATOM     22  C   UNL A   1      37.592 -20.342 -34.445  0.00  0.00    -0.051 A 
ATOM     23  C   UNL A   1      38.427 -21.037 -35.336  0.00  0.00    +0.025 A 
ATOM     24  C   UNL A   1      39.138 -20.707 -36.522  0.00  0.00    -0.005 A 
ATOM     25  C   UNL A   1      39.785 -21.856 -36.942  0.00  0.00    +0.176 A 
ATOM     26  O   UNL A   1      39.496 -22.875 -36.077  0.00  0.00    -0.448 OA
ATOM     27  C   UNL A   1      38.677 -22.383 -35.104  0.00  0.00    +0.177 A 
BRANCH  19  29
ATOM     28  C   UNL A   1      37.416 -25.368 -34.023  0.00  0.00    +0.079 C 
ATOM     29  O   UNL A   1      38.483 -24.434 -33.916  0.00  0.00    -0.491 OA
ENDBRANCH  19  29
ENDBRANCH  17  25
ENDBRANCH   1  17
TORSDOF 6
ENDMDL
