@<TRIPOS>MOLECULE
*****
 27 30 0 0 0
SMALL
GASTEIGER

@<TRIPOS>ATOM
      1 C          -1.7611   -0.0124    0.0000 C.3     1  UNL1        0.0311
      2 C          -0.8841    0.5022    0.0000 C.ar    1  UNL1       -0.0206
      3 C          -0.8913    1.5189    0.0000 C.ar    1  UNL1       -0.0042
      4 C          -0.0143    2.0335    0.0000 C.ar    1  UNL1        0.0010
      5 C           0.8698    1.5313    0.0000 C.ar    1  UNL1        0.0167
      6 C           0.8770    0.5146    0.0000 C.ar    1  UNL1        0.0764
      7 N           1.7611    0.0124    0.0000 N.am    1  UNL1       -0.1421
      8 C           1.7682   -1.0044    0.0000 C.2     1  UNL1        0.4300
      9 O           0.8913   -1.5189    0.0000 O.2     1  UNL1       -0.2238
     10 O           2.6523   -1.5066    0.0000 O.3     1  UNL1       -0.4089
     11 C           3.5293   -0.9920    0.0000 C.ar    1  UNL1        0.1499
     12 C           3.5227   -0.0625    0.0000 C.ar    1  UNL1        0.0389
     13 C           4.3245    0.4079    0.0000 C.ar    1  UNL1        0.0175
     14 C           5.1327   -0.0512    0.0000 C.ar    1  UNL1        0.0484
     15 C           5.1392   -0.9807    0.0000 C.ar    1  UNL1        0.0010
     16 C           4.3375   -1.4511    0.0000 C.ar    1  UNL1        0.0349
     17 C           5.9535   -1.4508    0.0000 C.3     1  UNL1        0.0894
     18 C           5.4535   -2.3168    0.0000 C.3     1  UNL1        0.0123
     19 C           6.7681   -1.9211    0.0000 C.3     1  UNL1        0.0723
     20 C           7.5887   -1.4405    0.0000 C.3     1  UNL1        0.1067
     21 N           7.5822   -0.5110    0.0000 N.3     1  UNL1        0.2728
     22 C           8.4465   -0.0079    0.0000 C.3     1  UNL1        0.1677
     23 O           8.4482   -1.0110    0.0000 O.co2   1  UNL1       -0.7702
     24 C           6.7677   -0.0407    0.0000 C.3     1  UNL1        0.1391
     25 N           5.9534    0.4294    0.0000 N.pl3   1  UNL1       -0.2662
     26 C           5.9503    1.4294    0.0000 C.3     1  UNL1        0.1174
     27 C           0.0000   -0.0000    0.0000 C.ar    1  UNL1        0.0125
@<TRIPOS>UNITY_ATOM_ATTR
21 1
charge 1
23 1
charge -1
@<TRIPOS>BOND
     1     1     2    1
     2     2     3   ar
     3     3     4   ar
     4     4     5   ar
     5     5     6   ar
     6     6     7    1
     7     7     8   am
     8     8     9    2
     9     8    10    1
    10    10    11    1
    11    11    12   ar
    12    12    13   ar
    13    13    14   ar
    14    14    15   ar
    15    15    16   ar
    16    11    16   ar
    17    15    17    1
    18    17    18    1
    19    17    19    1
    20    19    20    1
    21    20    21    1
    22    21    22    1
    23    21    23    1
    24    21    24    1
    25    17    24    1
    26    24    25    1
    27    14    25    1
    28    25    26    1
    29     6    27   ar
    30     2    27   ar
