REMARK  Name = cpd254.pdb
REMARK  7 active torsions:
REMARK  status: ('A' for Active; 'I' for Inactive)
REMARK    1  A    between atoms: C_1  and  C_2
REMARK    2  A    between atoms: C_6  and  N_7
REMARK    3  A    between atoms: C_8  and  O_10
REMARK    4  A    between atoms: O_10  and  C_11
REMARK    5  A    between atoms: C_17  and  C_18
REMARK    6  A    between atoms: N_21  and  C_22
REMARK    7  A    between atoms: N_25  and  C_26
REMARK                            x       y       z     vdW  Elec       q    Type
REMARK                         _______ _______ _______ _____ _____    ______ ____
ROOT
ATOM      1  C   UNL A   1       2.226  -1.173   0.863  0.00  0.00    +0.134 A 
ATOM      2  C   UNL A   1       2.071   0.187   0.577  0.00  0.00    -0.017 A 
ATOM      3  C   UNL A   1       3.146   0.911   0.060  0.00  0.00    -0.037 A 
ATOM      4  C   UNL A   1       4.380   0.290  -0.092  0.00  0.00    +0.032 A 
ATOM      5  C   UNL A   1       4.529  -1.050   0.247  0.00  0.00    -0.017 A 
ATOM      6  C   UNL A   1       3.459  -1.807   0.713  0.00  0.00    -0.014 A 
ATOM      7  C   UNL A   1       5.954  -1.451   0.000  0.00  0.00    +0.002 C 
ATOM      8  C   UNL A   1       6.498  -2.320   1.143  0.00  0.00    -0.055 C 
ATOM      9  C   UNL A   1       6.097  -2.089  -1.365  0.00  0.00    -0.054 C 
ATOM     10  C   UNL A   1       7.528  -1.827  -1.694  0.00  0.00    -0.048 C 
ATOM     11  N   UNL A   1       7.850  -0.459  -1.148  0.00  0.00    +0.433 N 
ATOM     12  C   UNL A   1       7.883   0.524  -2.292  0.00  0.00    -0.060 C 
ATOM     13  O   UNL A   1       9.119  -0.506  -0.584  0.00  0.00    -0.289 OA
ATOM     14  C   UNL A   1       6.768  -0.041   0.000  0.00  0.00    +0.039 C 
ATOM     15  N   UNL A   1       5.568   0.847  -0.610  0.00  0.00    -0.341 N 
ATOM     16  C   UNL A   1       5.657   2.307  -0.438  0.00  0.00    -0.001 C 
ENDROOT
BRANCH   1  17
ATOM     17  O   UNL A   1       1.164  -1.954   1.385  0.00  0.00    -0.411 OA
BRANCH  17  19
ATOM     18  N   UNL A   1      -0.459  -1.245  -0.129  0.00  0.00    -0.251 N 
ATOM     19  C   UNL A   1      -0.200  -1.696   1.147  0.00  0.00    +0.410 C 
ATOM     20  O   UNL A   1      -1.022  -1.922   2.026  0.00  0.00    -0.226 OA
ATOM     21  H   UNL A   1       0.276  -1.334  -0.777  0.00  0.00    +0.000 HD
BRANCH  18  27
ATOM     22  C   UNL A   1      -5.111   0.469   0.490  0.00  0.00    -0.040 C 
ATOM     23  C   UNL A   1      -3.902   0.220  -0.363  0.00  0.00    -0.049 A 
ATOM     24  C   UNL A   1      -3.905   0.586  -1.713  0.00  0.00    -0.059 A 
ATOM     25  C   UNL A   1      -2.789   0.338  -2.509  0.00  0.00    -0.060 A 
ATOM     26  C   UNL A   1      -1.665  -0.284  -1.962  0.00  0.00    -0.040 A 
ATOM     27  C   UNL A   1      -1.648  -0.672  -0.617  0.00  0.00    +0.037 A 
ATOM     28  C   UNL A   1      -2.774  -0.424   0.173  0.00  0.00    -0.037 A 
ENDBRANCH  18  27
ENDBRANCH  17  19
ENDBRANCH   1  17
TORSDOF 3
