MODEL 1
REMARK VINA RESULT:    -9.170      0.000      0.000
REMARK INTER + INTRA:         -11.289
REMARK INTER:                 -10.778
REMARK INTRA:                  -0.511
REMARK UNBOUND:                -0.511
REMARK  Name = cpd254.pdb
REMARK  7 active torsions:
REMARK  status: ('A' for Active; 'I' for Inactive)
REMARK    1  A    between atoms: C_1  and  C_2
REMARK    2  A    between atoms: C_6  and  N_7
REMARK    3  A    between atoms: C_8  and  O_10
REMARK    4  A    between atoms: O_10  and  C_11
REMARK    5  A    between atoms: C_17  and  C_18
REMARK    6  A    between atoms: N_21  and  C_22
REMARK    7  A    between atoms: N_25  and  C_26
REMARK                            x       y       z     vdW  Elec       q    Type
REMARK                         _______ _______ _______ _____ _____    ______ ____
ROOT
ATOM      1  C   UNL A   1      35.547 -37.083 -27.855  0.00  0.00    +0.134 A 
ATOM      2  C   UNL A   1      34.463 -37.071 -26.971  0.00  0.00    -0.017 A 
ATOM      3  C   UNL A   1      33.382 -36.223 -27.216  0.00  0.00    -0.037 A 
ATOM      4  C   UNL A   1      33.430 -35.345 -28.292  0.00  0.00    +0.032 A 
ATOM      5  C   UNL A   1      34.539 -35.335 -29.130  0.00  0.00    -0.017 A 
ATOM      6  C   UNL A   1      35.605 -36.208 -28.939  0.00  0.00    -0.014 A 
ATOM      7  C   UNL A   1      34.331 -34.289 -30.187  0.00  0.00    +0.002 C 
ATOM      8  C   UNL A   1      35.611 -33.477 -30.431  0.00  0.00    -0.055 C 
ATOM      9  C   UNL A   1      33.761 -34.910 -31.443  0.00  0.00    -0.054 C 
ATOM     10  C   UNL A   1      33.048 -33.762 -32.075  0.00  0.00    -0.048 C 
ATOM     11  N   UNL A   1      32.448 -32.958 -30.949  0.00  0.00    +0.433 N 
ATOM     12  C   UNL A   1      30.969 -33.247 -30.882  0.00  0.00    -0.060 C 
ATOM     13  O   UNL A   1      32.612 -31.611 -31.245  0.00  0.00    -0.289 OA
ATOM     14  C   UNL A   1      33.212 -33.296 -29.546  0.00  0.00    +0.039 C 
ATOM     15  N   UNL A   1      32.436 -34.434 -28.707  0.00  0.00    -0.341 N 
ATOM     16  C   UNL A   1      31.559 -33.982 -27.613  0.00  0.00    -0.001 C 
ENDROOT
BRANCH   1  17
ATOM     17  O   UNL A   1      36.667 -37.929 -27.654  0.00  0.00    -0.411 OA
BRANCH  17  19
ATOM     18  N   UNL A   1      38.785 -37.723 -28.603  0.00  0.00    -0.251 N 
ATOM     19  C   UNL A   1      37.550 -38.330 -28.675  0.00  0.00    +0.410 C 
ATOM     20  O   UNL A   1      37.195 -39.177 -29.485  0.00  0.00    -0.226 OA
ATOM     21  H   UNL A   1      38.983 -37.243 -27.768  0.00  0.00    +0.000 HD
BRANCH  18  27
ATOM     22  C   UNL A   1      40.699 -36.175 -32.951  0.00  0.00    -0.040 C 
ATOM     23  C   UNL A   1      40.798 -36.949 -31.669  0.00  0.00    -0.049 A 
ATOM     24  C   UNL A   1      41.952 -37.685 -31.379  0.00  0.00    -0.059 A 
ATOM     25  C   UNL A   1      42.036 -38.419 -30.198  0.00  0.00    -0.060 A 
ATOM     26  C   UNL A   1      40.966 -38.426 -29.302  0.00  0.00    -0.040 A 
ATOM     27  C   UNL A   1      39.797 -37.707 -29.581  0.00  0.00    +0.037 A 
ATOM     28  C   UNL A   1      39.719 -36.979 -30.771  0.00  0.00    -0.037 A 
ENDBRANCH  18  27
ENDBRANCH  17  19
ENDBRANCH   1  17
TORSDOF 3
ENDMDL
MODEL 2
REMARK VINA RESULT:    -8.179      3.229      5.289
REMARK INTER + INTRA:         -10.125
REMARK INTER:                  -9.852
REMARK INTRA:                  -0.272
REMARK UNBOUND:                -0.511
REMARK  Name = cpd254.pdb
REMARK  7 active torsions:
REMARK  status: ('A' for Active; 'I' for Inactive)
REMARK    1  A    between atoms: C_1  and  C_2
REMARK    2  A    between atoms: C_6  and  N_7
REMARK    3  A    between atoms: C_8  and  O_10
REMARK    4  A    between atoms: O_10  and  C_11
REMARK    5  A    between atoms: C_17  and  C_18
REMARK    6  A    between atoms: N_21  and  C_22
REMARK    7  A    between atoms: N_25  and  C_26
REMARK                            x       y       z     vdW  Elec       q    Type
REMARK                         _______ _______ _______ _____ _____    ______ ____
ROOT
ATOM      1  C   UNL A   1      36.084 -36.218 -30.360  0.00  0.00    +0.134 A 
ATOM      2  C   UNL A   1      34.959 -35.721 -29.694  0.00  0.00    -0.017 A 
ATOM      3  C   UNL A   1      34.015 -36.609 -29.176  0.00  0.00    -0.037 A 
ATOM      4  C   UNL A   1      34.166 -37.973 -29.395  0.00  0.00    +0.032 A 
ATOM      5  C   UNL A   1      35.264 -38.445 -30.105  0.00  0.00    -0.017 A 
ATOM      6  C   UNL A   1      36.246 -37.584 -30.584  0.00  0.00    -0.014 A 
ATOM      7  C   UNL A   1      35.164 -39.939 -30.205  0.00  0.00    +0.002 C 
ATOM      8  C   UNL A   1      35.529 -40.433 -31.612  0.00  0.00    -0.055 C 
ATOM      9  C   UNL A   1      35.967 -40.599 -29.105  0.00  0.00    -0.054 C 
ATOM     10  C   UNL A   1      35.278 -41.912 -28.947  0.00  0.00    -0.048 C 
ATOM     11  N   UNL A   1      33.806 -41.650 -29.144  0.00  0.00    +0.433 N 
ATOM     12  C   UNL A   1      33.129 -41.652 -27.796  0.00  0.00    -0.060 C 
ATOM     13  O   UNL A   1      33.277 -42.695 -29.893  0.00  0.00    -0.289 OA
ATOM     14  C   UNL A   1      33.586 -40.248 -29.950  0.00  0.00    +0.039 C 
ATOM     15  N   UNL A   1      33.333 -39.017 -28.940  0.00  0.00    -0.341 N 
ATOM     16  C   UNL A   1      31.937 -38.602 -28.720  0.00  0.00    -0.001 C 
ENDROOT
BRANCH   1  17
ATOM     17  O   UNL A   1      37.074 -35.358 -30.900  0.00  0.00    -0.411 OA
BRANCH  17  19
ATOM     18  N   UNL A   1      39.209 -36.224 -30.546  0.00  0.00    -0.251 N 
ATOM     19  C   UNL A   1      38.281 -35.803 -31.474  0.00  0.00    +0.410 C 
ATOM     20  O   UNL A   1      38.399 -35.828 -32.693  0.00  0.00    -0.226 OA
ATOM     21  H   UNL A   1      38.876 -36.352 -29.629  0.00  0.00    +0.000 HD
BRANCH  18  27
ATOM     22  C   UNL A   1      43.167 -39.271 -30.477  0.00  0.00    -0.040 C 
ATOM     23  C   UNL A   1      42.529 -37.948 -30.783  0.00  0.00    -0.049 A 
ATOM     24  C   UNL A   1      43.290 -36.908 -31.327  0.00  0.00    -0.059 A 
ATOM     25  C   UNL A   1      42.702 -35.674 -31.593  0.00  0.00    -0.060 A 
ATOM     26  C   UNL A   1      41.350 -35.469 -31.311  0.00  0.00    -0.040 A 
ATOM     27  C   UNL A   1      40.575 -36.492 -30.752  0.00  0.00    +0.037 A 
ATOM     28  C   UNL A   1      41.175 -37.726 -30.483  0.00  0.00    -0.037 A 
ENDBRANCH  18  27
ENDBRANCH  17  19
ENDBRANCH   1  17
TORSDOF 3
ENDMDL
MODEL 3
REMARK VINA RESULT:    -8.088      2.289      3.495
REMARK INTER + INTRA:         -10.018
REMARK INTER:                  -9.803
REMARK INTRA:                  -0.215
REMARK UNBOUND:                -0.511
REMARK  Name = cpd254.pdb
REMARK  7 active torsions:
REMARK  status: ('A' for Active; 'I' for Inactive)
REMARK    1  A    between atoms: C_1  and  C_2
REMARK    2  A    between atoms: C_6  and  N_7
REMARK    3  A    between atoms: C_8  and  O_10
REMARK    4  A    between atoms: O_10  and  C_11
REMARK    5  A    between atoms: C_17  and  C_18
REMARK    6  A    between atoms: N_21  and  C_22
REMARK    7  A    between atoms: N_25  and  C_26
REMARK                            x       y       z     vdW  Elec       q    Type
REMARK                         _______ _______ _______ _____ _____    ______ ____
ROOT
ATOM      1  C   UNL A   1      34.830 -35.080 -30.719  0.00  0.00    +0.134 A 
ATOM      2  C   UNL A   1      35.267 -33.838 -30.248  0.00  0.00    -0.017 A 
ATOM      3  C   UNL A   1      34.340 -32.819 -30.024  0.00  0.00    -0.037 A 
ATOM      4  C   UNL A   1      33.004 -33.026 -30.346  0.00  0.00    +0.032 A 
ATOM      5  C   UNL A   1      32.596 -34.251 -30.863  0.00  0.00    -0.017 A 
ATOM      6  C   UNL A   1      33.492 -35.300 -31.043  0.00  0.00    -0.014 A 
ATOM      7  C   UNL A   1      31.121 -34.190 -31.131  0.00  0.00    +0.002 C 
ATOM      8  C   UNL A   1      30.770 -34.838 -32.478  0.00  0.00    -0.055 C 
ATOM      9  C   UNL A   1      30.345 -34.762 -29.965  0.00  0.00    -0.054 C 
ATOM     10  C   UNL A   1      29.029 -34.070 -30.084  0.00  0.00    -0.048 C 
ATOM     11  N   UNL A   1      29.323 -32.666 -30.547  0.00  0.00    +0.433 N 
ATOM     12  C   UNL A   1      29.192 -31.730 -29.371  0.00  0.00    -0.060 C 
ATOM     13  O   UNL A   1      28.366 -32.311 -31.489  0.00  0.00    -0.289 OA
ATOM     14  C   UNL A   1      30.802 -32.597 -31.234  0.00  0.00    +0.039 C 
ATOM     15  N   UNL A   1      31.927 -32.131 -30.176  0.00  0.00    -0.341 N 
ATOM     16  C   UNL A   1      32.330 -30.715 -30.203  0.00  0.00    -0.001 C 
ENDROOT
BRANCH   1  17
ATOM     17  O   UNL A   1      35.731 -36.149 -30.958  0.00  0.00    -0.411 OA
BRANCH  17  19
ATOM     18  N   UNL A   1      37.981 -35.855 -31.484  0.00  0.00    -0.251 N 
ATOM     19  C   UNL A   1      37.065 -36.176 -30.507  0.00  0.00    +0.410 C 
ATOM     20  O   UNL A   1      37.303 -36.424 -29.332  0.00  0.00    -0.226 OA
ATOM     21  H   UNL A   1      37.615 -35.463 -32.309  0.00  0.00    +0.000 HD
BRANCH  18  27
ATOM     22  C   UNL A   1      42.088 -38.454 -30.328  0.00  0.00    -0.040 C 
ATOM     23  C   UNL A   1      41.413 -37.265 -30.946  0.00  0.00    -0.049 A 
ATOM     24  C   UNL A   1      42.173 -36.258 -31.550  0.00  0.00    -0.059 A 
ATOM     25  C   UNL A   1      41.546 -35.146 -32.107  0.00  0.00    -0.060 A 
ATOM     26  C   UNL A   1      40.156 -35.030 -32.059  0.00  0.00    -0.040 A 
ATOM     27  C   UNL A   1      39.378 -36.020 -31.445  0.00  0.00    +0.037 A 
ATOM     28  C   UNL A   1      40.016 -37.129 -30.884  0.00  0.00    -0.037 A 
ENDBRANCH  18  27
ENDBRANCH  17  19
ENDBRANCH   1  17
TORSDOF 3
ENDMDL
MODEL 4
REMARK VINA RESULT:    -8.022     33.945     36.635
REMARK INTER + INTRA:          -9.941
REMARK INTER:                  -9.524
REMARK INTRA:                  -0.417
REMARK UNBOUND:                -0.511
REMARK  Name = cpd254.pdb
REMARK  7 active torsions:
REMARK  status: ('A' for Active; 'I' for Inactive)
REMARK    1  A    between atoms: C_1  and  C_2
REMARK    2  A    between atoms: C_6  and  N_7
REMARK    3  A    between atoms: C_8  and  O_10
REMARK    4  A    between atoms: O_10  and  C_11
REMARK    5  A    between atoms: C_17  and  C_18
REMARK    6  A    between atoms: N_21  and  C_22
REMARK    7  A    between atoms: N_25  and  C_26
REMARK                            x       y       z     vdW  Elec       q    Type
REMARK                         _______ _______ _______ _____ _____    ______ ____
ROOT
ATOM      1  C   UNL A   1      62.657 -20.291  -9.365  0.00  0.00    +0.134 A 
ATOM      2  C   UNL A   1      62.799 -19.641  -8.135  0.00  0.00    -0.017 A 
ATOM      3  C   UNL A   1      63.057 -20.388  -6.985  0.00  0.00    -0.037 A 
ATOM      4  C   UNL A   1      63.094 -21.775  -7.063  0.00  0.00    +0.032 A 
ATOM      5  C   UNL A   1      62.899 -22.407  -8.286  0.00  0.00    -0.017 A 
ATOM      6  C   UNL A   1      62.694 -21.682  -9.455  0.00  0.00    -0.014 A 
ATOM      7  C   UNL A   1      62.974 -23.891  -8.075  0.00  0.00    +0.002 C 
ATOM      8  C   UNL A   1      61.874 -24.624  -8.856  0.00  0.00    -0.055 C 
ATOM      9  C   UNL A   1      64.368 -24.399  -8.373  0.00  0.00    -0.054 C 
ATOM     10  C   UNL A   1      64.444 -25.636  -7.542  0.00  0.00    -0.048 C 
ATOM     11  N   UNL A   1      63.696 -25.341  -6.266  0.00  0.00    +0.433 N 
ATOM     12  C   UNL A   1      64.696 -25.091  -5.165  0.00  0.00    -0.060 C 
ATOM     13  O   UNL A   1      62.956 -26.468  -5.929  0.00  0.00    -0.289 OA
ATOM     14  C   UNL A   1      62.683 -24.081  -6.485  0.00  0.00    +0.039 C 
ATOM     15  N   UNL A   1      63.357 -22.690  -6.022  0.00  0.00    -0.341 N 
ATOM     16  C   UNL A   1      63.000 -22.182  -4.687  0.00  0.00    -0.001 C 
ENDROOT
BRANCH   1  17
ATOM     17  O   UNL A   1      62.399 -19.579 -10.563  0.00  0.00    -0.411 OA
BRANCH  17  19
ATOM     18  N   UNL A   1      60.074 -19.569 -10.718  0.00  0.00    -0.251 N 
ATOM     19  C   UNL A   1      61.232 -18.827 -10.801  0.00  0.00    +0.410 C 
ATOM     20  O   UNL A   1      61.318 -17.623 -11.008  0.00  0.00    -0.226 OA
ATOM     21  H   UNL A   1      60.162 -20.466 -10.322  0.00  0.00    +0.000 HD
BRANCH  18  27
ATOM     22  C   UNL A   1      56.111 -19.994 -13.731  0.00  0.00    -0.040 C 
ATOM     23  C   UNL A   1      56.802 -19.397 -12.540  0.00  0.00    -0.049 A 
ATOM     24  C   UNL A   1      56.152 -18.439 -11.756  0.00  0.00    -0.059 A 
ATOM     25  C   UNL A   1      56.800 -17.871 -10.661  0.00  0.00    -0.060 A 
ATOM     26  C   UNL A   1      58.106 -18.253 -10.348  0.00  0.00    -0.040 A 
ATOM     27  C   UNL A   1      58.780 -19.199 -11.130  0.00  0.00    +0.037 A 
ATOM     28  C   UNL A   1      58.124 -19.759 -12.229  0.00  0.00    -0.037 A 
ENDBRANCH  18  27
ENDBRANCH  17  19
ENDBRANCH   1  17
TORSDOF 3
ENDMDL
MODEL 5
REMARK VINA RESULT:    -7.609     16.397     19.666
REMARK INTER + INTRA:          -9.455
REMARK INTER:                  -8.967
REMARK INTRA:                  -0.488
REMARK UNBOUND:                -0.511
REMARK  Name = cpd254.pdb
REMARK  7 active torsions:
REMARK  status: ('A' for Active; 'I' for Inactive)
REMARK    1  A    between atoms: C_1  and  C_2
REMARK    2  A    between atoms: C_6  and  N_7
REMARK    3  A    between atoms: C_8  and  O_10
REMARK    4  A    between atoms: O_10  and  C_11
REMARK    5  A    between atoms: C_17  and  C_18
REMARK    6  A    between atoms: N_21  and  C_22
REMARK    7  A    between atoms: N_25  and  C_26
REMARK                            x       y       z     vdW  Elec       q    Type
REMARK                         _______ _______ _______ _____ _____    ______ ____
ROOT
ATOM      1  C   UNL A   1      41.454 -22.177 -39.056  0.00  0.00    +0.134 A 
ATOM      2  C   UNL A   1      41.229 -22.187 -40.436  0.00  0.00    -0.017 A 
ATOM      3  C   UNL A   1      42.180 -21.637 -41.296  0.00  0.00    -0.037 A 
ATOM      4  C   UNL A   1      43.305 -21.016 -40.765  0.00  0.00    +0.032 A 
ATOM      5  C   UNL A   1      43.486 -20.968 -39.387  0.00  0.00    -0.017 A 
ATOM      6  C   UNL A   1      42.579 -21.557 -38.512  0.00  0.00    -0.014 A 
ATOM      7  C   UNL A   1      44.761 -20.232 -39.097  0.00  0.00    +0.002 C 
ATOM      8  C   UNL A   1      44.591 -19.258 -37.922  0.00  0.00    -0.055 C 
ATOM      9  C   UNL A   1      45.906 -21.204 -38.914  0.00  0.00    -0.054 C 
ATOM     10  C   UNL A   1      47.092 -20.377 -39.280  0.00  0.00    -0.048 C 
ATOM     11  N   UNL A   1      46.658 -19.484 -40.415  0.00  0.00    +0.433 N 
ATOM     12  C   UNL A   1      47.218 -20.033 -41.704  0.00  0.00    -0.060 C 
ATOM     13  O   UNL A   1      47.208 -18.224 -40.209  0.00  0.00    -0.289 OA
ATOM     14  C   UNL A   1      45.031 -19.361 -40.446  0.00  0.00    +0.039 C 
ATOM     15  N   UNL A   1      44.375 -20.423 -41.467  0.00  0.00    -0.341 N 
ATOM     16  C   UNL A   1      44.001 -19.929 -42.803  0.00  0.00    -0.001 C 
ENDROOT
BRANCH   1  17
ATOM     17  O   UNL A   1      40.521 -22.727 -38.141  0.00  0.00    -0.411 OA
BRANCH  17  19
ATOM     18  N   UNL A   1      40.075 -22.377 -35.881  0.00  0.00    -0.251 N 
ATOM     19  C   UNL A   1      39.822 -21.977 -37.175  0.00  0.00    +0.410 C 
ATOM     20  O   UNL A   1      39.114 -21.043 -37.529  0.00  0.00    -0.226 OA
ATOM     21  H   UNL A   1      40.836 -22.988 -35.758  0.00  0.00    +0.000 HD
BRANCH  18  27
ATOM     22  C   UNL A   1      39.133 -19.274 -32.080  0.00  0.00    -0.040 C 
ATOM     23  C   UNL A   1      38.843 -20.518 -32.868  0.00  0.00    -0.049 A 
ATOM     24  C   UNL A   1      37.813 -21.378 -32.472  0.00  0.00    -0.059 A 
ATOM     25  C   UNL A   1      37.556 -22.542 -33.193  0.00  0.00    -0.060 A 
ATOM     26  C   UNL A   1      38.331 -22.857 -34.311  0.00  0.00    -0.040 A 
ATOM     27  C   UNL A   1      39.375 -22.017 -34.715  0.00  0.00    +0.037 A 
ATOM     28  C   UNL A   1      39.630 -20.854 -33.982  0.00  0.00    -0.037 A 
ENDBRANCH  18  27
ENDBRANCH  17  19
ENDBRANCH   1  17
TORSDOF 3
ENDMDL
MODEL 6
REMARK VINA RESULT:    -7.470      2.546      3.923
REMARK INTER + INTRA:          -9.291
REMARK INTER:                  -9.315
REMARK INTRA:                   0.024
REMARK UNBOUND:                -0.511
REMARK  Name = cpd254.pdb
REMARK  7 active torsions:
REMARK  status: ('A' for Active; 'I' for Inactive)
REMARK    1  A    between atoms: C_1  and  C_2
REMARK    2  A    between atoms: C_6  and  N_7
REMARK    3  A    between atoms: C_8  and  O_10
REMARK    4  A    between atoms: O_10  and  C_11
REMARK    5  A    between atoms: C_17  and  C_18
REMARK    6  A    between atoms: N_21  and  C_22
REMARK    7  A    between atoms: N_25  and  C_26
REMARK                            x       y       z     vdW  Elec       q    Type
REMARK                         _______ _______ _______ _____ _____    ______ ____
ROOT
ATOM      1  C   UNL A   1      34.276 -34.350 -31.254  0.00  0.00    +0.134 A 
ATOM      2  C   UNL A   1      34.585 -33.065 -30.797  0.00  0.00    -0.017 A 
ATOM      3  C   UNL A   1      33.556 -32.170 -30.505  0.00  0.00    -0.037 A 
ATOM      4  C   UNL A   1      32.238 -32.539 -30.745  0.00  0.00    +0.032 A 
ATOM      5  C   UNL A   1      31.953 -33.803 -31.249  0.00  0.00    -0.017 A 
ATOM      6  C   UNL A   1      32.957 -34.733 -31.497  0.00  0.00    -0.014 A 
ATOM      7  C   UNL A   1      30.467 -33.924 -31.425  0.00  0.00    +0.002 C 
ATOM      8  C   UNL A   1      30.114 -34.606 -32.755  0.00  0.00    -0.055 C 
ATOM      9  C   UNL A   1      29.842 -34.592 -30.219  0.00  0.00    -0.054 C 
ATOM     10  C   UNL A   1      28.446 -34.067 -30.249  0.00  0.00    -0.048 C 
ATOM     11  N   UNL A   1      28.536 -32.636 -30.714  0.00  0.00    +0.433 N 
ATOM     12  C   UNL A   1      28.364 -31.727 -29.522  0.00  0.00    -0.060 C 
ATOM     13  O   UNL A   1      27.484 -32.399 -31.591  0.00  0.00    -0.289 OA
ATOM     14  C   UNL A   1      29.949 -32.382 -31.490  0.00  0.00    +0.039 C 
ATOM     15  N   UNL A   1      31.072 -31.785 -30.499  0.00  0.00    -0.341 N 
ATOM     16  C   UNL A   1      31.295 -30.329 -30.535  0.00  0.00    -0.001 C 
ENDROOT
BRANCH   1  17
ATOM     17  O   UNL A   1      35.285 -35.299 -31.560  0.00  0.00    -0.411 OA
BRANCH  17  19
ATOM     18  N   UNL A   1      37.555 -35.766 -31.320  0.00  0.00    -0.251 N 
ATOM     19  C   UNL A   1      36.336 -35.646 -30.689  0.00  0.00    +0.410 C 
ATOM     20  O   UNL A   1      36.116 -35.765 -29.490  0.00  0.00    -0.226 OA
ATOM     21  H   UNL A   1      37.602 -35.419 -32.239  0.00  0.00    +0.000 HD
BRANCH  18  27
ATOM     22  C   UNL A   1      42.534 -36.032 -31.005  0.00  0.00    -0.040 C 
ATOM     23  C   UNL A   1      41.162 -36.469 -30.581  0.00  0.00    -0.049 A 
ATOM     24  C   UNL A   1      41.009 -37.463 -29.609  0.00  0.00    -0.059 A 
ATOM     25  C   UNL A   1      39.736 -37.880 -29.229  0.00  0.00    -0.060 A 
ATOM     26  C   UNL A   1      38.607 -37.312 -29.823  0.00  0.00    -0.040 A 
ATOM     27  C   UNL A   1      38.740 -36.326 -30.808  0.00  0.00    +0.037 A 
ATOM     28  C   UNL A   1      40.021 -35.917 -31.188  0.00  0.00    -0.037 A 
ENDBRANCH  18  27
ENDBRANCH  17  19
ENDBRANCH   1  17
TORSDOF 3
ENDMDL
MODEL 7
REMARK VINA RESULT:    -7.315      1.828      2.742
REMARK INTER + INTRA:          -9.109
REMARK INTER:                  -8.650
REMARK INTRA:                  -0.459
REMARK UNBOUND:                -0.511
REMARK  Name = cpd254.pdb
REMARK  7 active torsions:
REMARK  status: ('A' for Active; 'I' for Inactive)
REMARK    1  A    between atoms: C_1  and  C_2
REMARK    2  A    between atoms: C_6  and  N_7
REMARK    3  A    between atoms: C_8  and  O_10
REMARK    4  A    between atoms: O_10  and  C_11
REMARK    5  A    between atoms: C_17  and  C_18
REMARK    6  A    between atoms: N_21  and  C_22
REMARK    7  A    between atoms: N_25  and  C_26
REMARK                            x       y       z     vdW  Elec       q    Type
REMARK                         _______ _______ _______ _____ _____    ______ ____
ROOT
ATOM      1  C   UNL A   1      33.938 -37.071 -29.706  0.00  0.00    +0.134 A 
ATOM      2  C   UNL A   1      33.436 -37.412 -30.966  0.00  0.00    -0.017 A 
ATOM      3  C   UNL A   1      32.523 -36.566 -31.597  0.00  0.00    -0.037 A 
ATOM      4  C   UNL A   1      32.064 -35.436 -30.932  0.00  0.00    +0.032 A 
ATOM      5  C   UNL A   1      32.535 -35.141 -29.658  0.00  0.00    -0.017 A 
ATOM      6  C   UNL A   1      33.487 -35.938 -29.030  0.00  0.00    -0.014 A 
ATOM      7  C   UNL A   1      31.866 -33.886 -29.178  0.00  0.00    +0.002 C 
ATOM      8  C   UNL A   1      31.435 -34.007 -27.709  0.00  0.00    -0.055 C 
ATOM      9  C   UNL A   1      32.737 -32.680 -29.455  0.00  0.00    -0.054 C 
ATOM     10  C   UNL A   1      31.739 -31.575 -29.537  0.00  0.00    -0.048 C 
ATOM     11  N   UNL A   1      30.517 -32.149 -30.208  0.00  0.00    +0.433 N 
ATOM     12  C   UNL A   1      30.481 -31.672 -31.639  0.00  0.00    -0.060 C 
ATOM     13  O   UNL A   1      29.394 -31.651 -29.560  0.00  0.00    -0.289 OA
ATOM     14  C   UNL A   1      30.525 -33.777 -30.095  0.00  0.00    +0.039 C 
ATOM     15  N   UNL A   1      31.162 -34.461 -31.409  0.00  0.00    -0.341 N 
ATOM     16  C   UNL A   1      30.225 -34.973 -32.423  0.00  0.00    -0.001 C 
ENDROOT
BRANCH   1  17
ATOM     17  O   UNL A   1      34.872 -37.893 -29.025  0.00  0.00    -0.411 OA
BRANCH  17  19
ATOM     18  N   UNL A   1      37.147 -37.421 -29.199  0.00  0.00    -0.251 N 
ATOM     19  C   UNL A   1      36.123 -38.273 -29.550  0.00  0.00    +0.410 C 
ATOM     20  O   UNL A   1      36.217 -39.303 -30.206  0.00  0.00    -0.226 OA
ATOM     21  H   UNL A   1      36.946 -36.773 -28.486  0.00  0.00    +0.000 HD
BRANCH  18  27
ATOM     22  C   UNL A   1      40.446 -35.873 -32.617  0.00  0.00    -0.040 C 
ATOM     23  C   UNL A   1      40.106 -36.601 -31.350  0.00  0.00    -0.049 A 
ATOM     24  C   UNL A   1      41.108 -37.250 -30.621  0.00  0.00    -0.059 A 
ATOM     25  C   UNL A   1      40.789 -37.942 -29.454  0.00  0.00    -0.060 A 
ATOM     26  C   UNL A   1      39.465 -37.995 -29.013  0.00  0.00    -0.040 A 
ATOM     27  C   UNL A   1      38.446 -37.365 -29.737  0.00  0.00    +0.037 A 
ATOM     28  C   UNL A   1      38.774 -36.678 -30.909  0.00  0.00    -0.037 A 
ENDBRANCH  18  27
ENDBRANCH  17  19
ENDBRANCH   1  17
TORSDOF 3
ENDMDL
MODEL 8
REMARK VINA RESULT:    -7.280     16.562     19.917
REMARK INTER + INTRA:          -9.068
REMARK INTER:                  -8.733
REMARK INTRA:                  -0.335
REMARK UNBOUND:                -0.511
REMARK  Name = cpd254.pdb
REMARK  7 active torsions:
REMARK  status: ('A' for Active; 'I' for Inactive)
REMARK    1  A    between atoms: C_1  and  C_2
REMARK    2  A    between atoms: C_6  and  N_7
REMARK    3  A    between atoms: C_8  and  O_10
REMARK    4  A    between atoms: O_10  and  C_11
REMARK    5  A    between atoms: C_17  and  C_18
REMARK    6  A    between atoms: N_21  and  C_22
REMARK    7  A    between atoms: N_25  and  C_26
REMARK                            x       y       z     vdW  Elec       q    Type
REMARK                         _______ _______ _______ _____ _____    ______ ____
ROOT
ATOM      1  C   UNL A   1      41.931 -19.302 -37.924  0.00  0.00    +0.134 A 
ATOM      2  C   UNL A   1      43.039 -19.377 -37.074  0.00  0.00    -0.017 A 
ATOM      3  C   UNL A   1      44.264 -19.819 -37.574  0.00  0.00    -0.037 A 
ATOM      4  C   UNL A   1      44.349 -20.253 -38.892  0.00  0.00    +0.032 A 
ATOM      5  C   UNL A   1      43.224 -20.221 -39.708  0.00  0.00    -0.017 A 
ATOM      6  C   UNL A   1      42.005 -19.733 -39.248  0.00  0.00    -0.014 A 
ATOM      7  C   UNL A   1      43.596 -20.757 -41.059  0.00  0.00    +0.002 C 
ATOM      8  C   UNL A   1      42.514 -21.699 -41.606  0.00  0.00    -0.055 C 
ATOM      9  C   UNL A   1      43.944 -19.625 -42.002  0.00  0.00    -0.054 C 
ATOM     10  C   UNL A   1      44.855 -20.288 -42.979  0.00  0.00    -0.048 C 
ATOM     11  N   UNL A   1      45.679 -21.277 -42.194  0.00  0.00    +0.433 N 
ATOM     12  C   UNL A   1      47.061 -20.705 -41.992  0.00  0.00    -0.060 C 
ATOM     13  O   UNL A   1      45.800 -22.437 -42.949  0.00  0.00    -0.289 OA
ATOM     14  C   UNL A   1      44.941 -21.631 -40.782  0.00  0.00    +0.039 C 
ATOM     15  N   UNL A   1      45.494 -20.714 -39.576  0.00  0.00    -0.341 N 
ATOM     16  C   UNL A   1      46.509 -21.308 -38.690  0.00  0.00    -0.001 C 
ENDROOT
BRANCH   1  17
ATOM     17  O   UNL A   1      40.665 -18.855 -37.466  0.00  0.00    -0.411 OA
BRANCH  17  19
ATOM     18  N   UNL A   1      39.419 -19.622 -35.653  0.00  0.00    -0.251 N 
ATOM     19  C   UNL A   1      39.642 -19.708 -37.010  0.00  0.00    +0.410 C 
ATOM     20  O   UNL A   1      39.022 -20.395 -37.812  0.00  0.00    -0.226 OA
ATOM     21  H   UNL A   1      39.843 -18.863 -35.192  0.00  0.00    +0.000 HD
BRANCH  18  27
ATOM     22  C   UNL A   1      38.247 -24.168 -33.943  0.00  0.00    -0.040 C 
ATOM     23  C   UNL A   1      38.077 -22.677 -33.944  0.00  0.00    -0.049 A 
ATOM     24  C   UNL A   1      37.144 -22.074 -33.094  0.00  0.00    -0.059 A 
ATOM     25  C   UNL A   1      36.974 -20.692 -33.108  0.00  0.00    -0.060 A 
ATOM     26  C   UNL A   1      37.731 -19.903 -33.977  0.00  0.00    -0.040 A 
ATOM     27  C   UNL A   1      38.659 -20.489 -34.846  0.00  0.00    +0.037 A 
ATOM     28  C   UNL A   1      38.819 -21.877 -34.829  0.00  0.00    -0.037 A 
ENDBRANCH  18  27
ENDBRANCH  17  19
ENDBRANCH   1  17
TORSDOF 3
ENDMDL
MODEL 9
REMARK VINA RESULT:    -7.238     25.321     28.521
REMARK INTER + INTRA:          -9.019
REMARK INTER:                  -8.640
REMARK INTRA:                  -0.379
REMARK UNBOUND:                -0.511
REMARK  Name = cpd254.pdb
REMARK  7 active torsions:
REMARK  status: ('A' for Active; 'I' for Inactive)
REMARK    1  A    between atoms: C_1  and  C_2
REMARK    2  A    between atoms: C_6  and  N_7
REMARK    3  A    between atoms: C_8  and  O_10
REMARK    4  A    between atoms: O_10  and  C_11
REMARK    5  A    between atoms: C_17  and  C_18
REMARK    6  A    between atoms: N_21  and  C_22
REMARK    7  A    between atoms: N_25  and  C_26
REMARK                            x       y       z     vdW  Elec       q    Type
REMARK                         _______ _______ _______ _____ _____    ______ ____
ROOT
ATOM      1  C   UNL A   1      47.236 -31.430 -53.383  0.00  0.00    +0.134 A 
ATOM      2  C   UNL A   1      47.364 -30.158 -52.817  0.00  0.00    -0.017 A 
ATOM      3  C   UNL A   1      47.414 -29.036 -53.645  0.00  0.00    -0.037 A 
ATOM      4  C   UNL A   1      47.413 -29.202 -55.025  0.00  0.00    +0.032 A 
ATOM      5  C   UNL A   1      47.338 -30.479 -55.569  0.00  0.00    -0.017 A 
ATOM      6  C   UNL A   1      47.233 -31.609 -54.766  0.00  0.00    -0.014 A 
ATOM      7  C   UNL A   1      47.372 -30.364 -57.065  0.00  0.00    +0.002 C 
ATOM      8  C   UNL A   1      48.284 -31.430 -57.689  0.00  0.00    -0.055 C 
ATOM      9  C   UNL A   1      45.968 -30.364 -57.630  0.00  0.00    -0.054 C 
ATOM     10  C   UNL A   1      46.138 -29.630 -58.917  0.00  0.00    -0.048 C 
ATOM     11  N   UNL A   1      47.154 -28.546 -58.660  0.00  0.00    +0.433 N 
ATOM     12  C   UNL A   1      46.434 -27.226 -58.532  0.00  0.00    -0.060 C 
ATOM     13  O   UNL A   1      47.996 -28.471 -59.764  0.00  0.00    -0.289 OA
ATOM     14  C   UNL A   1      48.038 -28.903 -57.335  0.00  0.00    +0.039 C 
ATOM     15  N   UNL A   1      47.439 -28.198 -56.015  0.00  0.00    -0.341 N 
ATOM     16  C   UNL A   1      48.082 -26.949 -55.569  0.00  0.00    -0.001 C 
ENDROOT
BRANCH   1  17
ATOM     17  O   UNL A   1      47.177 -32.601 -52.585  0.00  0.00    -0.411 OA
BRANCH  17  19
ATOM     18  N   UNL A   1      45.864 -34.349 -53.391  0.00  0.00    -0.251 N 
ATOM     19  C   UNL A   1      47.138 -33.911 -53.103  0.00  0.00    +0.410 C 
ATOM     20  O   UNL A   1      48.183 -34.518 -53.295  0.00  0.00    -0.226 OA
ATOM     21  H   UNL A   1      45.159 -33.662 -53.393  0.00  0.00    +0.000 HD
BRANCH  18  27
ATOM     22  C   UNL A   1      44.534 -37.948 -56.591  0.00  0.00    -0.040 C 
ATOM     23  C   UNL A   1      44.837 -37.467 -55.203  0.00  0.00    -0.049 A 
ATOM     24  C   UNL A   1      44.741 -38.343 -54.117  0.00  0.00    -0.059 A 
ATOM     25  C   UNL A   1      45.006 -37.891 -52.826  0.00  0.00    -0.060 A 
ATOM     26  C   UNL A   1      45.361 -36.558 -52.612  0.00  0.00    -0.040 A 
ATOM     27  C   UNL A   1      45.448 -35.661 -53.684  0.00  0.00    +0.037 A 
ATOM     28  C   UNL A   1      45.176 -36.122 -54.975  0.00  0.00    -0.037 A 
ENDBRANCH  18  27
ENDBRANCH  17  19
ENDBRANCH   1  17
TORSDOF 3
ENDMDL
MODEL 10
REMARK VINA RESULT:    -7.204     16.157     18.667
REMARK INTER + INTRA:          -8.978
REMARK INTER:                  -8.691
REMARK INTRA:                  -0.288
REMARK UNBOUND:                -0.511
REMARK  Name = cpd254.pdb
REMARK  7 active torsions:
REMARK  status: ('A' for Active; 'I' for Inactive)
REMARK    1  A    between atoms: C_1  and  C_2
REMARK    2  A    between atoms: C_6  and  N_7
REMARK    3  A    between atoms: C_8  and  O_10
REMARK    4  A    between atoms: O_10  and  C_11
REMARK    5  A    between atoms: C_17  and  C_18
REMARK    6  A    between atoms: N_21  and  C_22
REMARK    7  A    between atoms: N_25  and  C_26
REMARK                            x       y       z     vdW  Elec       q    Type
REMARK                         _______ _______ _______ _____ _____    ______ ____
ROOT
ATOM      1  C   UNL A   1      42.596 -19.789 -38.190  0.00  0.00    +0.134 A 
ATOM      2  C   UNL A   1      41.717 -20.654 -38.850  0.00  0.00    -0.017 A 
ATOM      3  C   UNL A   1      40.745 -21.340 -38.120  0.00  0.00    -0.037 A 
ATOM      4  C   UNL A   1      40.713 -21.215 -36.737  0.00  0.00    +0.032 A 
ATOM      5  C   UNL A   1      41.629 -20.391 -36.092  0.00  0.00    -0.017 A 
ATOM      6  C   UNL A   1      42.572 -19.655 -36.802  0.00  0.00    -0.014 A 
ATOM      7  C   UNL A   1      41.376 -20.459 -34.614  0.00  0.00    +0.002 C 
ATOM      8  C   UNL A   1      42.690 -20.554 -33.825  0.00  0.00    -0.055 C 
ATOM      9  C   UNL A   1      40.489 -19.314 -34.175  0.00  0.00    -0.054 C 
ATOM     10  C   UNL A   1      39.844 -19.861 -32.946  0.00  0.00    -0.048 C 
ATOM     11  N   UNL A   1      39.598 -21.325 -33.206  0.00  0.00    +0.433 N 
ATOM     12  C   UNL A   1      38.133 -21.524 -33.509  0.00  0.00    -0.060 C 
ATOM     13  O   UNL A   1      39.897 -22.028 -32.045  0.00  0.00    -0.289 OA
ATOM     14  C   UNL A   1      40.560 -21.853 -34.415  0.00  0.00    +0.039 C 
ATOM     15  N   UNL A   1      39.803 -21.811 -35.838  0.00  0.00    -0.341 N 
ATOM     16  C   UNL A   1      39.229 -23.074 -36.332  0.00  0.00    -0.001 C 
ENDROOT
BRANCH   1  17
ATOM     17  O   UNL A   1      43.597 -19.066 -38.885  0.00  0.00    -0.411 OA
BRANCH  17  19
ATOM     18  N   UNL A   1      44.902 -20.809 -39.716  0.00  0.00    -0.251 N 
ATOM     19  C   UNL A   1      44.336 -19.578 -39.970  0.00  0.00    +0.410 C 
ATOM     20  O   UNL A   1      44.384 -18.952 -41.021  0.00  0.00    -0.226 OA
ATOM     21  H   UNL A   1      44.582 -21.274 -38.910  0.00  0.00    +0.000 HD
BRANCH  18  27
ATOM     22  C   UNL A   1      49.543 -22.534 -40.385  0.00  0.00    -0.040 C 
ATOM     23  C   UNL A   1      48.117 -22.384 -40.828  0.00  0.00    -0.049 A 
ATOM     24  C   UNL A   1      47.691 -22.948 -42.035  0.00  0.00    -0.059 A 
ATOM     25  C   UNL A   1      46.372 -22.793 -42.455  0.00  0.00    -0.060 A 
ATOM     26  C   UNL A   1      45.471 -22.066 -41.674  0.00  0.00    -0.040 A 
ATOM     27  C   UNL A   1      45.882 -21.480 -40.470  0.00  0.00    +0.037 A 
ATOM     28  C   UNL A   1      47.208 -21.637 -40.059  0.00  0.00    -0.037 A 
ENDBRANCH  18  27
ENDBRANCH  17  19
ENDBRANCH   1  17
TORSDOF 3
ENDMDL
MODEL 11
REMARK VINA RESULT:    -7.161     16.506     19.078
REMARK INTER + INTRA:          -8.928
REMARK INTER:                  -8.401
REMARK INTRA:                  -0.527
REMARK UNBOUND:                -0.511
REMARK  Name = cpd254.pdb
REMARK  7 active torsions:
REMARK  status: ('A' for Active; 'I' for Inactive)
REMARK    1  A    between atoms: C_1  and  C_2
REMARK    2  A    between atoms: C_6  and  N_7
REMARK    3  A    between atoms: C_8  and  O_10
REMARK    4  A    between atoms: O_10  and  C_11
REMARK    5  A    between atoms: C_17  and  C_18
REMARK    6  A    between atoms: N_21  and  C_22
REMARK    7  A    between atoms: N_25  and  C_26
REMARK                            x       y       z     vdW  Elec       q    Type
REMARK                         _______ _______ _______ _____ _____    ______ ____
ROOT
ATOM      1  C   UNL A   1      42.959 -19.063 -38.255  0.00  0.00    +0.134 A 
ATOM      2  C   UNL A   1      43.817 -18.559 -37.272  0.00  0.00    -0.017 A 
ATOM      3  C   UNL A   1      43.618 -18.909 -35.936  0.00  0.00    -0.037 A 
ATOM      4  C   UNL A   1      42.523 -19.693 -35.589  0.00  0.00    +0.032 A 
ATOM      5  C   UNL A   1      41.651 -20.142 -36.575  0.00  0.00    -0.017 A 
ATOM      6  C   UNL A   1      41.859 -19.851 -37.919  0.00  0.00    -0.014 A 
ATOM      7  C   UNL A   1      40.563 -20.944 -35.922  0.00  0.00    +0.002 C 
ATOM      8  C   UNL A   1      39.187 -20.608 -36.515  0.00  0.00    -0.055 C 
ATOM      9  C   UNL A   1      40.895 -22.420 -35.963  0.00  0.00    -0.054 C 
ATOM     10  C   UNL A   1      40.135 -22.952 -34.795  0.00  0.00    -0.048 C 
ATOM     11  N   UNL A   1      40.211 -21.900 -33.718  0.00  0.00    +0.433 N 
ATOM     12  C   UNL A   1      41.216 -22.339 -32.681  0.00  0.00    -0.060 C 
ATOM     13  O   UNL A   1      38.967 -21.818 -33.104  0.00  0.00    -0.289 OA
ATOM     14  C   UNL A   1      40.584 -20.451 -34.371  0.00  0.00    +0.039 C 
ATOM     15  N   UNL A   1      42.169 -20.161 -34.307  0.00  0.00    -0.341 N 
ATOM     16  C   UNL A   1      42.652 -19.301 -33.213  0.00  0.00    -0.001 C 
ENDROOT
BRANCH   1  17
ATOM     17  O   UNL A   1      43.121 -18.741 -39.626  0.00  0.00    -0.411 OA
BRANCH  17  19
ATOM     18  N   UNL A   1      44.188 -20.585 -40.569  0.00  0.00    -0.251 N 
ATOM     19  C   UNL A   1      44.175 -19.214 -40.431  0.00  0.00    +0.410 C 
ATOM     20  O   UNL A   1      44.938 -18.417 -40.963  0.00  0.00    -0.226 OA
ATOM     21  H   UNL A   1      43.380 -21.058 -40.267  0.00  0.00    +0.000 HD
BRANCH  18  27
ATOM     22  C   UNL A   1      48.598 -22.903 -40.189  0.00  0.00    -0.040 C 
ATOM     23  C   UNL A   1      47.340 -22.580 -40.941  0.00  0.00    -0.049 A 
ATOM     24  C   UNL A   1      47.129 -23.108 -42.219  0.00  0.00    -0.059 A 
ATOM     25  C   UNL A   1      45.970 -22.793 -42.925  0.00  0.00    -0.060 A 
ATOM     26  C   UNL A   1      45.017 -21.942 -42.360  0.00  0.00    -0.040 A 
ATOM     27  C   UNL A   1      45.218 -21.391 -41.089  0.00  0.00    +0.037 A 
ATOM     28  C   UNL A   1      46.386 -21.708 -40.390  0.00  0.00    -0.037 A 
ENDBRANCH  18  27
ENDBRANCH  17  19
ENDBRANCH   1  17
TORSDOF 3
ENDMDL
MODEL 12
REMARK VINA RESULT:    -7.022     16.065     18.550
REMARK INTER + INTRA:          -8.764
REMARK INTER:                  -8.412
REMARK INTRA:                  -0.352
REMARK UNBOUND:                -0.511
REMARK  Name = cpd254.pdb
REMARK  7 active torsions:
REMARK  status: ('A' for Active; 'I' for Inactive)
REMARK    1  A    between atoms: C_1  and  C_2
REMARK    2  A    between atoms: C_6  and  N_7
REMARK    3  A    between atoms: C_8  and  O_10
REMARK    4  A    between atoms: O_10  and  C_11
REMARK    5  A    between atoms: C_17  and  C_18
REMARK    6  A    between atoms: N_21  and  C_22
REMARK    7  A    between atoms: N_25  and  C_26
REMARK                            x       y       z     vdW  Elec       q    Type
REMARK                         _______ _______ _______ _____ _____    ______ ____
ROOT
ATOM      1  C   UNL A   1      41.217 -20.497 -38.628  0.00  0.00    +0.134 A 
ATOM      2  C   UNL A   1      40.647 -19.221 -38.674  0.00  0.00    -0.017 A 
ATOM      3  C   UNL A   1      39.819 -18.796 -37.634  0.00  0.00    -0.037 A 
ATOM      4  C   UNL A   1      39.509 -19.675 -36.603  0.00  0.00    +0.032 A 
ATOM      5  C   UNL A   1      40.044 -20.958 -36.600  0.00  0.00    -0.017 A 
ATOM      6  C   UNL A   1      40.915 -21.387 -37.597  0.00  0.00    -0.014 A 
ATOM      7  C   UNL A   1      39.534 -21.687 -35.392  0.00  0.00    +0.002 C 
ATOM      8  C   UNL A   1      39.130 -23.129 -35.735  0.00  0.00    -0.055 C 
ATOM      9  C   UNL A   1      40.529 -21.593 -34.256  0.00  0.00    -0.054 C 
ATOM     10  C   UNL A   1      39.661 -21.758 -33.054  0.00  0.00    -0.048 C 
ATOM     11  N   UNL A   1      38.365 -21.051 -33.360  0.00  0.00    +0.433 N 
ATOM     12  C   UNL A   1      38.346 -19.733 -32.627  0.00  0.00    -0.060 C 
ATOM     13  O   UNL A   1      37.322 -21.830 -32.874  0.00  0.00    -0.289 OA
ATOM     14  C   UNL A   1      38.191 -20.868 -34.973  0.00  0.00    +0.039 C 
ATOM     15  N   UNL A   1      38.712 -19.424 -35.466  0.00  0.00    -0.341 N 
ATOM     16  C   UNL A   1      37.697 -18.379 -35.679  0.00  0.00    -0.001 C 
ENDROOT
BRANCH   1  17
ATOM     17  O   UNL A   1      42.069 -20.975 -39.656  0.00  0.00    -0.411 OA
BRANCH  17  19
ATOM     18  N   UNL A   1      44.030 -20.962 -40.914  0.00  0.00    -0.251 N 
ATOM     19  C   UNL A   1      43.468 -20.813 -39.664  0.00  0.00    +0.410 C 
ATOM     20  O   UNL A   1      44.050 -20.521 -38.628  0.00  0.00    -0.226 OA
ATOM     21  H   UNL A   1      43.403 -20.970 -41.672  0.00  0.00    +0.000 HD
BRANCH  18  27
ATOM     22  C   UNL A   1      47.994 -23.715 -42.205  0.00  0.00    -0.040 C 
ATOM     23  C   UNL A   1      47.349 -22.393 -41.910  0.00  0.00    -0.049 A 
ATOM     24  C   UNL A   1      48.098 -21.214 -41.974  0.00  0.00    -0.059 A 
ATOM     25  C   UNL A   1      47.503 -19.989 -41.683  0.00  0.00    -0.060 A 
ATOM     26  C   UNL A   1      46.155 -19.935 -41.319  0.00  0.00    -0.040 A 
ATOM     27  C   UNL A   1      45.392 -21.106 -41.235  0.00  0.00    +0.037 A 
ATOM     28  C   UNL A   1      45.999 -22.331 -41.524  0.00  0.00    -0.037 A 
ENDBRANCH  18  27
ENDBRANCH  17  19
ENDBRANCH   1  17
TORSDOF 3
ENDMDL
MODEL 13
REMARK VINA RESULT:    -6.995      3.043      5.541
REMARK INTER + INTRA:          -8.733
REMARK INTER:                  -8.487
REMARK INTRA:                  -0.247
REMARK UNBOUND:                -0.511
REMARK  Name = cpd254.pdb
REMARK  7 active torsions:
REMARK  status: ('A' for Active; 'I' for Inactive)
REMARK    1  A    between atoms: C_1  and  C_2
REMARK    2  A    between atoms: C_6  and  N_7
REMARK    3  A    between atoms: C_8  and  O_10
REMARK    4  A    between atoms: O_10  and  C_11
REMARK    5  A    between atoms: C_17  and  C_18
REMARK    6  A    between atoms: N_21  and  C_22
REMARK    7  A    between atoms: N_25  and  C_26
REMARK                            x       y       z     vdW  Elec       q    Type
REMARK                         _______ _______ _______ _____ _____    ______ ____
ROOT
ATOM      1  C   UNL A   1      32.727 -32.566 -31.480  0.00  0.00    +0.134 A 
ATOM      2  C   UNL A   1      32.701 -31.338 -30.813  0.00  0.00    -0.017 A 
ATOM      3  C   UNL A   1      31.508 -30.881 -30.251  0.00  0.00    -0.037 A 
ATOM      4  C   UNL A   1      30.343 -31.616 -30.429  0.00  0.00    +0.032 A 
ATOM      5  C   UNL A   1      30.376 -32.810 -31.140  0.00  0.00    -0.017 A 
ATOM      6  C   UNL A   1      31.563 -33.314 -31.662  0.00  0.00    -0.014 A 
ATOM      7  C   UNL A   1      28.988 -33.378 -31.189  0.00  0.00    +0.002 C 
ATOM      8  C   UNL A   1      28.655 -33.924 -32.585  0.00  0.00    -0.055 C 
ATOM      9  C   UNL A   1      28.789 -34.390 -30.081  0.00  0.00    -0.054 C 
ATOM     10  C   UNL A   1      27.313 -34.349 -29.870  0.00  0.00    -0.048 C 
ATOM     11  N   UNL A   1      26.893 -32.912 -30.053  0.00  0.00    +0.433 N 
ATOM     12  C   UNL A   1      26.643 -32.304 -28.695  0.00  0.00    -0.060 C 
ATOM     13  O   UNL A   1      25.697 -32.897 -30.759  0.00  0.00    -0.289 OA
ATOM     14  C   UNL A   1      28.026 -32.097 -30.900  0.00  0.00    +0.039 C 
ATOM     15  N   UNL A   1      29.056 -31.328 -29.926  0.00  0.00    -0.341 N 
ATOM     16  C   UNL A   1      28.822 -29.892 -29.698  0.00  0.00    -0.001 C 
ENDROOT
BRANCH   1  17
ATOM     17  O   UNL A   1      33.914 -33.077 -32.063  0.00  0.00    -0.411 OA
BRANCH  17  19
ATOM     18  N   UNL A   1      35.502 -34.748 -31.721  0.00  0.00    -0.251 N 
ATOM     19  C   UNL A   1      35.033 -33.513 -31.328  0.00  0.00    +0.410 C 
ATOM     20  O   UNL A   1      35.516 -32.785 -30.470  0.00  0.00    -0.226 OA
ATOM     21  H   UNL A   1      35.145 -35.096 -32.570  0.00  0.00    +0.000 HD
BRANCH  18  27
ATOM     22  C   UNL A   1      40.028 -36.808 -31.241  0.00  0.00    -0.040 C 
ATOM     23  C   UNL A   1      38.632 -36.567 -30.747  0.00  0.00    -0.049 A 
ATOM     24  C   UNL A   1      38.196 -37.150 -29.552  0.00  0.00    -0.059 A 
ATOM     25  C   UNL A   1      36.894 -36.940 -29.103  0.00  0.00    -0.060 A 
ATOM     26  C   UNL A   1      36.017 -36.151 -29.850  0.00  0.00    -0.040 A 
ATOM     27  C   UNL A   1      36.428 -35.572 -31.056  0.00  0.00    +0.037 A 
ATOM     28  C   UNL A   1      37.735 -35.792 -31.501  0.00  0.00    -0.037 A 
ENDBRANCH  18  27
ENDBRANCH  17  19
ENDBRANCH   1  17
TORSDOF 3
ENDMDL
MODEL 14
REMARK VINA RESULT:    -6.900      2.897      4.868
REMARK INTER + INTRA:          -8.621
REMARK INTER:                  -8.253
REMARK INTRA:                  -0.368
REMARK UNBOUND:                -0.511
REMARK  Name = cpd254.pdb
REMARK  7 active torsions:
REMARK  status: ('A' for Active; 'I' for Inactive)
REMARK    1  A    between atoms: C_1  and  C_2
REMARK    2  A    between atoms: C_6  and  N_7
REMARK    3  A    between atoms: C_8  and  O_10
REMARK    4  A    between atoms: O_10  and  C_11
REMARK    5  A    between atoms: C_17  and  C_18
REMARK    6  A    between atoms: N_21  and  C_22
REMARK    7  A    between atoms: N_25  and  C_26
REMARK                            x       y       z     vdW  Elec       q    Type
REMARK                         _______ _______ _______ _____ _____    ______ ____
ROOT
ATOM      1  C   UNL A   1      32.819 -33.938 -31.911  0.00  0.00    +0.134 A 
ATOM      2  C   UNL A   1      31.983 -35.058 -31.949  0.00  0.00    -0.017 A 
ATOM      3  C   UNL A   1      30.669 -34.955 -31.491  0.00  0.00    -0.037 A 
ATOM      4  C   UNL A   1      30.231 -33.762 -30.931  0.00  0.00    +0.032 A 
ATOM      5  C   UNL A   1      31.093 -32.673 -30.853  0.00  0.00    -0.017 A 
ATOM      6  C   UNL A   1      32.390 -32.734 -31.353  0.00  0.00    -0.014 A 
ATOM      7  C   UNL A   1      30.369 -31.535 -30.196  0.00  0.00    +0.002 C 
ATOM      8  C   UNL A   1      31.264 -30.815 -29.177  0.00  0.00    -0.055 C 
ATOM      9  C   UNL A   1      29.775 -30.611 -31.237  0.00  0.00    -0.054 C 
ATOM     10  C   UNL A   1      28.636 -29.989 -30.503  0.00  0.00    -0.048 C 
ATOM     11  N   UNL A   1      28.058 -31.065 -29.619  0.00  0.00    +0.433 N 
ATOM     12  C   UNL A   1      26.781 -31.572 -30.243  0.00  0.00    -0.060 C 
ATOM     13  O   UNL A   1      27.739 -30.492 -28.393  0.00  0.00    -0.289 OA
ATOM     14  C   UNL A   1      29.152 -32.253 -29.387  0.00  0.00    +0.039 C 
ATOM     15  N   UNL A   1      28.945 -33.463 -30.434  0.00  0.00    -0.341 N 
ATOM     16  C   UNL A   1      28.209 -34.646 -29.956  0.00  0.00    -0.001 C 
ENDROOT
BRANCH   1  17
ATOM     17  O   UNL A   1      34.160 -33.989 -32.369  0.00  0.00    -0.411 OA
BRANCH  17  19
ATOM     18  N   UNL A   1      35.877 -35.477 -31.853  0.00  0.00    -0.251 N 
ATOM     19  C   UNL A   1      35.267 -34.280 -31.548  0.00  0.00    +0.410 C 
ATOM     20  O   UNL A   1      35.619 -33.472 -30.697  0.00  0.00    -0.226 OA
ATOM     21  H   UNL A   1      35.611 -35.894 -32.703  0.00  0.00    +0.000 HD
BRANCH  18  27
ATOM     22  C   UNL A   1      40.515 -37.161 -31.068  0.00  0.00    -0.040 C 
ATOM     23  C   UNL A   1      39.089 -36.981 -30.638  0.00  0.00    -0.049 A 
ATOM     24  C   UNL A   1      38.653 -37.496 -29.413  0.00  0.00    -0.059 A 
ATOM     25  C   UNL A   1      37.324 -37.345 -29.022  0.00  0.00    -0.060 A 
ATOM     26  C   UNL A   1      36.421 -36.684 -29.857  0.00  0.00    -0.040 A 
ATOM     27  C   UNL A   1      36.834 -36.175 -31.094  0.00  0.00    +0.037 A 
ATOM     28  C   UNL A   1      38.168 -36.336 -31.480  0.00  0.00    -0.037 A 
ENDBRANCH  18  27
ENDBRANCH  17  19
ENDBRANCH   1  17
TORSDOF 3
ENDMDL
MODEL 15
REMARK VINA RESULT:    -6.878     17.063     19.366
REMARK INTER + INTRA:          -8.595
REMARK INTER:                  -8.212
REMARK INTRA:                  -0.383
REMARK UNBOUND:                -0.511
REMARK  Name = cpd254.pdb
REMARK  7 active torsions:
REMARK  status: ('A' for Active; 'I' for Inactive)
REMARK    1  A    between atoms: C_1  and  C_2
REMARK    2  A    between atoms: C_6  and  N_7
REMARK    3  A    between atoms: C_8  and  O_10
REMARK    4  A    between atoms: O_10  and  C_11
REMARK    5  A    between atoms: C_17  and  C_18
REMARK    6  A    between atoms: N_21  and  C_22
REMARK    7  A    between atoms: N_25  and  C_26
REMARK                            x       y       z     vdW  Elec       q    Type
REMARK                         _______ _______ _______ _____ _____    ______ ____
ROOT
ATOM      1  C   UNL A   1      45.553 -19.514 -35.126  0.00  0.00    +0.134 A 
ATOM      2  C   UNL A   1      45.677 -18.279 -34.481  0.00  0.00    -0.017 A 
ATOM      3  C   UNL A   1      44.584 -17.744 -33.798  0.00  0.00    -0.037 A 
ATOM      4  C   UNL A   1      43.363 -18.407 -33.832  0.00  0.00    +0.032 A 
ATOM      5  C   UNL A   1      43.245 -19.607 -34.523  0.00  0.00    -0.017 A 
ATOM      6  C   UNL A   1      44.333 -20.189 -35.166  0.00  0.00    -0.014 A 
ATOM      7  C   UNL A   1      41.828 -20.088 -34.408  0.00  0.00    +0.002 C 
ATOM      8  C   UNL A   1      41.308 -20.625 -35.749  0.00  0.00    -0.055 C 
ATOM      9  C   UNL A   1      41.693 -21.075 -33.268  0.00  0.00    -0.054 C 
ATOM     10  C   UNL A   1      40.255 -20.940 -32.895  0.00  0.00    -0.048 C 
ATOM     11  N   UNL A   1      39.906 -19.482 -33.053  0.00  0.00    +0.433 N 
ATOM     12  C   UNL A   1      39.847 -18.846 -31.686  0.00  0.00    -0.060 C 
ATOM     13  O   UNL A   1      38.641 -19.399 -33.622  0.00  0.00    -0.289 OA
ATOM     14  C   UNL A   1      40.983 -18.747 -34.034  0.00  0.00    +0.039 C 
ATOM     15  N   UNL A   1      42.161 -18.034 -33.195  0.00  0.00    -0.341 N 
ATOM     16  C   UNL A   1      42.042 -16.584 -32.966  0.00  0.00    -0.001 C 
ENDROOT
BRANCH   1  17
ATOM     17  O   UNL A   1      46.633 -20.103 -35.829  0.00  0.00    -0.411 OA
BRANCH  17  19
ATOM     18  N   UNL A   1      46.054 -20.864 -37.954  0.00  0.00    -0.251 N 
ATOM     19  C   UNL A   1      46.828 -19.992 -37.220  0.00  0.00    +0.410 C 
ATOM     20  O   UNL A   1      47.594 -19.143 -37.659  0.00  0.00    -0.226 OA
ATOM     21  H   UNL A   1      45.331 -21.318 -37.465  0.00  0.00    +0.000 HD
BRANCH  18  27
ATOM     22  C   UNL A   1      47.973 -23.546 -41.707  0.00  0.00    -0.040 C 
ATOM     23  C   UNL A   1      47.042 -22.493 -41.183  0.00  0.00    -0.049 A 
ATOM     24  C   UNL A   1      46.212 -21.787 -42.060  0.00  0.00    -0.059 A 
ATOM     25  C   UNL A   1      45.361 -20.797 -41.575  0.00  0.00    -0.060 A 
ATOM     26  C   UNL A   1      45.339 -20.500 -40.211  0.00  0.00    -0.040 A 
ATOM     27  C   UNL A   1      46.173 -21.185 -39.319  0.00  0.00    +0.037 A 
ATOM     28  C   UNL A   1      47.028 -22.173 -39.815  0.00  0.00    -0.037 A 
ENDBRANCH  18  27
ENDBRANCH  17  19
ENDBRANCH   1  17
TORSDOF 3
ENDMDL
MODEL 16
REMARK VINA RESULT:    -6.799      2.564      8.841
REMARK INTER + INTRA:          -8.503
REMARK INTER:                  -8.068
REMARK INTRA:                  -0.435
REMARK UNBOUND:                -0.511
REMARK  Name = cpd254.pdb
REMARK  7 active torsions:
REMARK  status: ('A' for Active; 'I' for Inactive)
REMARK    1  A    between atoms: C_1  and  C_2
REMARK    2  A    between atoms: C_6  and  N_7
REMARK    3  A    between atoms: C_8  and  O_10
REMARK    4  A    between atoms: O_10  and  C_11
REMARK    5  A    between atoms: C_17  and  C_18
REMARK    6  A    between atoms: N_21  and  C_22
REMARK    7  A    between atoms: N_25  and  C_26
REMARK                            x       y       z     vdW  Elec       q    Type
REMARK                         _______ _______ _______ _____ _____    ______ ____
ROOT
ATOM      1  C   UNL A   1      34.954 -33.470 -30.236  0.00  0.00    +0.134 A 
ATOM      2  C   UNL A   1      36.151 -33.716 -30.916  0.00  0.00    -0.017 A 
ATOM      3  C   UNL A   1      36.710 -34.994 -30.891  0.00  0.00    -0.037 A 
ATOM      4  C   UNL A   1      36.111 -35.988 -30.126  0.00  0.00    +0.032 A 
ATOM      5  C   UNL A   1      34.950 -35.712 -29.414  0.00  0.00    -0.017 A 
ATOM      6  C   UNL A   1      34.344 -34.461 -29.467  0.00  0.00    -0.014 A 
ATOM      7  C   UNL A   1      34.536 -36.949 -28.672  0.00  0.00    +0.002 C 
ATOM      8  C   UNL A   1      34.086 -36.621 -27.242  0.00  0.00    -0.055 C 
ATOM      9  C   UNL A   1      33.508 -37.726 -29.467  0.00  0.00    -0.054 C 
ATOM     10  C   UNL A   1      33.699 -39.117 -28.965  0.00  0.00    -0.048 C 
ATOM     11  N   UNL A   1      35.178 -39.290 -28.732  0.00  0.00    +0.433 N 
ATOM     12  C   UNL A   1      35.755 -40.108 -29.861  0.00  0.00    -0.060 C 
ATOM     13  O   UNL A   1      35.349 -40.005 -27.552  0.00  0.00    -0.289 OA
ATOM     14  C   UNL A   1      35.900 -37.834 -28.587  0.00  0.00    +0.039 C 
ATOM     15  N   UNL A   1      36.515 -37.333 -29.991  0.00  0.00    -0.341 N 
ATOM     16  C   UNL A   1      37.958 -37.539 -30.205  0.00  0.00    -0.001 C 
ENDROOT
BRANCH   1  17
ATOM     17  O   UNL A   1      34.343 -32.191 -30.234  0.00  0.00    -0.411 OA
BRANCH  17  19
ATOM     18  N   UNL A   1      32.348 -31.062 -29.815  0.00  0.00    -0.251 N 
ATOM     19  C   UNL A   1      33.014 -31.948 -30.634  0.00  0.00    +0.410 C 
ATOM     20  O   UNL A   1      32.581 -32.474 -31.651  0.00  0.00    -0.226 OA
ATOM     21  H   UNL A   1      32.905 -30.559 -29.178  0.00  0.00    +0.000 HD
BRANCH  18  27
ATOM     22  C   UNL A   1      27.806 -31.536 -27.790  0.00  0.00    -0.040 C 
ATOM     23  C   UNL A   1      28.739 -30.948 -28.807  0.00  0.00    -0.049 A 
ATOM     24  C   UNL A   1      28.259 -30.057 -29.773  0.00  0.00    -0.059 A 
ATOM     25  C   UNL A   1      29.122 -29.526 -30.728  0.00  0.00    -0.060 A 
ATOM     26  C   UNL A   1      30.471 -29.888 -30.729  0.00  0.00    -0.040 A 
ATOM     27  C   UNL A   1      30.968 -30.789 -29.780  0.00  0.00    +0.037 A 
ATOM     28  C   UNL A   1      30.094 -31.321 -28.829  0.00  0.00    -0.037 A 
ENDBRANCH  18  27
ENDBRANCH  17  19
ENDBRANCH   1  17
TORSDOF 3
ENDMDL
MODEL 17
REMARK VINA RESULT:    -6.677     16.926     20.088
REMARK INTER + INTRA:          -8.359
REMARK INTER:                  -7.964
REMARK INTRA:                  -0.395
REMARK UNBOUND:                -0.511
REMARK  Name = cpd254.pdb
REMARK  7 active torsions:
REMARK  status: ('A' for Active; 'I' for Inactive)
REMARK    1  A    between atoms: C_1  and  C_2
REMARK    2  A    between atoms: C_6  and  N_7
REMARK    3  A    between atoms: C_8  and  O_10
REMARK    4  A    between atoms: O_10  and  C_11
REMARK    5  A    between atoms: C_17  and  C_18
REMARK    6  A    between atoms: N_21  and  C_22
REMARK    7  A    between atoms: N_25  and  C_26
REMARK                            x       y       z     vdW  Elec       q    Type
REMARK                         _______ _______ _______ _____ _____    ______ ____
ROOT
ATOM      1  C   UNL A   1      41.190 -19.712 -38.973  0.00  0.00    +0.134 A 
ATOM      2  C   UNL A   1      41.054 -20.881 -39.728  0.00  0.00    -0.017 A 
ATOM      3  C   UNL A   1      42.152 -21.382 -40.429  0.00  0.00    -0.037 A 
ATOM      4  C   UNL A   1      43.346 -20.671 -40.430  0.00  0.00    +0.032 A 
ATOM      5  C   UNL A   1      43.447 -19.483 -39.716  0.00  0.00    -0.017 A 
ATOM      6  C   UNL A   1      42.383 -18.991 -38.965  0.00  0.00    -0.014 A 
ATOM      7  C   UNL A   1      44.827 -18.925 -39.905  0.00  0.00    +0.002 C 
ATOM      8  C   UNL A   1      44.792 -17.408 -40.138  0.00  0.00    -0.055 C 
ATOM      9  C   UNL A   1      45.729 -19.341 -38.763  0.00  0.00    -0.054 C 
ATOM     10  C   UNL A   1      47.083 -19.290 -39.387  0.00  0.00    -0.048 C 
ATOM     11  N   UNL A   1      46.918 -19.768 -40.807  0.00  0.00    +0.433 N 
ATOM     12  C   UNL A   1      47.430 -21.184 -40.904  0.00  0.00    -0.060 C 
ATOM     13  O   UNL A   1      47.706 -18.968 -41.627  0.00  0.00    -0.289 OA
ATOM     14  C   UNL A   1      45.358 -19.637 -41.269  0.00  0.00    +0.039 C 
ATOM     15  N   UNL A   1      44.559 -21.022 -41.059  0.00  0.00    -0.341 N 
ATOM     16  C   UNL A   1      44.381 -21.882 -42.241  0.00  0.00    -0.001 C 
ENDROOT
BRANCH   1  17
ATOM     17  O   UNL A   1      40.107 -19.166 -38.239  0.00  0.00    -0.411 OA
BRANCH  17  19
ATOM     18  N   UNL A   1      40.531 -20.585 -36.441  0.00  0.00    -0.251 N 
ATOM     19  C   UNL A   1      39.706 -19.615 -36.966  0.00  0.00    +0.410 C 
ATOM     20  O   UNL A   1      38.733 -19.107 -36.423  0.00  0.00    -0.226 OA
ATOM     21  H   UNL A   1      41.390 -20.718 -36.902  0.00  0.00    +0.000 HD
BRANCH  18  27
ATOM     22  C   UNL A   1      38.108 -24.294 -34.131  0.00  0.00    -0.040 C 
ATOM     23  C   UNL A   1      39.175 -23.240 -34.168  0.00  0.00    -0.049 A 
ATOM     24  C   UNL A   1      40.018 -23.052 -33.067  0.00  0.00    -0.059 A 
ATOM     25  C   UNL A   1      40.997 -22.062 -33.094  0.00  0.00    -0.060 A 
ATOM     26  C   UNL A   1      41.136 -21.248 -34.220  0.00  0.00    -0.040 A 
ATOM     27  C   UNL A   1      40.293 -21.410 -35.326  0.00  0.00    +0.037 A 
ATOM     28  C   UNL A   1      39.310 -22.402 -35.288  0.00  0.00    -0.037 A 
ENDBRANCH  18  27
ENDBRANCH  17  19
ENDBRANCH   1  17
TORSDOF 3
ENDMDL
MODEL 18
REMARK VINA RESULT:    -6.597     25.506     28.484
REMARK INTER + INTRA:          -8.265
REMARK INTER:                  -7.686
REMARK INTRA:                  -0.579
REMARK UNBOUND:                -0.511
REMARK  Name = cpd254.pdb
REMARK  7 active torsions:
REMARK  status: ('A' for Active; 'I' for Inactive)
REMARK    1  A    between atoms: C_1  and  C_2
REMARK    2  A    between atoms: C_6  and  N_7
REMARK    3  A    between atoms: C_8  and  O_10
REMARK    4  A    between atoms: O_10  and  C_11
REMARK    5  A    between atoms: C_17  and  C_18
REMARK    6  A    between atoms: N_21  and  C_22
REMARK    7  A    between atoms: N_25  and  C_26
REMARK                            x       y       z     vdW  Elec       q    Type
REMARK                         _______ _______ _______ _____ _____    ______ ____
ROOT
ATOM      1  C   UNL A   1      46.612 -33.282 -53.049  0.00  0.00    +0.134 A 
ATOM      2  C   UNL A   1      45.402 -33.793 -52.570  0.00  0.00    -0.017 A 
ATOM      3  C   UNL A   1      44.819 -34.892 -53.201  0.00  0.00    -0.037 A 
ATOM      4  C   UNL A   1      45.408 -35.418 -54.344  0.00  0.00    +0.032 A 
ATOM      5  C   UNL A   1      46.584 -34.864 -54.836  0.00  0.00    -0.017 A 
ATOM      6  C   UNL A   1      47.214 -33.802 -54.194  0.00  0.00    -0.014 A 
ATOM      7  C   UNL A   1      46.984 -35.610 -56.076  0.00  0.00    +0.002 C 
ATOM      8  C   UNL A   1      47.460 -34.652 -57.177  0.00  0.00    -0.055 C 
ATOM      9  C   UNL A   1      47.986 -36.694 -55.743  0.00  0.00    -0.054 C 
ATOM     10  C   UNL A   1      47.775 -37.676 -56.846  0.00  0.00    -0.048 C 
ATOM     11  N   UNL A   1      46.296 -37.683 -57.137  0.00  0.00    +0.433 N 
ATOM     12  C   UNL A   1      45.689 -38.925 -56.533  0.00  0.00    -0.060 C 
ATOM     13  O   UNL A   1      46.127 -37.747 -58.515  0.00  0.00    -0.289 OA
ATOM     14  C   UNL A   1      45.604 -36.316 -56.575  0.00  0.00    +0.039 C 
ATOM     15  N   UNL A   1      44.980 -36.528 -55.103  0.00  0.00    -0.341 N 
ATOM     16  C   UNL A   1      43.531 -36.776 -55.016  0.00  0.00    -0.001 C 
ENDROOT
BRANCH   1  17
ATOM     17  O   UNL A   1      47.248 -32.170 -52.441  0.00  0.00    -0.411 OA
BRANCH  17  19
ATOM     18  N   UNL A   1      47.067 -30.319 -53.844  0.00  0.00    -0.251 N 
ATOM     19  C   UNL A   1      47.916 -31.154 -53.151  0.00  0.00    +0.410 C 
ATOM     20  O   UNL A   1      49.134 -31.059 -53.071  0.00  0.00    -0.226 OA
ATOM     21  H   UNL A   1      46.111 -30.393 -53.623  0.00  0.00    +0.000 HD
BRANCH  18  27
ATOM     22  C   UNL A   1      47.874 -25.631 -55.372  0.00  0.00    -0.040 C 
ATOM     23  C   UNL A   1      47.853 -27.111 -55.618  0.00  0.00    -0.049 A 
ATOM     24  C   UNL A   1      48.204 -27.621 -56.872  0.00  0.00    -0.059 A 
ATOM     25  C   UNL A   1      48.166 -28.994 -57.105  0.00  0.00    -0.060 A 
ATOM     26  C   UNL A   1      47.772 -29.865 -56.088  0.00  0.00    -0.040 A 
ATOM     27  C   UNL A   1      47.402 -29.373 -54.831  0.00  0.00    +0.037 A 
ATOM     28  C   UNL A   1      47.437 -27.994 -54.607  0.00  0.00    -0.037 A 
ENDBRANCH  18  27
ENDBRANCH  17  19
ENDBRANCH   1  17
TORSDOF 3
ENDMDL
MODEL 19
REMARK VINA RESULT:    -6.487     25.634     28.745
REMARK INTER + INTRA:          -8.136
REMARK INTER:                  -7.644
REMARK INTRA:                  -0.492
REMARK UNBOUND:                -0.511
REMARK  Name = cpd254.pdb
REMARK  7 active torsions:
REMARK  status: ('A' for Active; 'I' for Inactive)
REMARK    1  A    between atoms: C_1  and  C_2
REMARK    2  A    between atoms: C_6  and  N_7
REMARK    3  A    between atoms: C_8  and  O_10
REMARK    4  A    between atoms: O_10  and  C_11
REMARK    5  A    between atoms: C_17  and  C_18
REMARK    6  A    between atoms: N_21  and  C_22
REMARK    7  A    between atoms: N_25  and  C_26
REMARK                            x       y       z     vdW  Elec       q    Type
REMARK                         _______ _______ _______ _____ _____    ______ ____
ROOT
ATOM      1  C   UNL A   1      48.144 -31.454 -53.968  0.00  0.00    +0.134 A 
ATOM      2  C   UNL A   1      49.281 -32.152 -54.386  0.00  0.00    -0.017 A 
ATOM      3  C   UNL A   1      49.166 -33.484 -54.787  0.00  0.00    -0.037 A 
ATOM      4  C   UNL A   1      47.935 -34.123 -54.693  0.00  0.00    +0.032 A 
ATOM      5  C   UNL A   1      46.826 -33.427 -54.226  0.00  0.00    -0.017 A 
ATOM      6  C   UNL A   1      46.904 -32.084 -53.872  0.00  0.00    -0.014 A 
ATOM      7  C   UNL A   1      45.647 -34.357 -54.215  0.00  0.00    +0.002 C 
ATOM      8  C   UNL A   1      44.817 -34.193 -52.934  0.00  0.00    -0.055 C 
ATOM      9  C   UNL A   1      44.837 -34.203 -55.484  0.00  0.00    -0.054 C 
ATOM     10  C   UNL A   1      44.175 -35.534 -55.606  0.00  0.00    -0.048 C 
ATOM     11  N   UNL A   1      45.177 -36.556 -55.131  0.00  0.00    +0.433 N 
ATOM     12  C   UNL A   1      45.768 -37.251 -56.333  0.00  0.00    -0.060 C 
ATOM     13  O   UNL A   1      44.501 -37.505 -54.375  0.00  0.00    -0.289 OA
ATOM     14  C   UNL A   1      46.314 -35.842 -54.204  0.00  0.00    +0.039 C 
ATOM     15  N   UNL A   1      47.620 -35.447 -55.064  0.00  0.00    -0.341 N 
ATOM     16  C   UNL A   1      48.770 -36.365 -55.001  0.00  0.00    -0.001 C 
ENDROOT
BRANCH   1  17
ATOM     17  O   UNL A   1      48.207 -30.099 -53.556  0.00  0.00    -0.411 OA
BRANCH  17  19
ATOM     18  N   UNL A   1      47.290 -29.068 -55.433  0.00  0.00    -0.251 N 
ATOM     19  C   UNL A   1      47.376 -29.079 -54.058  0.00  0.00    +0.410 C 
ATOM     20  O   UNL A   1      46.783 -28.342 -53.280  0.00  0.00    -0.226 OA
ATOM     21  H   UNL A   1      47.643 -29.861 -55.895  0.00  0.00    +0.000 HD
BRANCH  18  27
ATOM     22  C   UNL A   1      43.578 -27.045 -58.097  0.00  0.00    -0.040 C 
ATOM     23  C   UNL A   1      44.967 -27.004 -57.531  0.00  0.00    -0.049 A 
ATOM     24  C   UNL A   1      45.800 -25.910 -57.788  0.00  0.00    -0.059 A 
ATOM     25  C   UNL A   1      47.096 -25.881 -57.278  0.00  0.00    -0.060 A 
ATOM     26  C   UNL A   1      47.570 -26.948 -56.512  0.00  0.00    -0.040 A 
ATOM     27  C   UNL A   1      46.757 -28.059 -56.256  0.00  0.00    +0.037 A 
ATOM     28  C   UNL A   1      45.460 -28.082 -56.777  0.00  0.00    -0.037 A 
ENDBRANCH  18  27
ENDBRANCH  17  19
ENDBRANCH   1  17
TORSDOF 3
ENDMDL
MODEL 20
REMARK VINA RESULT:    -6.475     17.277     20.174
REMARK INTER + INTRA:          -8.122
REMARK INTER:                  -7.955
REMARK INTRA:                  -0.167
REMARK UNBOUND:                -0.511
REMARK  Name = cpd254.pdb
REMARK  7 active torsions:
REMARK  status: ('A' for Active; 'I' for Inactive)
REMARK    1  A    between atoms: C_1  and  C_2
REMARK    2  A    between atoms: C_6  and  N_7
REMARK    3  A    between atoms: C_8  and  O_10
REMARK    4  A    between atoms: O_10  and  C_11
REMARK    5  A    between atoms: C_17  and  C_18
REMARK    6  A    between atoms: N_21  and  C_22
REMARK    7  A    between atoms: N_25  and  C_26
REMARK                            x       y       z     vdW  Elec       q    Type
REMARK                         _______ _______ _______ _____ _____    ______ ____
ROOT
ATOM      1  C   UNL A   1      44.165 -19.322 -34.799  0.00  0.00    +0.134 A 
ATOM      2  C   UNL A   1      44.649 -18.045 -34.499  0.00  0.00    -0.017 A 
ATOM      3  C   UNL A   1      45.296 -17.302 -35.488  0.00  0.00    -0.037 A 
ATOM      4  C   UNL A   1      45.520 -17.871 -36.736  0.00  0.00    +0.032 A 
ATOM      5  C   UNL A   1      45.078 -19.163 -36.999  0.00  0.00    -0.017 A 
ATOM      6  C   UNL A   1      44.383 -19.903 -36.048  0.00  0.00    -0.014 A 
ATOM      7  C   UNL A   1      45.465 -19.525 -38.403  0.00  0.00    +0.002 C 
ATOM      8  C   UNL A   1      46.008 -20.959 -38.483  0.00  0.00    -0.055 C 
ATOM      9  C   UNL A   1      44.319 -19.258 -39.355  0.00  0.00    -0.054 C 
ATOM     10  C   UNL A   1      45.023 -19.042 -40.652  0.00  0.00    -0.048 C 
ATOM     11  N   UNL A   1      46.298 -18.305 -40.330  0.00  0.00    +0.433 N 
ATOM     12  C   UNL A   1      46.128 -16.854 -40.706  0.00  0.00    -0.060 C 
ATOM     13  O   UNL A   1      47.314 -18.836 -41.115  0.00  0.00    -0.289 OA
ATOM     14  C   UNL A   1      46.680 -18.499 -38.756  0.00  0.00    +0.039 C 
ATOM     15  N   UNL A   1      46.135 -17.276 -37.857  0.00  0.00    -0.341 N 
ATOM     16  C   UNL A   1      47.097 -16.217 -37.508  0.00  0.00    -0.001 C 
ENDROOT
BRANCH   1  17
ATOM     17  O   UNL A   1      43.497 -20.115 -33.832  0.00  0.00    -0.411 OA
BRANCH  17  19
ATOM     18  N   UNL A   1      41.653 -21.441 -33.310  0.00  0.00    -0.251 N 
ATOM     19  C   UNL A   1      42.096 -20.198 -33.706  0.00  0.00    +0.410 C 
ATOM     20  O   UNL A   1      41.410 -19.202 -33.901  0.00  0.00    -0.226 OA
ATOM     21  H   UNL A   1      42.341 -22.060 -32.978  0.00  0.00    +0.000 HD
BRANCH  18  27
ATOM     22  C   UNL A   1      36.724 -20.868 -32.724  0.00  0.00    -0.040 C 
ATOM     23  C   UNL A   1      37.919 -21.696 -33.098  0.00  0.00    -0.049 A 
ATOM     24  C   UNL A   1      37.755 -23.022 -33.513  0.00  0.00    -0.059 A 
ATOM     25  C   UNL A   1      38.865 -23.796 -33.842  0.00  0.00    -0.060 A 
ATOM     26  C   UNL A   1      40.148 -23.251 -33.752  0.00  0.00    -0.040 A 
ATOM     27  C   UNL A   1      40.334 -21.931 -33.324  0.00  0.00    +0.037 A 
ATOM     28  C   UNL A   1      39.215 -21.164 -32.990  0.00  0.00    -0.037 A 
ENDBRANCH  18  27
ENDBRANCH  17  19
ENDBRANCH   1  17
TORSDOF 3
ENDMDL
