REMARK  Name = cpd208.pdb
REMARK  7 active torsions:
REMARK  status: ('A' for Active; 'I' for Inactive)
REMARK    1  A    between atoms: C_1  and  C_2
REMARK    2  A    between atoms: C_2  and  C_3
REMARK    3  A    between atoms: C_2  and  C_4
REMARK    4  A    between atoms: C_2  and  C_5
REMARK    5  A    between atoms: C_5  and  O_6
REMARK    6  A    between atoms: N_8  and  C_9
REMARK    7  A    between atoms: N_8  and  C_10
REMARK                            x       y       z     vdW  Elec       q    Type
REMARK                         _______ _______ _______ _____ _____    ______ ____
ROOT
ATOM      1  C   UNL     1      -0.680  -0.596  -0.376  0.00  0.00    +0.158 C 
ATOM      2  C   UNL     1      -1.535   0.248   0.640  0.00  0.00    -0.033 C 
ATOM      3  N   UNL     1      -2.157   1.533  -0.026  0.00  0.00    +0.381 N 
ATOM      4  C   UNL     1      -2.235   2.646   1.008  0.00  0.00    -0.100 C 
ATOM      5  C   UNL     1      -3.568   1.229  -0.522  0.00  0.00    -0.100 C 
ATOM      6  C   UNL     1      -1.286   1.970  -1.229  0.00  0.00    -0.064 C 
ATOM      7  C   UNL     1       0.178   1.587  -0.996  0.00  0.00    +0.037 C 
ATOM      8  O   UNL     1       0.406   0.179  -0.900  0.00  0.00    -0.352 OA
ENDROOT
BRANCH   1  10
ATOM      9  C   UNL     1       0.801  -1.568   1.488  0.00  0.00    -0.055 C 
ATOM     10  C   UNL     1      -0.088  -1.906   0.271  0.00  0.00    +0.014 C 
ATOM     11  C   UNL     1      -1.207  -2.863   0.731  0.00  0.00    -0.055 C 
ATOM     12  C   UNL     1       0.800  -2.678  -0.736  0.00  0.00    -0.055 C 
ENDBRANCH   1  10
BRANCH   1  13
ATOM     13  O   UNL     1      -1.523  -0.929  -1.479  0.00  0.00    -0.366 OA
ATOM     14  H   UNL     1      -2.274  -1.456  -1.164  0.00  0.00    +0.000 HD
ENDBRANCH   1  13
TORSDOF 2
