@<TRIPOS>MOLECULE
*****
 13 13 0 0 0
SMALL
GASTEIGER

@<TRIPOS>ATOM
      1 C           0.8070   -0.9483    0.0000 C.3     1  UNL1        0.0052
      2 C          -0.1589   -1.2071    0.0000 C.3     1  UNL1        0.0557
      3 C          -0.8660   -1.9142    0.0000 C.3     1  UNL1        0.0052
      4 C           0.0999   -2.1730    0.0000 C.3     1  UNL1        0.0052
      5 C          -0.8660   -0.5000    0.0000 C.3     1  UNL1        0.2692
      6 O          -1.7899   -0.8827    0.0000 O.3     1  UNL1       -0.1889
      7 C          -1.7321   -0.0000    0.0000 C.3     1  UNL1        0.1688
      8 N          -1.7321    1.0000    0.0000 N.4     1  UNL1        0.3118
      9 C          -2.2321    1.8660    0.0000 C.3     1  UNL1        0.1710
     10 C          -2.7321    1.0000    0.0000 C.3     1  UNL1        0.1710
     11 C          -0.8660    1.5000    0.0000 C.3     1  UNL1        0.1419
     12 C          -0.0000    1.0000    0.0000 C.3     1  UNL1        0.2055
     13 O           0.0000   -0.0000    0.0000 O.3     1  UNL1       -0.3214
@<TRIPOS>UNITY_ATOM_ATTR
8 1
charge 1
@<TRIPOS>BOND
     1     1     2    1
     2     2     3    1
     3     2     4    1
     4     2     5    1
     5     5     6    1
     6     5     7    1
     7     7     8    1
     8     8     9    1
     9     8    10    1
    10     8    11    1
    11    11    12    1
    12    12    13    1
    13     5    13    1
