MODEL 1
REMARK VINA RESULT:    -5.425      0.000      0.000
REMARK INTER + INTRA:          -5.985
REMARK INTER:                  -5.901
REMARK INTRA:                  -0.084
REMARK UNBOUND:                -0.084
REMARK  Name = cpd208.pdb
REMARK  7 active torsions:
REMARK  status: ('A' for Active; 'I' for Inactive)
REMARK    1  A    between atoms: C_1  and  C_2
REMARK    2  A    between atoms: C_2  and  C_3
REMARK    3  A    between atoms: C_2  and  C_4
REMARK    4  A    between atoms: C_2  and  C_5
REMARK    5  A    between atoms: C_5  and  O_6
REMARK    6  A    between atoms: N_8  and  C_9
REMARK    7  A    between atoms: N_8  and  C_10
REMARK                            x       y       z     vdW  Elec       q    Type
REMARK                         _______ _______ _______ _____ _____    ______ ____
ROOT
ATOM      1  C   UNL     1      38.024 -35.168 -31.761  0.00  0.00    +0.158 C 
ATOM      2  C   UNL     1      37.287 -35.911 -30.586  0.00  0.00    -0.033 C 
ATOM      3  N   UNL     1      35.738 -35.625 -30.577  0.00  0.00    +0.381 N 
ATOM      4  C   UNL     1      35.237 -35.624 -29.140  0.00  0.00    -0.100 C 
ATOM      5  C   UNL     1      35.004 -36.717 -31.349  0.00  0.00    -0.100 C 
ATOM      6  C   UNL     1      35.457 -34.259 -31.250  0.00  0.00    -0.064 C 
ATOM      7  C   UNL     1      36.640 -33.309 -31.046  0.00  0.00    +0.037 C 
ATOM      8  O   UNL     1      37.855 -33.749 -31.656  0.00  0.00    -0.352 OA
ENDROOT
BRANCH   1  10
ATOM      9  C   UNL     1      39.948 -36.535 -30.739  0.00  0.00    -0.055 C 
ATOM     10  C   UNL     1      39.568 -35.482 -31.804  0.00  0.00    +0.014 C 
ATOM     11  C   UNL     1      39.999 -36.008 -33.189  0.00  0.00    -0.055 C 
ATOM     12  C   UNL     1      40.408 -34.216 -31.505  0.00  0.00    -0.055 C 
ENDBRANCH   1  10
BRANCH   1  13
ATOM     13  O   UNL     1      37.406 -35.571 -32.983  0.00  0.00    -0.366 OA
ATOM     14  H   UNL     1      36.534 -35.152 -33.057  0.00  0.00    +0.000 HD
ENDBRANCH   1  13
TORSDOF 2
ENDMDL
MODEL 2
REMARK VINA RESULT:    -5.073     36.042     37.729
REMARK INTER + INTRA:          -5.602
REMARK INTER:                  -5.518
REMARK INTRA:                  -0.083
REMARK UNBOUND:                -0.084
REMARK  Name = cpd208.pdb
REMARK  7 active torsions:
REMARK  status: ('A' for Active; 'I' for Inactive)
REMARK    1  A    between atoms: C_1  and  C_2
REMARK    2  A    between atoms: C_2  and  C_3
REMARK    3  A    between atoms: C_2  and  C_4
REMARK    4  A    between atoms: C_2  and  C_5
REMARK    5  A    between atoms: C_5  and  O_6
REMARK    6  A    between atoms: N_8  and  C_9
REMARK    7  A    between atoms: N_8  and  C_10
REMARK                            x       y       z     vdW  Elec       q    Type
REMARK                         _______ _______ _______ _____ _____    ______ ____
ROOT
ATOM      1  C   UNL     1      63.918 -24.292  -7.494  0.00  0.00    +0.158 C 
ATOM      2  C   UNL     1      63.585 -23.252  -6.361  0.00  0.00    -0.033 C 
ATOM      3  N   UNL     1      64.330 -23.579  -5.012  0.00  0.00    +0.381 N 
ATOM      4  C   UNL     1      63.456 -23.158  -3.841  0.00  0.00    -0.100 C 
ATOM      5  C   UNL     1      65.643 -22.804  -4.944  0.00  0.00    -0.100 C 
ATOM      6  C   UNL     1      64.638 -25.095  -4.942  0.00  0.00    -0.064 C 
ATOM      7  C   UNL     1      63.576 -25.892  -5.703  0.00  0.00    +0.037 C 
ATOM      8  O   UNL     1      63.531 -25.616  -7.105  0.00  0.00    -0.352 OA
ENDROOT
BRANCH   1  10
ATOM      9  C   UNL     1      62.026 -24.905  -9.124  0.00  0.00    -0.055 C 
ATOM     10  C   UNL     1      63.210 -23.948  -8.860  0.00  0.00    +0.014 C 
ATOM     11  C   UNL     1      62.682 -22.499  -8.873  0.00  0.00    -0.055 C 
ATOM     12  C   UNL     1      64.186 -24.099 -10.053  0.00  0.00    -0.055 C 
ENDBRANCH   1  10
BRANCH   1  13
ATOM     13  O   UNL     1      65.336 -24.306  -7.665  0.00  0.00    -0.366 OA
ATOM     14  H   UNL     1      65.704 -25.095  -7.236  0.00  0.00    +0.000 HD
ENDBRANCH   1  13
TORSDOF 2
ENDMDL
MODEL 3
REMARK VINA RESULT:    -4.921     23.793     25.020
REMARK INTER + INTRA:          -5.437
REMARK INTER:                  -5.355
REMARK INTRA:                  -0.082
REMARK UNBOUND:                -0.084
REMARK  Name = cpd208.pdb
REMARK  7 active torsions:
REMARK  status: ('A' for Active; 'I' for Inactive)
REMARK    1  A    between atoms: C_1  and  C_2
REMARK    2  A    between atoms: C_2  and  C_3
REMARK    3  A    between atoms: C_2  and  C_4
REMARK    4  A    between atoms: C_2  and  C_5
REMARK    5  A    between atoms: C_5  and  O_6
REMARK    6  A    between atoms: N_8  and  C_9
REMARK    7  A    between atoms: N_8  and  C_10
REMARK                            x       y       z     vdW  Elec       q    Type
REMARK                         _______ _______ _______ _____ _____    ______ ____
ROOT
ATOM      1  C   UNL     1      44.429 -35.699 -54.890  0.00  0.00    +0.158 C 
ATOM      2  C   UNL     1      45.994 -35.539 -54.920  0.00  0.00    -0.033 C 
ATOM      3  N   UNL     1      46.448 -34.057 -54.635  0.00  0.00    +0.381 N 
ATOM      4  C   UNL     1      47.717 -33.762 -55.420  0.00  0.00    -0.100 C 
ATOM      5  C   UNL     1      46.744 -33.882 -53.148  0.00  0.00    -0.100 C 
ATOM      6  C   UNL     1      45.319 -33.079 -55.041  0.00  0.00    -0.064 C 
ATOM      7  C   UNL     1      44.501 -33.657 -56.199  0.00  0.00    +0.037 C 
ATOM      8  O   UNL     1      43.810 -34.867 -55.879  0.00  0.00    -0.352 OA
ENDROOT
BRANCH   1  10
ATOM      9  C   UNL     1      44.475 -38.113 -54.007  0.00  0.00    -0.055 C 
ATOM     10  C   UNL     1      43.967 -37.186 -55.133  0.00  0.00    +0.014 C 
ATOM     11  C   UNL     1      42.429 -37.295 -55.202  0.00  0.00    -0.055 C 
ATOM     12  C   UNL     1      44.533 -37.741 -56.463  0.00  0.00    -0.055 C 
ENDBRANCH   1  10
BRANCH   1  13
ATOM     13  O   UNL     1      43.971 -35.242 -53.617  0.00  0.00    -0.366 OA
ATOM     14  H   UNL     1      44.105 -35.940 -52.957  0.00  0.00    +0.000 HD
ENDBRANCH   1  13
TORSDOF 2
ENDMDL
MODEL 4
REMARK VINA RESULT:    -4.659     18.209     19.493
REMARK INTER + INTRA:          -5.152
REMARK INTER:                  -5.068
REMARK INTRA:                  -0.084
REMARK UNBOUND:                -0.084
REMARK  Name = cpd208.pdb
REMARK  7 active torsions:
REMARK  status: ('A' for Active; 'I' for Inactive)
REMARK    1  A    between atoms: C_1  and  C_2
REMARK    2  A    between atoms: C_2  and  C_3
REMARK    3  A    between atoms: C_2  and  C_4
REMARK    4  A    between atoms: C_2  and  C_5
REMARK    5  A    between atoms: C_5  and  O_6
REMARK    6  A    between atoms: N_8  and  C_9
REMARK    7  A    between atoms: N_8  and  C_10
REMARK                            x       y       z     vdW  Elec       q    Type
REMARK                         _______ _______ _______ _____ _____    ______ ____
ROOT
ATOM      1  C   UNL     1      46.696 -20.318 -39.356  0.00  0.00    +0.158 C 
ATOM      2  C   UNL     1      46.120 -21.575 -40.107  0.00  0.00    -0.033 C 
ATOM      3  N   UNL     1      47.066 -22.062 -41.268  0.00  0.00    +0.381 N 
ATOM      4  C   UNL     1      46.222 -22.637 -42.395  0.00  0.00    -0.100 C 
ATOM      5  C   UNL     1      48.000 -23.154 -40.753  0.00  0.00    -0.100 C 
ATOM      6  C   UNL     1      47.918 -20.874 -41.780  0.00  0.00    -0.064 C 
ATOM      7  C   UNL     1      47.153 -19.558 -41.614  0.00  0.00    +0.037 C 
ATOM      8  O   UNL     1      46.867 -19.216 -40.256  0.00  0.00    -0.352 OA
ENDROOT
BRANCH   1  10
ATOM      9  C   UNL     1      45.606 -18.313 -38.170  0.00  0.00    -0.055 C 
ATOM     10  C   UNL     1      45.776 -19.849 -38.165  0.00  0.00    +0.014 C 
ATOM     11  C   UNL     1      44.378 -20.497 -38.243  0.00  0.00    -0.055 C 
ATOM     12  C   UNL     1      46.390 -20.231 -36.796  0.00  0.00    -0.055 C 
ENDBRANCH   1  10
BRANCH   1  13
ATOM     13  O   UNL     1      47.993 -20.662 -38.869  0.00  0.00    -0.366 OA
ATOM     14  H   UNL     1      48.582 -20.841 -39.619  0.00  0.00    +0.000 HD
ENDBRANCH   1  13
TORSDOF 2
ENDMDL
MODEL 5
REMARK VINA RESULT:    -4.653     17.997     19.207
REMARK INTER + INTRA:          -5.145
REMARK INTER:                  -5.062
REMARK INTRA:                  -0.083
REMARK UNBOUND:                -0.084
REMARK  Name = cpd208.pdb
REMARK  7 active torsions:
REMARK  status: ('A' for Active; 'I' for Inactive)
REMARK    1  A    between atoms: C_1  and  C_2
REMARK    2  A    between atoms: C_2  and  C_3
REMARK    3  A    between atoms: C_2  and  C_4
REMARK    4  A    between atoms: C_2  and  C_5
REMARK    5  A    between atoms: C_5  and  O_6
REMARK    6  A    between atoms: N_8  and  C_9
REMARK    7  A    between atoms: N_8  and  C_10
REMARK                            x       y       z     vdW  Elec       q    Type
REMARK                         _______ _______ _______ _____ _____    ______ ____
ROOT
ATOM      1  C   UNL     1      46.614 -21.344 -40.036  0.00  0.00    +0.158 C 
ATOM      2  C   UNL     1      46.694 -19.773 -40.034  0.00  0.00    -0.033 C 
ATOM      3  N   UNL     1      46.134 -19.149 -38.700  0.00  0.00    +0.381 N 
ATOM      4  C   UNL     1      45.487 -17.807 -39.007  0.00  0.00    -0.100 C 
ATOM      5  C   UNL     1      47.277 -18.925 -37.713  0.00  0.00    -0.100 C 
ATOM      6  C   UNL     1      45.105 -20.115 -38.064  0.00  0.00    -0.064 C 
ATOM      7  C   UNL     1      44.395 -20.928 -39.150  0.00  0.00    +0.037 C 
ATOM      8  O   UNL     1      45.259 -21.789 -39.895  0.00  0.00    -0.352 OA
ENDROOT
BRANCH   1  10
ATOM      9  C   UNL     1      46.091 -22.316 -42.359  0.00  0.00    -0.055 C 
ATOM     10  C   UNL     1      47.211 -21.980 -41.350  0.00  0.00    +0.014 C 
ATOM     11  C   UNL     1      48.215 -21.027 -42.031  0.00  0.00    -0.055 C 
ATOM     12  C   UNL     1      47.956 -23.303 -41.046  0.00  0.00    -0.055 C 
ENDBRANCH   1  10
BRANCH   1  13
ATOM     13  O   UNL     1      47.328 -21.816 -38.893  0.00  0.00    -0.366 OA
ATOM     14  H   UNL     1      48.197 -21.386 -38.855  0.00  0.00    +0.000 HD
ENDBRANCH   1  13
TORSDOF 2
ENDMDL
MODEL 6
REMARK VINA RESULT:    -4.618     37.049     38.662
REMARK INTER + INTRA:          -5.107
REMARK INTER:                  -5.022
REMARK INTRA:                  -0.084
REMARK UNBOUND:                -0.084
REMARK  Name = cpd208.pdb
REMARK  7 active torsions:
REMARK  status: ('A' for Active; 'I' for Inactive)
REMARK    1  A    between atoms: C_1  and  C_2
REMARK    2  A    between atoms: C_2  and  C_3
REMARK    3  A    between atoms: C_2  and  C_4
REMARK    4  A    between atoms: C_2  and  C_5
REMARK    5  A    between atoms: C_5  and  O_6
REMARK    6  A    between atoms: N_8  and  C_9
REMARK    7  A    between atoms: N_8  and  C_10
REMARK                            x       y       z     vdW  Elec       q    Type
REMARK                         _______ _______ _______ _____ _____    ______ ____
ROOT
ATOM      1  C   UNL     1      64.403 -24.283  -6.064  0.00  0.00    +0.158 C 
ATOM      2  C   UNL     1      63.104 -23.459  -5.735  0.00  0.00    -0.033 C 
ATOM      3  N   UNL     1      63.377 -22.298  -4.706  0.00  0.00    +0.381 N 
ATOM      4  C   UNL     1      62.143 -22.094  -3.840  0.00  0.00    -0.100 C 
ATOM      5  C   UNL     1      63.668 -21.000  -5.453  0.00  0.00    -0.100 C 
ATOM      6  C   UNL     1      64.602 -22.657  -3.829  0.00  0.00    -0.064 C 
ATOM      7  C   UNL     1      64.712 -24.175  -3.660  0.00  0.00    +0.037 C 
ATOM      8  O   UNL     1      64.943 -24.883  -4.880  0.00  0.00    -0.352 OA
ENDROOT
BRANCH   1  10
ATOM      9  C   UNL     1      62.675 -25.885  -7.093  0.00  0.00    -0.055 C 
ATOM     10  C   UNL     1      64.148 -25.420  -7.125  0.00  0.00    +0.014 C 
ATOM     11  C   UNL     1      64.481 -24.944  -8.554  0.00  0.00    -0.055 C 
ATOM     12  C   UNL     1      65.020 -26.666  -6.834  0.00  0.00    -0.055 C 
ENDBRANCH   1  10
BRANCH   1  13
ATOM     13  O   UNL     1      65.385 -23.367  -6.550  0.00  0.00    -0.366 OA
ATOM     14  H   UNL     1      66.270 -23.687  -6.315  0.00  0.00    +0.000 HD
ENDBRANCH   1  13
TORSDOF 2
ENDMDL
MODEL 7
REMARK VINA RESULT:    -4.568      1.922      3.070
REMARK INTER + INTRA:          -5.053
REMARK INTER:                  -4.970
REMARK INTRA:                  -0.083
REMARK UNBOUND:                -0.084
REMARK  Name = cpd208.pdb
REMARK  7 active torsions:
REMARK  status: ('A' for Active; 'I' for Inactive)
REMARK    1  A    between atoms: C_1  and  C_2
REMARK    2  A    between atoms: C_2  and  C_3
REMARK    3  A    between atoms: C_2  and  C_4
REMARK    4  A    between atoms: C_2  and  C_5
REMARK    5  A    between atoms: C_5  and  O_6
REMARK    6  A    between atoms: N_8  and  C_9
REMARK    7  A    between atoms: N_8  and  C_10
REMARK                            x       y       z     vdW  Elec       q    Type
REMARK                         _______ _______ _______ _____ _____    ______ ____
ROOT
ATOM      1  C   UNL     1      35.903 -35.728 -30.794  0.00  0.00    +0.158 C 
ATOM      2  C   UNL     1      34.682 -35.484 -29.832  0.00  0.00    -0.033 C 
ATOM      3  N   UNL     1      33.668 -34.427 -30.411  0.00  0.00    +0.381 N 
ATOM      4  C   UNL     1      33.044 -33.649 -29.263  0.00  0.00    -0.100 C 
ATOM      5  C   UNL     1      32.557 -35.140 -31.177  0.00  0.00    -0.100 C 
ATOM      6  C   UNL     1      34.408 -33.469 -31.377  0.00  0.00    -0.064 C 
ATOM      7  C   UNL     1      35.870 -33.307 -30.953  0.00  0.00    +0.037 C 
ATOM      8  O   UNL     1      36.634 -34.514 -31.014  0.00  0.00    -0.352 OA
ENDROOT
BRANCH   1  10
ATOM      9  C   UNL     1      38.343 -36.539 -30.729  0.00  0.00    -0.055 C 
ATOM     10  C   UNL     1      36.903 -36.815 -30.242  0.00  0.00    +0.014 C 
ATOM     11  C   UNL     1      36.903 -36.849 -28.700  0.00  0.00    -0.055 C 
ATOM     12  C   UNL     1      36.522 -38.232 -30.739  0.00  0.00    -0.055 C 
ENDBRANCH   1  10
BRANCH   1  13
ATOM     13  O   UNL     1      35.383 -36.135 -32.060  0.00  0.00    -0.366 OA
ATOM     14  H   UNL     1      35.502 -37.091 -32.166  0.00  0.00    +0.000 HD
ENDBRANCH   1  13
TORSDOF 2
ENDMDL
MODEL 8
REMARK VINA RESULT:    -4.547     18.315     19.715
REMARK INTER + INTRA:          -5.029
REMARK INTER:                  -4.947
REMARK INTRA:                  -0.082
REMARK UNBOUND:                -0.084
REMARK  Name = cpd208.pdb
REMARK  7 active torsions:
REMARK  status: ('A' for Active; 'I' for Inactive)
REMARK    1  A    between atoms: C_1  and  C_2
REMARK    2  A    between atoms: C_2  and  C_3
REMARK    3  A    between atoms: C_2  and  C_4
REMARK    4  A    between atoms: C_2  and  C_5
REMARK    5  A    between atoms: C_5  and  O_6
REMARK    6  A    between atoms: N_8  and  C_9
REMARK    7  A    between atoms: N_8  and  C_10
REMARK                            x       y       z     vdW  Elec       q    Type
REMARK                         _______ _______ _______ _____ _____    ______ ____
ROOT
ATOM      1  C   UNL     1      45.544 -20.415 -40.935  0.00  0.00    +0.158 C 
ATOM      2  C   UNL     1      44.987 -19.223 -40.071  0.00  0.00    -0.033 C 
ATOM      3  N   UNL     1      46.020 -18.739 -38.984  0.00  0.00    +0.381 N 
ATOM      4  C   UNL     1      45.265 -18.257 -37.755  0.00  0.00    -0.100 C 
ATOM      5  C   UNL     1      46.847 -17.580 -39.534  0.00  0.00    -0.100 C 
ATOM      6  C   UNL     1      46.971 -19.903 -38.615  0.00  0.00    -0.064 C 
ATOM      7  C   UNL     1      46.256 -21.248 -38.770  0.00  0.00    +0.037 C 
ATOM      8  O   UNL     1      45.853 -21.545 -40.109  0.00  0.00    -0.352 OA
ENDROOT
BRANCH   1  10
ATOM      9  C   UNL     1      43.206 -21.365 -41.430  0.00  0.00    -0.055 C 
ATOM     10  C   UNL     1      44.533 -20.878 -42.052  0.00  0.00    +0.014 C 
ATOM     11  C   UNL     1      44.221 -19.734 -43.039  0.00  0.00    -0.055 C 
ATOM     12  C   UNL     1      45.107 -22.058 -42.874  0.00  0.00    -0.055 C 
ENDBRANCH   1  10
BRANCH   1  13
ATOM     13  O   UNL     1      46.770 -19.985 -41.526  0.00  0.00    -0.366 OA
ATOM     14  H   UNL     1      47.463 -20.639 -41.345  0.00  0.00    +0.000 HD
ENDBRANCH   1  13
TORSDOF 2
ENDMDL
MODEL 9
REMARK VINA RESULT:    -4.489     31.065     32.574
REMARK INTER + INTRA:          -4.967
REMARK INTER:                  -4.882
REMARK INTRA:                  -0.084
REMARK UNBOUND:                -0.084
REMARK  Name = cpd208.pdb
REMARK  7 active torsions:
REMARK  status: ('A' for Active; 'I' for Inactive)
REMARK    1  A    between atoms: C_1  and  C_2
REMARK    2  A    between atoms: C_2  and  C_3
REMARK    3  A    between atoms: C_2  and  C_4
REMARK    4  A    between atoms: C_2  and  C_5
REMARK    5  A    between atoms: C_5  and  O_6
REMARK    6  A    between atoms: N_8  and  C_9
REMARK    7  A    between atoms: N_8  and  C_10
REMARK                            x       y       z     vdW  Elec       q    Type
REMARK                         _______ _______ _______ _____ _____    ______ ____
ROOT
ATOM      1  C   UNL     1      61.992 -13.884 -30.004  0.00  0.00    +0.158 C 
ATOM      2  C   UNL     1      61.500 -12.400 -30.185  0.00  0.00    -0.033 C 
ATOM      3  N   UNL     1      59.941 -12.309 -30.394  0.00  0.00    +0.381 N 
ATOM      4  C   UNL     1      59.626 -11.140 -31.314  0.00  0.00    -0.100 C 
ATOM      5  C   UNL     1      59.251 -12.074 -29.053  0.00  0.00    -0.100 C 
ATOM      6  C   UNL     1      59.418 -13.634 -31.001  0.00  0.00    -0.064 C 
ATOM      7  C   UNL     1      60.496 -14.285 -31.871  0.00  0.00    +0.037 C 
ATOM      8  O   UNL     1      61.670 -14.675 -31.155  0.00  0.00    -0.352 OA
ENDROOT
BRANCH   1  10
ATOM      9  C   UNL     1      64.288 -12.805 -30.424  0.00  0.00    -0.055 C 
ATOM     10  C   UNL     1      63.545 -13.981 -29.752  0.00  0.00    +0.014 C 
ATOM     11  C   UNL     1      63.874 -13.974 -28.245  0.00  0.00    -0.055 C 
ATOM     12  C   UNL     1      64.130 -15.285 -30.350  0.00  0.00    -0.055 C 
ENDBRANCH   1  10
BRANCH   1  13
ATOM     13  O   UNL     1      61.279 -14.445 -28.902  0.00  0.00    -0.366 OA
ATOM     14  H   UNL     1      60.442 -13.968 -28.782  0.00  0.00    +0.000 HD
ENDBRANCH   1  13
TORSDOF 2
ENDMDL
MODEL 10
REMARK VINA RESULT:    -4.466     36.582     38.220
REMARK INTER + INTRA:          -4.942
REMARK INTER:                  -4.859
REMARK INTRA:                  -0.083
REMARK UNBOUND:                -0.084
REMARK  Name = cpd208.pdb
REMARK  7 active torsions:
REMARK  status: ('A' for Active; 'I' for Inactive)
REMARK    1  A    between atoms: C_1  and  C_2
REMARK    2  A    between atoms: C_2  and  C_3
REMARK    3  A    between atoms: C_2  and  C_4
REMARK    4  A    between atoms: C_2  and  C_5
REMARK    5  A    between atoms: C_5  and  O_6
REMARK    6  A    between atoms: N_8  and  C_9
REMARK    7  A    between atoms: N_8  and  C_10
REMARK                            x       y       z     vdW  Elec       q    Type
REMARK                         _______ _______ _______ _____ _____    ______ ____
ROOT
ATOM      1  C   UNL     1      63.393 -23.958  -6.565  0.00  0.00    +0.158 C 
ATOM      2  C   UNL     1      64.612 -23.684  -5.609  0.00  0.00    -0.033 C 
ATOM      3  N   UNL     1      64.350 -22.472  -4.638  0.00  0.00    +0.381 N 
ATOM      4  C   UNL     1      65.662 -21.753  -4.367  0.00  0.00    -0.100 C 
ATOM      5  C   UNL     1      63.790 -22.982  -3.312  0.00  0.00    -0.100 C 
ATOM      6  C   UNL     1      63.323 -21.505  -5.277  0.00  0.00    -0.064 C 
ATOM      7  C   UNL     1      63.431 -21.544  -6.803  0.00  0.00    +0.037 C 
ATOM      8  O   UNL     1      63.114 -22.812  -7.381  0.00  0.00    -0.352 OA
ENDROOT
BRANCH   1  10
ATOM      9  C   UNL     1      64.678 -26.158  -6.912  0.00  0.00    -0.055 C 
ATOM     10  C   UNL     1      63.630 -25.195  -7.513  0.00  0.00    +0.014 C 
ATOM     11  C   UNL     1      62.324 -25.980  -7.754  0.00  0.00    -0.055 C 
ATOM     12  C   UNL     1      64.167 -24.749  -8.895  0.00  0.00    -0.055 C 
ENDBRANCH   1  10
BRANCH   1  13
ATOM     13  O   UNL     1      62.243 -24.176  -5.748  0.00  0.00    -0.366 OA
ATOM     14  H   UNL     1      62.510 -24.205  -4.816  0.00  0.00    +0.000 HD
ENDBRANCH   1  13
TORSDOF 2
ENDMDL
MODEL 11
REMARK VINA RESULT:    -4.422      1.933      4.324
REMARK INTER + INTRA:          -4.894
REMARK INTER:                  -4.811
REMARK INTRA:                  -0.083
REMARK UNBOUND:                -0.084
REMARK  Name = cpd208.pdb
REMARK  7 active torsions:
REMARK  status: ('A' for Active; 'I' for Inactive)
REMARK    1  A    between atoms: C_1  and  C_2
REMARK    2  A    between atoms: C_2  and  C_3
REMARK    3  A    between atoms: C_2  and  C_4
REMARK    4  A    between atoms: C_2  and  C_5
REMARK    5  A    between atoms: C_5  and  O_6
REMARK    6  A    between atoms: N_8  and  C_9
REMARK    7  A    between atoms: N_8  and  C_10
REMARK                            x       y       z     vdW  Elec       q    Type
REMARK                         _______ _______ _______ _____ _____    ______ ____
ROOT
ATOM      1  C   UNL     1      35.564 -35.552 -31.009  0.00  0.00    +0.158 C 
ATOM      2  C   UNL     1      36.624 -35.805 -29.874  0.00  0.00    -0.033 C 
ATOM      3  N   UNL     1      37.402 -37.160 -30.075  0.00  0.00    +0.381 N 
ATOM      4  C   UNL     1      37.746 -37.748 -28.715  0.00  0.00    -0.100 C 
ATOM      5  C   UNL     1      38.700 -36.905 -30.837  0.00  0.00    -0.100 C 
ATOM      6  C   UNL     1      36.529 -38.147 -30.888  0.00  0.00    -0.064 C 
ATOM      7  C   UNL     1      35.043 -37.890 -30.621  0.00  0.00    +0.037 C 
ATOM      8  O   UNL     1      34.588 -36.601 -31.042  0.00  0.00    -0.352 OA
ENDROOT
BRANCH   1  10
ATOM      9  C   UNL     1      34.156 -34.076 -29.443  0.00  0.00    -0.055 C 
ATOM     10  C   UNL     1      34.810 -34.178 -30.839  0.00  0.00    +0.014 C 
ATOM     11  C   UNL     1      35.768 -32.983 -31.021  0.00  0.00    -0.055 C 
ATOM     12  C   UNL     1      33.675 -34.028 -31.881  0.00  0.00    -0.055 C 
ENDBRANCH   1  10
BRANCH   1  13
ATOM     13  O   UNL     1      36.252 -35.585 -32.259  0.00  0.00    -0.366 OA
ATOM     14  H   UNL     1      36.704 -34.738 -32.401  0.00  0.00    +0.000 HD
ENDBRANCH   1  13
TORSDOF 2
ENDMDL
MODEL 12
REMARK VINA RESULT:    -4.415     12.537     13.967
REMARK INTER + INTRA:          -4.886
REMARK INTER:                  -4.803
REMARK INTRA:                  -0.083
REMARK UNBOUND:                -0.084
REMARK  Name = cpd208.pdb
REMARK  7 active torsions:
REMARK  status: ('A' for Active; 'I' for Inactive)
REMARK    1  A    between atoms: C_1  and  C_2
REMARK    2  A    between atoms: C_2  and  C_3
REMARK    3  A    between atoms: C_2  and  C_4
REMARK    4  A    between atoms: C_2  and  C_5
REMARK    5  A    between atoms: C_5  and  O_6
REMARK    6  A    between atoms: N_8  and  C_9
REMARK    7  A    between atoms: N_8  and  C_10
REMARK                            x       y       z     vdW  Elec       q    Type
REMARK                         _______ _______ _______ _____ _____    ______ ____
ROOT
ATOM      1  C   UNL     1      40.048 -22.534 -35.997  0.00  0.00    +0.158 C 
ATOM      2  C   UNL     1      39.312 -21.586 -34.980  0.00  0.00    -0.033 C 
ATOM      3  N   UNL     1      38.972 -22.313 -33.624  0.00  0.00    +0.381 N 
ATOM      4  C   UNL     1      37.673 -21.752 -33.066  0.00  0.00    -0.100 C 
ATOM      5  C   UNL     1      40.085 -22.067 -32.610  0.00  0.00    -0.100 C 
ATOM      6  C   UNL     1      38.844 -23.837 -33.868  0.00  0.00    -0.064 C 
ATOM      7  C   UNL     1      38.345 -24.111 -35.289  0.00  0.00    +0.037 C 
ATOM      8  O   UNL     1      39.237 -23.672 -36.317  0.00  0.00    -0.352 OA
ENDROOT
BRANCH   1  10
ATOM      9  C   UNL     1      39.219 -21.034 -37.914  0.00  0.00    -0.055 C 
ATOM     10  C   UNL     1      40.430 -21.804 -37.340  0.00  0.00    +0.014 C 
ATOM     11  C   UNL     1      41.589 -20.808 -37.131  0.00  0.00    -0.055 C 
ATOM     12  C   UNL     1      40.875 -22.816 -38.424  0.00  0.00    -0.055 C 
ENDBRANCH   1  10
BRANCH   1  13
ATOM     13  O   UNL     1      41.223 -23.029 -35.354  0.00  0.00    -0.366 OA
ATOM     14  H   UNL     1      41.575 -23.780 -35.858  0.00  0.00    +0.000 HD
ENDBRANCH   1  13
TORSDOF 2
ENDMDL
MODEL 13
REMARK VINA RESULT:    -4.413     13.024     14.549
REMARK INTER + INTRA:          -4.884
REMARK INTER:                  -4.802
REMARK INTRA:                  -0.082
REMARK UNBOUND:                -0.084
REMARK  Name = cpd208.pdb
REMARK  7 active torsions:
REMARK  status: ('A' for Active; 'I' for Inactive)
REMARK    1  A    between atoms: C_1  and  C_2
REMARK    2  A    between atoms: C_2  and  C_3
REMARK    3  A    between atoms: C_2  and  C_4
REMARK    4  A    between atoms: C_2  and  C_5
REMARK    5  A    between atoms: C_5  and  O_6
REMARK    6  A    between atoms: N_8  and  C_9
REMARK    7  A    between atoms: N_8  and  C_10
REMARK                            x       y       z     vdW  Elec       q    Type
REMARK                         _______ _______ _______ _____ _____    ______ ____
ROOT
ATOM      1  C   UNL     1      40.266 -22.366 -35.071  0.00  0.00    +0.158 C 
ATOM      2  C   UNL     1      39.292 -21.874 -36.205  0.00  0.00    -0.033 C 
ATOM      3  N   UNL     1      40.067 -21.332 -37.465  0.00  0.00    +0.381 N 
ATOM      4  C   UNL     1      39.265 -20.208 -38.102  0.00  0.00    -0.100 C 
ATOM      5  C   UNL     1      40.238 -22.451 -38.489  0.00  0.00    -0.100 C 
ATOM      6  C   UNL     1      41.466 -20.826 -37.037  0.00  0.00    -0.064 C 
ATOM      7  C   UNL     1      41.429 -20.303 -35.599  0.00  0.00    +0.037 C 
ATOM      8  O   UNL     1      41.111 -21.298 -34.623  0.00  0.00    -0.352 OA
ENDROOT
BRANCH   1  10
ATOM      9  C   UNL     1      38.785 -21.825 -33.039  0.00  0.00    -0.055 C 
ATOM     10  C   UNL     1      39.499 -22.948 -33.823  0.00  0.00    +0.014 C 
ATOM     11  C   UNL     1      38.448 -23.995 -34.246  0.00  0.00    -0.055 C 
ATOM     12  C   UNL     1      40.473 -23.638 -32.837  0.00  0.00    -0.055 C 
ENDBRANCH   1  10
BRANCH   1  13
ATOM     13  O   UNL     1      41.118 -23.362 -35.635  0.00  0.00    -0.366 OA
ATOM     14  H   UNL     1      41.973 -22.965 -35.863  0.00  0.00    +0.000 HD
ENDBRANCH   1  13
TORSDOF 2
ENDMDL
MODEL 14
REMARK VINA RESULT:    -4.349     22.449     24.427
REMARK INTER + INTRA:          -4.815
REMARK INTER:                  -4.730
REMARK INTRA:                  -0.085
REMARK UNBOUND:                -0.084
REMARK  Name = cpd208.pdb
REMARK  7 active torsions:
REMARK  status: ('A' for Active; 'I' for Inactive)
REMARK    1  A    between atoms: C_1  and  C_2
REMARK    2  A    between atoms: C_2  and  C_3
REMARK    3  A    between atoms: C_2  and  C_4
REMARK    4  A    between atoms: C_2  and  C_5
REMARK    5  A    between atoms: C_5  and  O_6
REMARK    6  A    between atoms: N_8  and  C_9
REMARK    7  A    between atoms: N_8  and  C_10
REMARK                            x       y       z     vdW  Elec       q    Type
REMARK                         _______ _______ _______ _____ _____    ______ ____
ROOT
ATOM      1  C   UNL     1      54.474 -51.869 -29.021  0.00  0.00    +0.158 C 
ATOM      2  C   UNL     1      53.803 -52.988 -29.901  0.00  0.00    -0.033 C 
ATOM      3  N   UNL     1      54.367 -54.422 -29.575  0.00  0.00    +0.381 N 
ATOM      4  C   UNL     1      54.365 -55.261 -30.844  0.00  0.00    -0.100 C 
ATOM      5  C   UNL     1      53.481 -55.105 -28.538  0.00  0.00    -0.100 C 
ATOM      6  C   UNL     1      55.802 -54.301 -29.007  0.00  0.00    -0.064 C 
ATOM      7  C   UNL     1      56.505 -53.070 -29.586  0.00  0.00    +0.037 C 
ATOM      8  O   UNL     1      55.890 -51.827 -29.236  0.00  0.00    -0.352 OA
ENDROOT
BRANCH   1  10
ATOM      9  C   UNL     1      52.847 -50.485 -30.452  0.00  0.00    -0.055 C 
ATOM     10  C   UNL     1      53.885 -50.435 -29.310  0.00  0.00    +0.014 C 
ATOM     11  C   UNL     1      53.209 -49.840 -28.057  0.00  0.00    -0.055 C 
ATOM     12  C   UNL     1      54.996 -49.451 -29.751  0.00  0.00    -0.055 C 
ENDBRANCH   1  10
BRANCH   1  13
ATOM     13  O   UNL     1      54.272 -52.217 -27.651  0.00  0.00    -0.366 OA
ATOM     14  H   UNL     1      53.614 -51.622 -27.260  0.00  0.00    +0.000 HD
ENDBRANCH   1  13
TORSDOF 2
ENDMDL
MODEL 15
REMARK VINA RESULT:    -4.317     36.406     38.078
REMARK INTER + INTRA:          -4.779
REMARK INTER:                  -4.696
REMARK INTRA:                  -0.084
REMARK UNBOUND:                -0.084
REMARK  Name = cpd208.pdb
REMARK  7 active torsions:
REMARK  status: ('A' for Active; 'I' for Inactive)
REMARK    1  A    between atoms: C_1  and  C_2
REMARK    2  A    between atoms: C_2  and  C_3
REMARK    3  A    between atoms: C_2  and  C_4
REMARK    4  A    between atoms: C_2  and  C_5
REMARK    5  A    between atoms: C_5  and  O_6
REMARK    6  A    between atoms: N_8  and  C_9
REMARK    7  A    between atoms: N_8  and  C_10
REMARK                            x       y       z     vdW  Elec       q    Type
REMARK                         _______ _______ _______ _____ _____    ______ ____
ROOT
ATOM      1  C   UNL     1      64.029 -23.121  -6.432  0.00  0.00    +0.158 C 
ATOM      2  C   UNL     1      63.476 -24.515  -5.954  0.00  0.00    -0.033 C 
ATOM      3  N   UNL     1      63.744 -25.656  -7.006  0.00  0.00    +0.381 N 
ATOM      4  C   UNL     1      62.604 -26.662  -6.956  0.00  0.00    -0.100 C 
ATOM      5  C   UNL     1      65.046 -26.377  -6.669  0.00  0.00    -0.100 C 
ATOM      6  C   UNL     1      63.863 -25.042  -8.422  0.00  0.00    -0.064 C 
ATOM      7  C   UNL     1      63.006 -23.778  -8.531  0.00  0.00    +0.037 C 
ATOM      8  O   UNL     1      63.412 -22.719  -7.661  0.00  0.00    -0.352 OA
ENDROOT
BRANCH   1  10
ATOM      9  C   UNL     1      65.149 -21.390  -4.895  0.00  0.00    -0.055 C 
ATOM     10  C   UNL     1      63.803 -21.981  -5.367  0.00  0.00    +0.014 C 
ATOM     11  C   UNL     1      62.938 -20.838  -5.939  0.00  0.00    -0.055 C 
ATOM     12  C   UNL     1      63.082 -22.524  -4.108  0.00  0.00    -0.055 C 
ENDBRANCH   1  10
BRANCH   1  13
ATOM     13  O   UNL     1      65.423 -23.277  -6.698  0.00  0.00    -0.366 OA
ATOM     14  H   UNL     1      65.679 -22.697  -7.432  0.00  0.00    +0.000 HD
ENDBRANCH   1  13
TORSDOF 2
ENDMDL
MODEL 16
REMARK VINA RESULT:    -4.272     17.261     18.691
REMARK INTER + INTRA:          -4.731
REMARK INTER:                  -4.649
REMARK INTRA:                  -0.082
REMARK UNBOUND:                -0.084
REMARK  Name = cpd208.pdb
REMARK  7 active torsions:
REMARK  status: ('A' for Active; 'I' for Inactive)
REMARK    1  A    between atoms: C_1  and  C_2
REMARK    2  A    between atoms: C_2  and  C_3
REMARK    3  A    between atoms: C_2  and  C_4
REMARK    4  A    between atoms: C_2  and  C_5
REMARK    5  A    between atoms: C_5  and  O_6
REMARK    6  A    between atoms: N_8  and  C_9
REMARK    7  A    between atoms: N_8  and  C_10
REMARK                            x       y       z     vdW  Elec       q    Type
REMARK                         _______ _______ _______ _____ _____    ______ ____
ROOT
ATOM      1  C   UNL     1      44.628 -20.919 -40.625  0.00  0.00    +0.158 C 
ATOM      2  C   UNL     1      44.750 -19.598 -39.780  0.00  0.00    -0.033 C 
ATOM      3  N   UNL     1      44.175 -19.766 -38.323  0.00  0.00    +0.381 N 
ATOM      4  C   UNL     1      43.572 -18.446 -37.866  0.00  0.00    -0.100 C 
ATOM      5  C   UNL     1      45.299 -20.146 -37.362  0.00  0.00    -0.100 C 
ATOM      6  C   UNL     1      43.105 -20.885 -38.310  0.00  0.00    -0.064 C 
ATOM      7  C   UNL     1      42.400 -20.965 -39.667  0.00  0.00    +0.037 C 
ATOM      8  O   UNL     1      43.259 -21.323 -40.752  0.00  0.00    -0.352 OA
ENDROOT
BRANCH   1  10
ATOM      9  C   UNL     1      46.652 -20.153 -42.014  0.00  0.00    -0.055 C 
ATOM     10  C   UNL     1      45.239 -20.773 -42.071  0.00  0.00    +0.014 C 
ATOM     11  C   UNL     1      45.330 -22.137 -42.785  0.00  0.00    -0.055 C 
ATOM     12  C   UNL     1      44.373 -19.842 -42.955  0.00  0.00    -0.055 C 
ENDBRANCH   1  10
BRANCH   1  13
ATOM     13  O   UNL     1      45.301 -21.955 -39.909  0.00  0.00    -0.366 OA
ATOM     14  H   UNL     1      44.755 -22.237 -39.159  0.00  0.00    +0.000 HD
ENDBRANCH   1  13
TORSDOF 2
ENDMDL
MODEL 17
REMARK VINA RESULT:    -4.207     23.146     24.827
REMARK INTER + INTRA:          -4.660
REMARK INTER:                  -4.578
REMARK INTRA:                  -0.082
REMARK UNBOUND:                -0.084
REMARK  Name = cpd208.pdb
REMARK  7 active torsions:
REMARK  status: ('A' for Active; 'I' for Inactive)
REMARK    1  A    between atoms: C_1  and  C_2
REMARK    2  A    between atoms: C_2  and  C_3
REMARK    3  A    between atoms: C_2  and  C_4
REMARK    4  A    between atoms: C_2  and  C_5
REMARK    5  A    between atoms: C_5  and  O_6
REMARK    6  A    between atoms: N_8  and  C_9
REMARK    7  A    between atoms: N_8  and  C_10
REMARK                            x       y       z     vdW  Elec       q    Type
REMARK                         _______ _______ _______ _____ _____    ______ ____
ROOT
ATOM      1  C   UNL     1      47.478 -32.918 -53.825  0.00  0.00    +0.158 C 
ATOM      2  C   UNL     1      45.955 -33.178 -54.120  0.00  0.00    -0.033 C 
ATOM      3  N   UNL     1      45.615 -34.714 -54.200  0.00  0.00    +0.381 N 
ATOM      4  C   UNL     1      44.496 -34.928 -55.209  0.00  0.00    -0.100 C 
ATOM      5  C   UNL     1      45.144 -35.214 -52.837  0.00  0.00    -0.100 C 
ATOM      6  C   UNL     1      46.879 -35.506 -54.615  0.00  0.00    -0.064 C 
ATOM      7  C   UNL     1      47.782 -34.645 -55.503  0.00  0.00    +0.037 C 
ATOM      8  O   UNL     1      48.302 -33.482 -54.854  0.00  0.00    -0.352 OA
ENDROOT
BRANCH   1  10
ATOM      9  C   UNL     1      46.969 -30.716 -52.599  0.00  0.00    -0.055 C 
ATOM     10  C   UNL     1      47.820 -31.384 -53.701  0.00  0.00    +0.014 C 
ATOM     11  C   UNL     1      49.311 -31.163 -53.373  0.00  0.00    -0.055 C 
ATOM     12  C   UNL     1      47.518 -30.633 -55.022  0.00  0.00    -0.055 C 
ENDBRANCH   1  10
BRANCH   1  13
ATOM     13  O   UNL     1      47.806 -33.596 -52.612  0.00  0.00    -0.366 OA
ATOM     14  H   UNL     1      47.514 -33.063 -51.856  0.00  0.00    +0.000 HD
ENDBRANCH   1  13
TORSDOF 2
ENDMDL
MODEL 18
REMARK VINA RESULT:    -4.116     18.105     19.588
REMARK INTER + INTRA:          -4.561
REMARK INTER:                  -4.478
REMARK INTRA:                  -0.083
REMARK UNBOUND:                -0.084
REMARK  Name = cpd208.pdb
REMARK  7 active torsions:
REMARK  status: ('A' for Active; 'I' for Inactive)
REMARK    1  A    between atoms: C_1  and  C_2
REMARK    2  A    between atoms: C_2  and  C_3
REMARK    3  A    between atoms: C_2  and  C_4
REMARK    4  A    between atoms: C_2  and  C_5
REMARK    5  A    between atoms: C_5  and  O_6
REMARK    6  A    between atoms: N_8  and  C_9
REMARK    7  A    between atoms: N_8  and  C_10
REMARK                            x       y       z     vdW  Elec       q    Type
REMARK                         _______ _______ _______ _____ _____    ______ ____
ROOT
ATOM      1  C   UNL     1      45.492 -18.172 -33.966  0.00  0.00    +0.158 C 
ATOM      2  C   UNL     1      45.246 -17.902 -35.497  0.00  0.00    -0.033 C 
ATOM      3  N   UNL     1      46.194 -18.762 -36.415  0.00  0.00    +0.381 N 
ATOM      4  C   UNL     1      46.525 -17.973 -37.673  0.00  0.00    -0.100 C 
ATOM      5  C   UNL     1      45.490 -20.054 -36.821  0.00  0.00    -0.100 C 
ATOM      6  C   UNL     1      47.487 -19.117 -35.641  0.00  0.00    -0.064 C 
ATOM      7  C   UNL     1      47.821 -18.020 -34.627  0.00  0.00    +0.037 C 
ATOM      8  O   UNL     1      46.841 -17.855 -33.600  0.00  0.00    -0.352 OA
ENDROOT
BRANCH   1  10
ATOM      9  C   UNL     1      43.214 -18.129 -32.774  0.00  0.00    -0.055 C 
ATOM     10  C   UNL     1      44.519 -17.347 -33.040  0.00  0.00    +0.014 C 
ATOM     11  C   UNL     1      45.177 -17.014 -31.685  0.00  0.00    -0.055 C 
ATOM     12  C   UNL     1      44.115 -16.006 -33.703  0.00  0.00    -0.055 C 
ENDBRANCH   1  10
BRANCH   1  13
ATOM     13  O   UNL     1      45.318 -19.571 -33.740  0.00  0.00    -0.366 OA
ATOM     14  H   UNL     1      44.697 -19.929 -34.393  0.00  0.00    +0.000 HD
ENDBRANCH   1  13
TORSDOF 2
ENDMDL
MODEL 19
REMARK VINA RESULT:    -4.015     31.779     33.591
REMARK INTER + INTRA:          -4.451
REMARK INTER:                  -4.367
REMARK INTRA:                  -0.084
REMARK UNBOUND:                -0.084
REMARK  Name = cpd208.pdb
REMARK  7 active torsions:
REMARK  status: ('A' for Active; 'I' for Inactive)
REMARK    1  A    between atoms: C_1  and  C_2
REMARK    2  A    between atoms: C_2  and  C_3
REMARK    3  A    between atoms: C_2  and  C_4
REMARK    4  A    between atoms: C_2  and  C_5
REMARK    5  A    between atoms: C_5  and  O_6
REMARK    6  A    between atoms: N_8  and  C_9
REMARK    7  A    between atoms: N_8  and  C_10
REMARK                            x       y       z     vdW  Elec       q    Type
REMARK                         _______ _______ _______ _____ _____    ______ ____
ROOT
ATOM      1  C   UNL     1      62.090 -13.518 -30.071  0.00  0.00    +0.158 C 
ATOM      2  C   UNL     1      63.417 -12.791 -30.501  0.00  0.00    -0.033 C 
ATOM      3  N   UNL     1      64.663 -13.283 -29.673  0.00  0.00    +0.381 N 
ATOM      4  C   UNL     1      65.637 -12.127 -29.497  0.00  0.00    -0.100 C 
ATOM      5  C   UNL     1      65.373 -14.408 -30.422  0.00  0.00    -0.100 C 
ATOM      6  C   UNL     1      64.197 -13.814 -28.296  0.00  0.00    -0.064 C 
ATOM      7  C   UNL     1      62.934 -13.079 -27.839  0.00  0.00    +0.037 C 
ATOM      8  O   UNL     1      61.801 -13.281 -28.687  0.00  0.00    -0.352 OA
ENDROOT
BRANCH   1  10
ATOM      9  C   UNL     1      60.600 -14.028 -32.104  0.00  0.00    -0.055 C 
ATOM     10  C   UNL     1      60.844 -13.063 -30.923  0.00  0.00    +0.014 C 
ATOM     11  C   UNL     1      59.564 -13.004 -30.064  0.00  0.00    -0.055 C 
ATOM     12  C   UNL     1      61.064 -11.654 -31.529  0.00  0.00    -0.055 C 
ENDBRANCH   1  10
BRANCH   1  13
ATOM     13  O   UNL     1      62.299 -14.923 -30.217  0.00  0.00    -0.366 OA
ATOM     14  H   UNL     1      62.291 -15.155 -31.159  0.00  0.00    +0.000 HD
ENDBRANCH   1  13
TORSDOF 2
ENDMDL
MODEL 20
REMARK VINA RESULT:    -3.920     31.674     33.500
REMARK INTER + INTRA:          -4.347
REMARK INTER:                  -4.263
REMARK INTRA:                  -0.084
REMARK UNBOUND:                -0.084
REMARK  Name = cpd208.pdb
REMARK  7 active torsions:
REMARK  status: ('A' for Active; 'I' for Inactive)
REMARK    1  A    between atoms: C_1  and  C_2
REMARK    2  A    between atoms: C_2  and  C_3
REMARK    3  A    between atoms: C_2  and  C_4
REMARK    4  A    between atoms: C_2  and  C_5
REMARK    5  A    between atoms: C_5  and  O_6
REMARK    6  A    between atoms: N_8  and  C_9
REMARK    7  A    between atoms: N_8  and  C_10
REMARK                            x       y       z     vdW  Elec       q    Type
REMARK                         _______ _______ _______ _____ _____    ______ ____
ROOT
ATOM      1  C   UNL     1      61.778 -12.541 -30.333  0.00  0.00    +0.158 C 
ATOM      2  C   UNL     1      62.377 -13.951 -29.973  0.00  0.00    -0.033 C 
ATOM      3  N   UNL     1      63.872 -13.858 -29.486  0.00  0.00    +0.381 N 
ATOM      4  C   UNL     1      64.619 -15.110 -29.919  0.00  0.00    -0.100 C 
ATOM      5  C   UNL     1      63.918 -13.765 -27.963  0.00  0.00    -0.100 C 
ATOM      6  C   UNL     1      64.537 -12.594 -30.085  0.00  0.00    -0.064 C 
ATOM      7  C   UNL     1      63.916 -12.256 -31.443  0.00  0.00    +0.037 C 
ATOM      8  O   UNL     1      62.528 -11.919 -31.384  0.00  0.00    -0.352 OA
ENDROOT
BRANCH   1  10
ATOM      9  C   UNL     1      59.935 -14.014 -31.358  0.00  0.00    -0.055 C 
ATOM     10  C   UNL     1      60.268 -12.620 -30.781  0.00  0.00    +0.014 C 
ATOM     11  C   UNL     1      59.315 -12.336 -29.602  0.00  0.00    -0.055 C 
ATOM     12  C   UNL     1      59.957 -11.586 -31.891  0.00  0.00    -0.055 C 
ENDBRANCH   1  10
BRANCH   1  13
ATOM     13  O   UNL     1      61.906 -11.709 -29.181  0.00  0.00    -0.366 OA
ATOM     14  H   UNL     1      61.141 -11.840 -28.600  0.00  0.00    +0.000 HD
ENDBRANCH   1  13
TORSDOF 2
ENDMDL
