MODEL 1
REMARK VINA RESULT:    -6.148      0.000      0.000
REMARK INTER + INTRA:         -12.685
REMARK INTER:                 -10.282
REMARK INTRA:                  -2.403
REMARK UNBOUND:                -2.403
REMARK  Name = cpd288.pdb
REMARK  16 active torsions:
REMARK  status: ('A' for Active; 'I' for Inactive)
REMARK    1  A    between atoms: C_1  and  C_2
REMARK    2  A    between atoms: C_2  and  C_3
REMARK    3  A    between atoms: C_2  and  C_20
REMARK    4  A    between atoms: C_3  and  C_4
REMARK    5  A    between atoms: C_4  and  C_5
REMARK    6  A    between atoms: C_6  and  C_7
REMARK    7  A    between atoms: C_7  and  O_8
REMARK    8  A    between atoms: C_12  and  C_13
REMARK    9  A    between atoms: C_12  and  C_14
REMARK   10  A    between atoms: C_18  and  C_19
REMARK   11  A    between atoms: C_20  and  C_21
REMARK   12  A    between atoms: C_21  and  O_23
REMARK   13  A    between atoms: O_23  and  C_24
REMARK   14  A    between atoms: C_24  and  C_25
REMARK   15  A    between atoms: C_25  and  C_26
REMARK   16  A    between atoms: C_26  and  N_27
REMARK                            x       y       z     vdW  Elec       q    Type
REMARK                         _______ _______ _______ _____ _____    ______ ____
ROOT
ATOM      1  C   UNL     1      45.238 -18.239 -36.441  0.00  0.00    -0.049 C 
ENDROOT
BRANCH   1   3
ATOM      2  C   UNL     1      46.061 -20.189 -35.026  0.00  0.00    -0.062 C 
ATOM      3  C   UNL     1      44.855 -19.346 -35.437  0.00  0.00    -0.034 C 
BRANCH   3   4
ATOM      4  C   UNL     1      44.127 -18.768 -34.204  0.00  0.00    +0.048 C 
BRANCH   4   5
ATOM      5  C   UNL     1      42.937 -19.582 -33.740  0.00  0.00    +0.307 C 
ATOM      6  O   UNL     1      42.621 -20.620 -34.318  0.00  0.00    -0.251 OA
BRANCH   5   7
ATOM      7  O   UNL     1      42.192 -19.129 -32.709  0.00  0.00    -0.465 OA
BRANCH   7   8
ATOM      8  C   UNL     1      40.904 -18.493 -32.829  0.00  0.00    +0.094 C 
BRANCH   8   9
ATOM      9  C   UNL     1      39.865 -19.244 -32.001  0.00  0.00    -0.006 C 
BRANCH   9  10
ATOM     10  C   UNL     1      38.954 -20.086 -32.898  0.00  0.00    +0.002 C 
BRANCH  10  11
ATOM     11  N   UNL     1      39.709 -21.091 -33.654  0.00  0.00    -0.298 N 
ATOM     12  C   UNL     1      39.065 -21.365 -34.957  0.00  0.00    +0.022 C 
ATOM     13  C   UNL     1      39.542 -22.695 -35.557  0.00  0.00    +0.060 C 
ATOM     14  O   UNL     1      39.169 -23.826 -34.757  0.00  0.00    -0.377 OA
ATOM     15  C   UNL     1      39.036 -23.511 -33.365  0.00  0.00    +0.060 C 
ATOM     16  C   UNL     1      39.939 -22.350 -32.913  0.00  0.00    +0.022 C 
ATOM     17  H   UNL     1      40.631 -20.683 -33.812  0.00  0.00    +0.000 HD
ENDBRANCH  10  11
ENDBRANCH   9  10
ENDBRANCH   8   9
ENDBRANCH   7   8
ENDBRANCH   5   7
ENDBRANCH   4   5
ENDBRANCH   3   4
ENDBRANCH   1   3
BRANCH   1  18
ATOM     18  C   UNL     1      44.700 -18.369 -37.883  0.00  0.00    -0.046 C 
BRANCH  18  19
ATOM     19  C   UNL     1      44.525 -19.797 -38.506  0.00  0.00    -0.012 C 
ATOM     20  C   UNL     1      43.135 -20.021 -39.124  0.00  0.00    -0.045 C 
ATOM     21  C   UNL     1      42.991 -20.665 -40.296  0.00  0.00    -0.082 C 
ATOM     22  C   UNL     1      44.094 -21.245 -41.105  0.00  0.00    -0.031 C 
ATOM     23  C   UNL     1      45.430 -21.434 -40.350  0.00  0.00    -0.027 C 
ATOM     24  C   UNL     1      46.603 -21.878 -41.330  0.00  0.00    -0.031 C 
ATOM     25  C   UNL     1      47.485 -22.954 -40.649  0.00  0.00    -0.060 C 
ATOM     26  C   UNL     1      46.085 -22.560 -42.625  0.00  0.00    -0.060 C 
ATOM     27  C   UNL     1      47.496 -20.679 -41.749  0.00  0.00    -0.048 C 
ATOM     28  C   UNL     1      46.748 -19.353 -41.778  0.00  0.00    -0.052 C 
ATOM     29  C   UNL     1      46.074 -18.972 -40.453  0.00  0.00    -0.047 C 
ATOM     30  C   UNL     1      45.748 -20.152 -39.494  0.00  0.00    -0.022 C 
ATOM     31  C   UNL     1      46.974 -20.415 -38.574  0.00  0.00    -0.059 C 
BRANCH  20  32
ATOM     32  C   UNL     1      41.928 -19.574 -38.327  0.00  0.00    +0.066 C 
BRANCH  32  33
ATOM     33  O   UNL     1      41.738 -20.330 -37.138  0.00  0.00    -0.391 OA
ATOM     34  H   UNL     1      40.933 -20.029 -36.688  0.00  0.00    +0.000 HD
ENDBRANCH  32  33
ENDBRANCH  20  32
ENDBRANCH  18  19
ENDBRANCH   1  18
TORSDOF 12
ENDMDL
MODEL 2
REMARK VINA RESULT:    -6.030      1.493      2.108
REMARK INTER + INTRA:         -12.488
REMARK INTER:                 -10.533
REMARK INTRA:                  -1.955
REMARK UNBOUND:                -2.403
REMARK  Name = cpd288.pdb
REMARK  16 active torsions:
REMARK  status: ('A' for Active; 'I' for Inactive)
REMARK    1  A    between atoms: C_1  and  C_2
REMARK    2  A    between atoms: C_2  and  C_3
REMARK    3  A    between atoms: C_2  and  C_20
REMARK    4  A    between atoms: C_3  and  C_4
REMARK    5  A    between atoms: C_4  and  C_5
REMARK    6  A    between atoms: C_6  and  C_7
REMARK    7  A    between atoms: C_7  and  O_8
REMARK    8  A    between atoms: C_12  and  C_13
REMARK    9  A    between atoms: C_12  and  C_14
REMARK   10  A    between atoms: C_18  and  C_19
REMARK   11  A    between atoms: C_20  and  C_21
REMARK   12  A    between atoms: C_21  and  O_23
REMARK   13  A    between atoms: O_23  and  C_24
REMARK   14  A    between atoms: C_24  and  C_25
REMARK   15  A    between atoms: C_25  and  C_26
REMARK   16  A    between atoms: C_26  and  N_27
REMARK                            x       y       z     vdW  Elec       q    Type
REMARK                         _______ _______ _______ _____ _____    ______ ____
ROOT
ATOM      1  C   UNL     1      43.468 -20.175 -35.102  0.00  0.00    -0.049 C 
ENDROOT
BRANCH   1   3
ATOM      2  C   UNL     1      44.707 -17.955 -35.256  0.00  0.00    -0.062 C 
ATOM      3  C   UNL     1      44.431 -19.193 -34.403  0.00  0.00    -0.034 C 
BRANCH   3   4
ATOM      4  C   UNL     1      43.924 -18.804 -32.997  0.00  0.00    +0.048 C 
BRANCH   4   5
ATOM      5  C   UNL     1      42.875 -17.713 -32.988  0.00  0.00    +0.307 C 
ATOM      6  O   UNL     1      43.122 -16.606 -32.511  0.00  0.00    -0.251 OA
BRANCH   5   7
ATOM      7  O   UNL     1      41.641 -17.982 -33.467  0.00  0.00    -0.465 OA
BRANCH   7   8
ATOM      8  C   UNL     1      40.405 -17.734 -32.771  0.00  0.00    +0.094 C 
BRANCH   8   9
ATOM      9  C   UNL     1      39.977 -18.975 -31.994  0.00  0.00    -0.006 C 
BRANCH   9  10
ATOM     10  C   UNL     1      38.970 -19.805 -32.798  0.00  0.00    +0.002 C 
BRANCH  10  11
ATOM     11  N   UNL     1      39.139 -21.243 -32.565  0.00  0.00    -0.298 N 
ATOM     12  C   UNL     1      40.470 -21.699 -33.024  0.00  0.00    +0.022 C 
ATOM     13  C   UNL     1      40.510 -23.221 -33.221  0.00  0.00    +0.060 C 
ATOM     14  O   UNL     1      39.628 -23.666 -34.261  0.00  0.00    -0.377 OA
ATOM     15  C   UNL     1      38.496 -22.807 -34.444  0.00  0.00    +0.060 C 
ATOM     16  C   UNL     1      38.071 -22.075 -33.159  0.00  0.00    +0.022 C 
ATOM     17  H   UNL     1      39.068 -21.370 -31.556  0.00  0.00    +0.000 HD
ENDBRANCH  10  11
ENDBRANCH   9  10
ENDBRANCH   8   9
ENDBRANCH   7   8
ENDBRANCH   5   7
ENDBRANCH   4   5
ENDBRANCH   3   4
ENDBRANCH   1   3
BRANCH   1  18
ATOM     18  C   UNL     1      43.030 -19.836 -36.545  0.00  0.00    -0.046 C 
BRANCH  18  19
ATOM     19  C   UNL     1      43.220 -20.911 -37.671  0.00  0.00    -0.012 C 
ATOM     20  C   UNL     1      41.893 -21.499 -38.176  0.00  0.00    -0.045 C 
ATOM     21  C   UNL     1      41.684 -21.721 -39.486  0.00  0.00    -0.082 C 
ATOM     22  C   UNL     1      42.667 -21.469 -40.573  0.00  0.00    -0.031 C 
ATOM     23  C   UNL     1      44.130 -21.296 -40.105  0.00  0.00    -0.027 C 
ATOM     24  C   UNL     1      45.081 -20.844 -41.298  0.00  0.00    -0.031 C 
ATOM     25  C   UNL     1      46.436 -21.590 -41.210  0.00  0.00    -0.060 C 
ATOM     26  C   UNL     1      44.519 -21.220 -42.695  0.00  0.00    -0.060 C 
ATOM     27  C   UNL     1      45.341 -19.314 -41.287  0.00  0.00    -0.048 C 
ATOM     28  C   UNL     1      44.189 -18.511 -40.696  0.00  0.00    -0.052 C 
ATOM     29  C   UNL     1      43.798 -18.914 -39.268  0.00  0.00    -0.047 C 
ATOM     30  C   UNL     1      44.182 -20.360 -38.841  0.00  0.00    -0.022 C 
ATOM     31  C   UNL     1      45.617 -20.350 -38.241  0.00  0.00    -0.059 C 
BRANCH  20  32
ATOM     32  C   UNL     1      40.862 -21.903 -37.144  0.00  0.00    +0.066 C 
BRANCH  32  33
ATOM     33  O   UNL     1      41.116 -23.184 -36.580  0.00  0.00    -0.391 OA
ATOM     34  H   UNL     1      40.288 -23.557 -36.240  0.00  0.00    +0.000 HD
ENDBRANCH  32  33
ENDBRANCH  20  32
ENDBRANCH  18  19
ENDBRANCH   1  18
TORSDOF 12
ENDMDL
MODEL 3
REMARK VINA RESULT:    -5.915      2.184      3.214
REMARK INTER + INTRA:         -12.295
REMARK INTER:                 -10.749
REMARK INTRA:                  -1.546
REMARK UNBOUND:                -2.403
REMARK  Name = cpd288.pdb
REMARK  16 active torsions:
REMARK  status: ('A' for Active; 'I' for Inactive)
REMARK    1  A    between atoms: C_1  and  C_2
REMARK    2  A    between atoms: C_2  and  C_3
REMARK    3  A    between atoms: C_2  and  C_20
REMARK    4  A    between atoms: C_3  and  C_4
REMARK    5  A    between atoms: C_4  and  C_5
REMARK    6  A    between atoms: C_6  and  C_7
REMARK    7  A    between atoms: C_7  and  O_8
REMARK    8  A    between atoms: C_12  and  C_13
REMARK    9  A    between atoms: C_12  and  C_14
REMARK   10  A    between atoms: C_18  and  C_19
REMARK   11  A    between atoms: C_20  and  C_21
REMARK   12  A    between atoms: C_21  and  O_23
REMARK   13  A    between atoms: O_23  and  C_24
REMARK   14  A    between atoms: C_24  and  C_25
REMARK   15  A    between atoms: C_25  and  C_26
REMARK   16  A    between atoms: C_26  and  N_27
REMARK                            x       y       z     vdW  Elec       q    Type
REMARK                         _______ _______ _______ _____ _____    ______ ____
ROOT
ATOM      1  C   UNL     1      45.994 -17.537 -35.889  0.00  0.00    -0.049 C 
ENDROOT
BRANCH   1   3
ATOM      2  C   UNL     1      46.016 -19.869 -34.867  0.00  0.00    -0.062 C 
ATOM      3  C   UNL     1      45.435 -18.458 -34.785  0.00  0.00    -0.034 C 
BRANCH   3   4
ATOM      4  C   UNL     1      45.636 -17.849 -33.380  0.00  0.00    +0.048 C 
BRANCH   4   5
ATOM      5  C   UNL     1      44.363 -17.697 -32.575  0.00  0.00    +0.307 C 
ATOM      6  O   UNL     1      44.276 -16.847 -31.690  0.00  0.00    -0.251 OA
BRANCH   5   7
ATOM      7  O   UNL     1      43.333 -18.540 -32.806  0.00  0.00    -0.465 OA
BRANCH   7   8
ATOM      8  C   UNL     1      41.949 -18.156 -32.909  0.00  0.00    +0.094 C 
BRANCH   8   9
ATOM      9  C   UNL     1      41.048 -19.287 -32.423  0.00  0.00    -0.006 C 
BRANCH   9  10
ATOM     10  C   UNL     1      41.512 -20.636 -32.980  0.00  0.00    +0.002 C 
BRANCH  10  11
ATOM     11  N   UNL     1      40.564 -21.177 -33.961  0.00  0.00    -0.298 N 
ATOM     12  C   UNL     1      40.426 -22.642 -33.807  0.00  0.00    +0.022 C 
ATOM     13  C   UNL     1      39.825 -23.288 -35.063  0.00  0.00    +0.060 C 
ATOM     14  O   UNL     1      40.673 -23.153 -36.213  0.00  0.00    -0.377 OA
ATOM     15  C   UNL     1      41.506 -21.988 -36.162  0.00  0.00    +0.060 C 
ATOM     16  C   UNL     1      40.887 -20.829 -35.361  0.00  0.00    +0.022 C 
ATOM     17  H   UNL     1      39.670 -20.730 -33.757  0.00  0.00    +0.000 HD
ENDBRANCH  10  11
ENDBRANCH   9  10
ENDBRANCH   8   9
ENDBRANCH   7   8
ENDBRANCH   5   7
ENDBRANCH   4   5
ENDBRANCH   3   4
ENDBRANCH   1   3
BRANCH   1  18
ATOM     18  C   UNL     1      46.707 -18.209 -37.084  0.00  0.00    -0.046 C 
BRANCH  18  19
ATOM     19  C   UNL     1      46.029 -18.167 -38.497  0.00  0.00    -0.012 C 
ATOM     20  C   UNL     1      46.811 -17.325 -39.519  0.00  0.00    -0.045 C 
ATOM     21  C   UNL     1      46.964 -17.738 -40.789  0.00  0.00    -0.082 C 
ATOM     22  C   UNL     1      46.406 -18.990 -41.364  0.00  0.00    -0.031 C 
ATOM     23  C   UNL     1      45.278 -19.645 -40.535  0.00  0.00    -0.027 C 
ATOM     24  C   UNL     1      44.870 -21.069 -41.116  0.00  0.00    -0.031 C 
ATOM     25  C   UNL     1      43.332 -21.245 -41.063  0.00  0.00    -0.060 C 
ATOM     26  C   UNL     1      45.230 -21.236 -42.617  0.00  0.00    -0.060 C 
ATOM     27  C   UNL     1      45.542 -22.230 -40.335  0.00  0.00    -0.048 C 
ATOM     28  C   UNL     1      46.890 -21.852 -39.735  0.00  0.00    -0.052 C 
ATOM     29  C   UNL     1      46.851 -20.639 -38.796  0.00  0.00    -0.047 C 
ATOM     30  C   UNL     1      45.668 -19.652 -39.010  0.00  0.00    -0.022 C 
ATOM     31  C   UNL     1      44.457 -20.115 -38.151  0.00  0.00    -0.059 C 
BRANCH  20  32
ATOM     32  C   UNL     1      47.324 -15.973 -39.071  0.00  0.00    +0.066 C 
BRANCH  32  33
ATOM     33  O   UNL     1      48.346 -15.461 -39.918  0.00  0.00    -0.391 OA
ATOM     34  H   UNL     1      48.072 -14.599 -40.270  0.00  0.00    +0.000 HD
ENDBRANCH  32  33
ENDBRANCH  20  32
ENDBRANCH  18  19
ENDBRANCH   1  18
TORSDOF 12
ENDMDL
MODEL 4
REMARK VINA RESULT:    -5.837      2.831      9.135
REMARK INTER + INTRA:         -12.165
REMARK INTER:                 -10.355
REMARK INTRA:                  -1.810
REMARK UNBOUND:                -2.403
REMARK  Name = cpd288.pdb
REMARK  16 active torsions:
REMARK  status: ('A' for Active; 'I' for Inactive)
REMARK    1  A    between atoms: C_1  and  C_2
REMARK    2  A    between atoms: C_2  and  C_3
REMARK    3  A    between atoms: C_2  and  C_20
REMARK    4  A    between atoms: C_3  and  C_4
REMARK    5  A    between atoms: C_4  and  C_5
REMARK    6  A    between atoms: C_6  and  C_7
REMARK    7  A    between atoms: C_7  and  O_8
REMARK    8  A    between atoms: C_12  and  C_13
REMARK    9  A    between atoms: C_12  and  C_14
REMARK   10  A    between atoms: C_18  and  C_19
REMARK   11  A    between atoms: C_20  and  C_21
REMARK   12  A    between atoms: C_21  and  O_23
REMARK   13  A    between atoms: O_23  and  C_24
REMARK   14  A    between atoms: C_24  and  C_25
REMARK   15  A    between atoms: C_25  and  C_26
REMARK   16  A    between atoms: C_26  and  N_27
REMARK                            x       y       z     vdW  Elec       q    Type
REMARK                         _______ _______ _______ _____ _____    ______ ____
ROOT
ATOM      1  C   UNL     1      40.615 -22.640 -36.434  0.00  0.00    -0.049 C 
ENDROOT
BRANCH   1   3
ATOM      2  C   UNL     1      40.516 -21.624 -38.767  0.00  0.00    -0.062 C 
ATOM      3  C   UNL     1      41.366 -21.837 -37.515  0.00  0.00    -0.034 C 
BRANCH   3   4
ATOM      4  C   UNL     1      41.896 -20.495 -36.962  0.00  0.00    +0.048 C 
BRANCH   4   5
ATOM      5  C   UNL     1      43.327 -20.542 -36.470  0.00  0.00    +0.307 C 
ATOM      6  O   UNL     1      43.578 -20.729 -35.281  0.00  0.00    -0.251 OA
BRANCH   5   7
ATOM      7  O   UNL     1      44.331 -20.325 -37.347  0.00  0.00    -0.465 OA
BRANCH   7   8
ATOM      8  C   UNL     1      45.169 -19.154 -37.380  0.00  0.00    +0.094 C 
BRANCH   8   9
ATOM      9  C   UNL     1      46.095 -19.200 -38.591  0.00  0.00    -0.006 C 
BRANCH   9  10
ATOM     10  C   UNL     1      45.325 -19.589 -39.856  0.00  0.00    +0.002 C 
BRANCH  10  11
ATOM     11  N   UNL     1      45.306 -21.042 -40.059  0.00  0.00    -0.298 N 
ATOM     12  C   UNL     1      46.672 -21.560 -40.288  0.00  0.00    +0.022 C 
ATOM     13  C   UNL     1      46.649 -22.949 -40.942  0.00  0.00    +0.060 C 
ATOM     14  O   UNL     1      46.077 -22.930 -42.256  0.00  0.00    -0.377 OA
ATOM     15  C   UNL     1      45.117 -21.880 -42.436  0.00  0.00    +0.060 C 
ATOM     16  C   UNL     1      44.395 -21.484 -41.137  0.00  0.00    +0.022 C 
ATOM     17  H   UNL     1      44.934 -21.437 -39.195  0.00  0.00    +0.000 HD
ENDBRANCH  10  11
ENDBRANCH   9  10
ENDBRANCH   8   9
ENDBRANCH   7   8
ENDBRANCH   5   7
ENDBRANCH   4   5
ENDBRANCH   3   4
ENDBRANCH   1   3
BRANCH   1  18
ATOM     18  C   UNL     1      40.157 -21.878 -35.170  0.00  0.00    -0.046 C 
BRANCH  18  19
ATOM     19  C   UNL     1      38.623 -21.716 -34.892  0.00  0.00    -0.012 C 
ATOM     20  C   UNL     1      38.115 -22.618 -33.754  0.00  0.00    -0.045 C 
ATOM     21  C   UNL     1      37.238 -22.161 -32.843  0.00  0.00    -0.082 C 
ATOM     22  C   UNL     1      36.643 -20.799 -32.823  0.00  0.00    -0.031 C 
ATOM     23  C   UNL     1      36.769 -20.010 -34.146  0.00  0.00    -0.027 C 
ATOM     24  C   UNL     1      36.281 -18.504 -33.983  0.00  0.00    -0.031 C 
ATOM     25  C   UNL     1      35.475 -18.069 -35.232  0.00  0.00    -0.060 C 
ATOM     26  C   UNL     1      35.298 -18.311 -32.798  0.00  0.00    -0.060 C 
ATOM     27  C   UNL     1      37.469 -17.527 -33.778  0.00  0.00    -0.048 C 
ATOM     28  C   UNL     1      38.665 -18.168 -33.087  0.00  0.00    -0.052 C 
ATOM     29  C   UNL     1      39.220 -19.411 -33.796  0.00  0.00    -0.047 C 
ATOM     30  C   UNL     1      38.225 -20.163 -34.725  0.00  0.00    -0.022 C 
ATOM     31  C   UNL     1      38.299 -19.551 -36.153  0.00  0.00    -0.059 C 
BRANCH  20  32
ATOM     32  C   UNL     1      38.566 -24.063 -33.745  0.00  0.00    +0.066 C 
BRANCH  32  33
ATOM     33  O   UNL     1      38.153 -24.780 -34.902  0.00  0.00    -0.391 OA
ATOM     34  H   UNL     1      37.548 -24.230 -35.424  0.00  0.00    +0.000 HD
ENDBRANCH  32  33
ENDBRANCH  20  32
ENDBRANCH  18  19
ENDBRANCH   1  18
TORSDOF 12
ENDMDL
MODEL 5
REMARK VINA RESULT:    -5.833      2.985      8.329
REMARK INTER + INTRA:         -12.157
REMARK INTER:                 -10.401
REMARK INTRA:                  -1.756
REMARK UNBOUND:                -2.403
REMARK  Name = cpd288.pdb
REMARK  16 active torsions:
REMARK  status: ('A' for Active; 'I' for Inactive)
REMARK    1  A    between atoms: C_1  and  C_2
REMARK    2  A    between atoms: C_2  and  C_3
REMARK    3  A    between atoms: C_2  and  C_20
REMARK    4  A    between atoms: C_3  and  C_4
REMARK    5  A    between atoms: C_4  and  C_5
REMARK    6  A    between atoms: C_6  and  C_7
REMARK    7  A    between atoms: C_7  and  O_8
REMARK    8  A    between atoms: C_12  and  C_13
REMARK    9  A    between atoms: C_12  and  C_14
REMARK   10  A    between atoms: C_18  and  C_19
REMARK   11  A    between atoms: C_20  and  C_21
REMARK   12  A    between atoms: C_21  and  O_23
REMARK   13  A    between atoms: O_23  and  C_24
REMARK   14  A    between atoms: C_24  and  C_25
REMARK   15  A    between atoms: C_25  and  C_26
REMARK   16  A    between atoms: C_26  and  N_27
REMARK                            x       y       z     vdW  Elec       q    Type
REMARK                         _______ _______ _______ _____ _____    ______ ____
ROOT
ATOM      1  C   UNL     1      43.878 -19.915 -36.873  0.00  0.00    -0.049 C 
ENDROOT
BRANCH   1   3
ATOM      2  C   UNL     1      45.189 -19.977 -34.690  0.00  0.00    -0.062 C 
ATOM      3  C   UNL     1      44.665 -19.099 -35.827  0.00  0.00    -0.034 C 
BRANCH   3   4
ATOM      4  C   UNL     1      45.805 -18.287 -36.479  0.00  0.00    +0.048 C 
BRANCH   4   5
ATOM      5  C   UNL     1      46.492 -18.985 -37.633  0.00  0.00    +0.307 C 
ATOM      6  O   UNL     1      46.941 -20.123 -37.503  0.00  0.00    -0.251 OA
BRANCH   5   7
ATOM      7  O   UNL     1      46.652 -18.325 -38.801  0.00  0.00    -0.465 OA
BRANCH   7   8
ATOM      8  C   UNL     1      45.589 -17.747 -39.583  0.00  0.00    +0.094 C 
BRANCH   8   9
ATOM      9  C   UNL     1      45.552 -18.377 -40.972  0.00  0.00    -0.006 C 
BRANCH   9  10
ATOM     10  C   UNL     1      46.837 -19.162 -41.253  0.00  0.00    +0.002 C 
BRANCH  10  11
ATOM     11  N   UNL     1      46.693 -20.583 -40.918  0.00  0.00    -0.298 N 
ATOM     12  C   UNL     1      47.695 -21.399 -41.638  0.00  0.00    +0.022 C 
ATOM     13  C   UNL     1      47.297 -22.880 -41.678  0.00  0.00    +0.060 C 
ATOM     14  O   UNL     1      46.090 -23.107 -42.419  0.00  0.00    -0.377 OA
ATOM     15  C   UNL     1      45.204 -21.981 -42.409  0.00  0.00    +0.060 C 
ATOM     16  C   UNL     1      45.331 -21.115 -41.143  0.00  0.00    +0.022 C 
ATOM     17  H   UNL     1      46.860 -20.649 -39.915  0.00  0.00    +0.000 HD
ENDBRANCH  10  11
ENDBRANCH   9  10
ENDBRANCH   8   9
ENDBRANCH   7   8
ENDBRANCH   5   7
ENDBRANCH   4   5
ENDBRANCH   3   4
ENDBRANCH   1   3
BRANCH   1  18
ATOM     18  C   UNL     1      42.871 -20.963 -36.347  0.00  0.00    -0.046 C 
BRANCH  18  19
ATOM     19  C   UNL     1      41.344 -20.607 -36.322  0.00  0.00    -0.012 C 
ATOM     20  C   UNL     1      40.499 -21.499 -37.246  0.00  0.00    -0.045 C 
ATOM     21  C   UNL     1      39.301 -21.967 -36.857  0.00  0.00    -0.082 C 
ATOM     22  C   UNL     1      38.643 -21.681 -35.554  0.00  0.00    -0.031 C 
ATOM     23  C   UNL     1      39.221 -20.475 -34.780  0.00  0.00    -0.027 C 
ATOM     24  C   UNL     1      38.594 -20.355 -33.322  0.00  0.00    -0.031 C 
ATOM     25  C   UNL     1      38.317 -18.869 -32.984  0.00  0.00    -0.060 C 
ATOM     26  C   UNL     1      37.210 -21.047 -33.200  0.00  0.00    -0.060 C 
ATOM     27  C   UNL     1      39.524 -20.960 -32.237  0.00  0.00    -0.048 C 
ATOM     28  C   UNL     1      40.394 -22.098 -32.754  0.00  0.00    -0.052 C 
ATOM     29  C   UNL     1      41.278 -21.729 -33.953  0.00  0.00    -0.047 C 
ATOM     30  C   UNL     1      40.794 -20.523 -34.809  0.00  0.00    -0.022 C 
ATOM     31  C   UNL     1      41.381 -19.211 -34.216  0.00  0.00    -0.059 C 
BRANCH  20  32
ATOM     32  C   UNL     1      41.020 -21.758 -38.644  0.00  0.00    +0.066 C 
BRANCH  32  33
ATOM     33  O   UNL     1      41.368 -23.120 -38.862  0.00  0.00    -0.391 OA
ATOM     34  H   UNL     1      41.761 -23.216 -39.743  0.00  0.00    +0.000 HD
ENDBRANCH  32  33
ENDBRANCH  20  32
ENDBRANCH  18  19
ENDBRANCH   1  18
TORSDOF 12
ENDMDL
MODEL 6
REMARK VINA RESULT:    -5.763      2.642      7.898
REMARK INTER + INTRA:         -12.041
REMARK INTER:                  -9.931
REMARK INTRA:                  -2.110
REMARK UNBOUND:                -2.403
REMARK  Name = cpd288.pdb
REMARK  16 active torsions:
REMARK  status: ('A' for Active; 'I' for Inactive)
REMARK    1  A    between atoms: C_1  and  C_2
REMARK    2  A    between atoms: C_2  and  C_3
REMARK    3  A    between atoms: C_2  and  C_20
REMARK    4  A    between atoms: C_3  and  C_4
REMARK    5  A    between atoms: C_4  and  C_5
REMARK    6  A    between atoms: C_6  and  C_7
REMARK    7  A    between atoms: C_7  and  O_8
REMARK    8  A    between atoms: C_12  and  C_13
REMARK    9  A    between atoms: C_12  and  C_14
REMARK   10  A    between atoms: C_18  and  C_19
REMARK   11  A    between atoms: C_20  and  C_21
REMARK   12  A    between atoms: C_21  and  O_23
REMARK   13  A    between atoms: O_23  and  C_24
REMARK   14  A    between atoms: C_24  and  C_25
REMARK   15  A    between atoms: C_25  and  C_26
REMARK   16  A    between atoms: C_26  and  N_27
REMARK                            x       y       z     vdW  Elec       q    Type
REMARK                         _______ _______ _______ _____ _____    ______ ____
ROOT
ATOM      1  C   UNL     1      42.710 -18.706 -37.034  0.00  0.00    -0.049 C 
ENDROOT
BRANCH   1   3
ATOM      2  C   UNL     1      43.081 -16.643 -35.587  0.00  0.00    -0.062 C 
ATOM      3  C   UNL     1      43.690 -17.939 -36.122  0.00  0.00    -0.034 C 
BRANCH   3   4
ATOM      4  C   UNL     1      44.214 -18.829 -34.974  0.00  0.00    +0.048 C 
BRANCH   4   5
ATOM      5  C   UNL     1      45.579 -19.434 -35.223  0.00  0.00    +0.307 C 
ATOM      6  O   UNL     1      46.335 -19.690 -34.287  0.00  0.00    -0.251 OA
BRANCH   5   7
ATOM      7  O   UNL     1      45.983 -19.646 -36.495  0.00  0.00    -0.465 OA
BRANCH   7   8
ATOM      8  C   UNL     1      47.239 -19.211 -37.053  0.00  0.00    +0.094 C 
BRANCH   8   9
ATOM      9  C   UNL     1      47.167 -19.209 -38.576  0.00  0.00    -0.006 C 
BRANCH   9  10
ATOM     10  C   UNL     1      45.757 -19.560 -39.060  0.00  0.00    +0.002 C 
BRANCH  10  11
ATOM     11  N   UNL     1      45.633 -20.984 -39.393  0.00  0.00    -0.298 N 
ATOM     12  C   UNL     1      46.903 -21.511 -39.937  0.00  0.00    +0.022 C 
ATOM     13  C   UNL     1      46.690 -22.823 -40.704  0.00  0.00    +0.060 C 
ATOM     14  O   UNL     1      45.874 -22.654 -41.870  0.00  0.00    -0.377 OA
ATOM     15  C   UNL     1      44.946 -21.568 -41.755  0.00  0.00    +0.060 C 
ATOM     16  C   UNL     1      44.510 -21.289 -40.306  0.00  0.00    +0.022 C 
ATOM     17  H   UNL     1      45.419 -21.456 -38.515  0.00  0.00    +0.000 HD
ENDBRANCH  10  11
ENDBRANCH   9  10
ENDBRANCH   8   9
ENDBRANCH   7   8
ENDBRANCH   5   7
ENDBRANCH   4   5
ENDBRANCH   3   4
ENDBRANCH   1   3
BRANCH   1  18
ATOM     18  C   UNL     1      42.315 -20.138 -36.609  0.00  0.00    -0.046 C 
BRANCH  18  19
ATOM     19  C   UNL     1      40.797 -20.526 -36.555  0.00  0.00    -0.012 C 
ATOM     20  C   UNL     1      40.487 -21.859 -37.254  0.00  0.00    -0.045 C 
ATOM     21  C   UNL     1      39.630 -22.744 -36.716  0.00  0.00    -0.082 C 
ATOM     22  C   UNL     1      38.877 -22.557 -35.448  0.00  0.00    -0.031 C 
ATOM     23  C   UNL     1      38.810 -21.100 -34.936  0.00  0.00    -0.027 C 
ATOM     24  C   UNL     1      38.156 -21.015 -33.488  0.00  0.00    -0.031 C 
ATOM     25  C   UNL     1      37.214 -19.788 -33.402  0.00  0.00    -0.060 C 
ATOM     26  C   UNL     1      37.245 -22.229 -33.162  0.00  0.00    -0.060 C 
ATOM     27  C   UNL     1      39.228 -20.912 -32.370  0.00  0.00    -0.048 C 
ATOM     28  C   UNL     1      40.540 -21.597 -32.729  0.00  0.00    -0.052 C 
ATOM     29  C   UNL     1      41.188 -21.092 -34.025  0.00  0.00    -0.047 C 
ATOM     30  C   UNL     1      40.227 -20.425 -35.050  0.00  0.00    -0.022 C 
ATOM     31  C   UNL     1      40.122 -18.906 -34.737  0.00  0.00    -0.059 C 
BRANCH  20  32
ATOM     32  C   UNL     1      41.110 -22.104 -38.612  0.00  0.00    +0.066 C 
BRANCH  32  33
ATOM     33  O   UNL     1      40.600 -21.240 -39.620  0.00  0.00    -0.391 OA
ATOM     34  H   UNL     1      41.319 -20.981 -40.217  0.00  0.00    +0.000 HD
ENDBRANCH  32  33
ENDBRANCH  20  32
ENDBRANCH  18  19
ENDBRANCH   1  18
TORSDOF 12
ENDMDL
MODEL 7
REMARK VINA RESULT:    -5.758      2.770      8.536
REMARK INTER + INTRA:         -12.033
REMARK INTER:                 -10.112
REMARK INTRA:                  -1.921
REMARK UNBOUND:                -2.403
REMARK  Name = cpd288.pdb
REMARK  16 active torsions:
REMARK  status: ('A' for Active; 'I' for Inactive)
REMARK    1  A    between atoms: C_1  and  C_2
REMARK    2  A    between atoms: C_2  and  C_3
REMARK    3  A    between atoms: C_2  and  C_20
REMARK    4  A    between atoms: C_3  and  C_4
REMARK    5  A    between atoms: C_4  and  C_5
REMARK    6  A    between atoms: C_6  and  C_7
REMARK    7  A    between atoms: C_7  and  O_8
REMARK    8  A    between atoms: C_12  and  C_13
REMARK    9  A    between atoms: C_12  and  C_14
REMARK   10  A    between atoms: C_18  and  C_19
REMARK   11  A    between atoms: C_20  and  C_21
REMARK   12  A    between atoms: C_21  and  O_23
REMARK   13  A    between atoms: O_23  and  C_24
REMARK   14  A    between atoms: C_24  and  C_25
REMARK   15  A    between atoms: C_25  and  C_26
REMARK   16  A    between atoms: C_26  and  N_27
REMARK                            x       y       z     vdW  Elec       q    Type
REMARK                         _______ _______ _______ _____ _____    ______ ____
ROOT
ATOM      1  C   UNL     1      43.352 -20.951 -38.236  0.00  0.00    -0.049 C 
ENDROOT
BRANCH   1   3
ATOM      2  C   UNL     1      41.245 -20.826 -39.661  0.00  0.00    -0.062 C 
ATOM      3  C   UNL     1      42.759 -21.031 -39.658  0.00  0.00    -0.034 C 
BRANCH   3   4
ATOM      4  C   UNL     1      43.461 -20.051 -40.623  0.00  0.00    +0.048 C 
BRANCH   4   5
ATOM      5  C   UNL     1      44.318 -20.716 -41.679  0.00  0.00    +0.307 C 
ATOM      6  O   UNL     1      44.310 -20.313 -42.841  0.00  0.00    -0.251 OA
BRANCH   5   7
ATOM      7  O   UNL     1      45.058 -21.794 -41.343  0.00  0.00    -0.465 OA
BRANCH   7   8
ATOM      8  C   UNL     1      46.498 -21.851 -41.351  0.00  0.00    +0.094 C 
BRANCH   8   9
ATOM      9  C   UNL     1      47.081 -20.571 -40.760  0.00  0.00    -0.006 C 
BRANCH   9  10
ATOM     10  C   UNL     1      47.030 -20.600 -39.229  0.00  0.00    +0.002 C 
BRANCH  10  11
ATOM     11  N   UNL     1      47.305 -19.281 -38.649  0.00  0.00    -0.298 N 
ATOM     12  C   UNL     1      47.303 -19.345 -37.171  0.00  0.00    +0.022 C 
ATOM     13  C   UNL     1      47.130 -17.955 -36.544  0.00  0.00    +0.060 C 
ATOM     14  O   UNL     1      45.860 -17.365 -36.853  0.00  0.00    -0.377 OA
ATOM     15  C   UNL     1      45.318 -17.817 -38.101  0.00  0.00    +0.060 C 
ATOM     16  C   UNL     1      46.395 -18.217 -39.124  0.00  0.00    +0.022 C 
ATOM     17  H   UNL     1      48.236 -19.024 -38.975  0.00  0.00    +0.000 HD
ENDBRANCH  10  11
ENDBRANCH   9  10
ENDBRANCH   8   9
ENDBRANCH   7   8
ENDBRANCH   5   7
ENDBRANCH   4   5
ENDBRANCH   3   4
ENDBRANCH   1   3
BRANCH   1  18
ATOM     18  C   UNL     1      42.517 -20.226 -37.157  0.00  0.00    -0.046 C 
BRANCH  18  19
ATOM     19  C   UNL     1      42.176 -20.978 -35.824  0.00  0.00    -0.012 C 
ATOM     20  C   UNL     1      42.901 -20.398 -34.599  0.00  0.00    -0.045 C 
ATOM     21  C   UNL     1      42.268 -20.250 -33.422  0.00  0.00    -0.082 C 
ATOM     22  C   UNL     1      40.859 -20.633 -33.144  0.00  0.00    -0.031 C 
ATOM     23  C   UNL     1      40.226 -21.595 -34.175  0.00  0.00    -0.027 C 
ATOM     24  C   UNL     1      38.671 -21.802 -33.911  0.00  0.00    -0.031 C 
ATOM     25  C   UNL     1      38.288 -23.287 -34.127  0.00  0.00    -0.060 C 
ATOM     26  C   UNL     1      38.261 -21.503 -32.444  0.00  0.00    -0.060 C 
ATOM     27  C   UNL     1      37.800 -20.911 -34.837  0.00  0.00    -0.048 C 
ATOM     28  C   UNL     1      38.483 -19.611 -35.238  0.00  0.00    -0.052 C 
ATOM     29  C   UNL     1      39.841 -19.791 -35.930  0.00  0.00    -0.047 C 
ATOM     30  C   UNL     1      40.582 -21.126 -35.635  0.00  0.00    -0.022 C 
ATOM     31  C   UNL     1      40.129 -22.199 -36.666  0.00  0.00    -0.059 C 
BRANCH  20  32
ATOM     32  C   UNL     1      44.375 -20.083 -34.737  0.00  0.00    +0.066 C 
BRANCH  32  33
ATOM     33  O   UNL     1      44.983 -19.726 -33.501  0.00  0.00    -0.391 OA
ATOM     34  H   UNL     1      45.619 -19.009 -33.649  0.00  0.00    +0.000 HD
ENDBRANCH  32  33
ENDBRANCH  20  32
ENDBRANCH  18  19
ENDBRANCH   1  18
TORSDOF 12
ENDMDL
MODEL 8
REMARK VINA RESULT:    -5.729      1.824      3.296
REMARK INTER + INTRA:         -11.984
REMARK INTER:                 -10.059
REMARK INTRA:                  -1.925
REMARK UNBOUND:                -2.403
REMARK  Name = cpd288.pdb
REMARK  16 active torsions:
REMARK  status: ('A' for Active; 'I' for Inactive)
REMARK    1  A    between atoms: C_1  and  C_2
REMARK    2  A    between atoms: C_2  and  C_3
REMARK    3  A    between atoms: C_2  and  C_20
REMARK    4  A    between atoms: C_3  and  C_4
REMARK    5  A    between atoms: C_4  and  C_5
REMARK    6  A    between atoms: C_6  and  C_7
REMARK    7  A    between atoms: C_7  and  O_8
REMARK    8  A    between atoms: C_12  and  C_13
REMARK    9  A    between atoms: C_12  and  C_14
REMARK   10  A    between atoms: C_18  and  C_19
REMARK   11  A    between atoms: C_20  and  C_21
REMARK   12  A    between atoms: C_21  and  O_23
REMARK   13  A    between atoms: O_23  and  C_24
REMARK   14  A    between atoms: C_24  and  C_25
REMARK   15  A    between atoms: C_25  and  C_26
REMARK   16  A    between atoms: C_26  and  N_27
REMARK                            x       y       z     vdW  Elec       q    Type
REMARK                         _______ _______ _______ _____ _____    ______ ____
ROOT
ATOM      1  C   UNL     1      44.055 -17.251 -36.402  0.00  0.00    -0.049 C 
ENDROOT
BRANCH   1   3
ATOM      2  C   UNL     1      44.333 -15.544 -34.533  0.00  0.00    -0.062 C 
ATOM      3  C   UNL     1      44.903 -16.797 -35.196  0.00  0.00    -0.034 C 
BRANCH   3   4
ATOM      4  C   UNL     1      45.092 -17.938 -34.172  0.00  0.00    +0.048 C 
BRANCH   4   5
ATOM      5  C   UNL     1      44.029 -17.998 -33.097  0.00  0.00    +0.307 C 
ATOM      6  O   UNL     1      44.294 -17.706 -31.932  0.00  0.00    -0.251 OA
BRANCH   5   7
ATOM      7  O   UNL     1      42.789 -18.425 -33.420  0.00  0.00    -0.465 OA
BRANCH   7   8
ATOM      8  C   UNL     1      42.197 -19.666 -32.990  0.00  0.00    +0.094 C 
BRANCH   8   9
ATOM      9  C   UNL     1      41.936 -20.571 -34.190  0.00  0.00    -0.006 C 
BRANCH   9  10
ATOM     10  C   UNL     1      41.175 -21.832 -33.770  0.00  0.00    +0.002 C 
BRANCH  10  11
ATOM     11  N   UNL     1      40.366 -22.373 -34.869  0.00  0.00    -0.298 N 
ATOM     12  C   UNL     1      40.995 -22.085 -36.177  0.00  0.00    +0.022 C 
ATOM     13  C   UNL     1      39.989 -22.217 -37.329  0.00  0.00    +0.060 C 
ATOM     14  O   UNL     1      38.930 -21.254 -37.251  0.00  0.00    -0.377 OA
ATOM     15  C   UNL     1      38.647 -20.838 -35.908  0.00  0.00    +0.060 C 
ATOM     16  C   UNL     1      38.959 -21.917 -34.857  0.00  0.00    +0.022 C 
ATOM     17  H   UNL     1      40.338 -23.381 -34.721  0.00  0.00    +0.000 HD
ENDBRANCH  10  11
ENDBRANCH   9  10
ENDBRANCH   8   9
ENDBRANCH   7   8
ENDBRANCH   5   7
ENDBRANCH   4   5
ENDBRANCH   3   4
ENDBRANCH   1   3
BRANCH   1  18
ATOM     18  C   UNL     1      44.263 -18.693 -36.916  0.00  0.00    -0.046 C 
BRANCH  18  19
ATOM     19  C   UNL     1      45.101 -18.923 -38.221  0.00  0.00    -0.012 C 
ATOM     20  C   UNL     1      46.403 -19.704 -37.975  0.00  0.00    -0.045 C 
ATOM     21  C   UNL     1      46.811 -20.661 -38.826  0.00  0.00    -0.082 C 
ATOM     22  C   UNL     1      46.114 -21.062 -40.076  0.00  0.00    -0.031 C 
ATOM     23  C   UNL     1      45.066 -20.050 -40.594  0.00  0.00    -0.027 C 
ATOM     24  C   UNL     1      44.236 -20.636 -41.819  0.00  0.00    -0.031 C 
ATOM     25  C   UNL     1      44.019 -19.537 -42.888  0.00  0.00    -0.060 C 
ATOM     26  C   UNL     1      44.985 -21.769 -42.571  0.00  0.00    -0.060 C 
ATOM     27  C   UNL     1      42.858 -21.194 -41.374  0.00  0.00    -0.048 C 
ATOM     28  C   UNL     1      42.854 -21.721 -39.945  0.00  0.00    -0.052 C 
ATOM     29  C   UNL     1      43.291 -20.699 -38.887  0.00  0.00    -0.047 C 
ATOM     30  C   UNL     1      44.183 -19.532 -39.398  0.00  0.00    -0.022 C 
ATOM     31  C   UNL     1      43.272 -18.365 -39.873  0.00  0.00    -0.059 C 
BRANCH  20  32
ATOM     32  C   UNL     1      47.255 -19.297 -36.792  0.00  0.00    +0.066 C 
BRANCH  32  33
ATOM     33  O   UNL     1      47.410 -20.338 -35.836  0.00  0.00    -0.391 OA
ATOM     34  H   UNL     1      47.998 -21.022 -36.195  0.00  0.00    +0.000 HD
ENDBRANCH  32  33
ENDBRANCH  20  32
ENDBRANCH  18  19
ENDBRANCH   1  18
TORSDOF 12
ENDMDL
MODEL 9
REMARK VINA RESULT:    -5.724      3.063      9.451
REMARK INTER + INTRA:         -11.975
REMARK INTER:                 -10.697
REMARK INTRA:                  -1.278
REMARK UNBOUND:                -2.403
REMARK  Name = cpd288.pdb
REMARK  16 active torsions:
REMARK  status: ('A' for Active; 'I' for Inactive)
REMARK    1  A    between atoms: C_1  and  C_2
REMARK    2  A    between atoms: C_2  and  C_3
REMARK    3  A    between atoms: C_2  and  C_20
REMARK    4  A    between atoms: C_3  and  C_4
REMARK    5  A    between atoms: C_4  and  C_5
REMARK    6  A    between atoms: C_6  and  C_7
REMARK    7  A    between atoms: C_7  and  O_8
REMARK    8  A    between atoms: C_12  and  C_13
REMARK    9  A    between atoms: C_12  and  C_14
REMARK   10  A    between atoms: C_18  and  C_19
REMARK   11  A    between atoms: C_20  and  C_21
REMARK   12  A    between atoms: C_21  and  O_23
REMARK   13  A    between atoms: O_23  and  C_24
REMARK   14  A    between atoms: C_24  and  C_25
REMARK   15  A    between atoms: C_25  and  C_26
REMARK   16  A    between atoms: C_26  and  N_27
REMARK                            x       y       z     vdW  Elec       q    Type
REMARK                         _______ _______ _______ _____ _____    ______ ____
ROOT
ATOM      1  C   UNL     1      41.366 -21.752 -35.953  0.00  0.00    -0.049 C 
ENDROOT
BRANCH   1   3
ATOM      2  C   UNL     1      43.078 -20.087 -35.071  0.00  0.00    -0.062 C 
ATOM      3  C   UNL     1      42.324 -20.594 -36.299  0.00  0.00    -0.034 C 
BRANCH   3   4
ATOM      4  C   UNL     1      43.296 -20.981 -37.435  0.00  0.00    +0.048 C 
BRANCH   4   5
ATOM      5  C   UNL     1      43.720 -19.826 -38.318  0.00  0.00    +0.307 C 
ATOM      6  O   UNL     1      44.602 -19.049 -37.957  0.00  0.00    -0.251 OA
BRANCH   5   7
ATOM      7  O   UNL     1      43.082 -19.627 -39.492  0.00  0.00    -0.465 OA
BRANCH   7   8
ATOM      8  C   UNL     1      43.718 -19.268 -40.734  0.00  0.00    +0.094 C 
BRANCH   8   9
ATOM      9  C   UNL     1      43.874 -20.498 -41.623  0.00  0.00    -0.006 C 
BRANCH   9  10
ATOM     10  C   UNL     1      44.806 -20.208 -42.803  0.00  0.00    +0.002 C 
BRANCH  10  11
ATOM     11  N   UNL     1      46.065 -20.954 -42.701  0.00  0.00    -0.298 N 
ATOM     12  C   UNL     1      45.826 -22.325 -42.199  0.00  0.00    +0.022 C 
ATOM     13  C   UNL     1      47.112 -22.961 -41.654  0.00  0.00    +0.060 C 
ATOM     14  O   UNL     1      47.625 -22.271 -40.506  0.00  0.00    -0.377 OA
ATOM     15  C   UNL     1      47.281 -20.880 -40.485  0.00  0.00    +0.060 C 
ATOM     16  C   UNL     1      47.098 -20.276 -41.888  0.00  0.00    +0.022 C 
ATOM     17  H   UNL     1      46.437 -21.001 -43.649  0.00  0.00    +0.000 HD
ENDBRANCH  10  11
ENDBRANCH   9  10
ENDBRANCH   8   9
ENDBRANCH   7   8
ENDBRANCH   5   7
ENDBRANCH   4   5
ENDBRANCH   3   4
ENDBRANCH   1   3
BRANCH   1  18
ATOM     18  C   UNL     1      40.600 -21.666 -34.613  0.00  0.00    -0.046 C 
BRANCH  18  19
ATOM     19  C   UNL     1      39.061 -21.366 -34.633  0.00  0.00    -0.012 C 
ATOM     20  C   UNL     1      38.233 -22.395 -33.846  0.00  0.00    -0.045 C 
ATOM     21  C   UNL     1      37.210 -22.012 -33.062  0.00  0.00    -0.082 C 
ATOM     22  C   UNL     1      36.740 -20.614 -32.877  0.00  0.00    -0.031 C 
ATOM     23  C   UNL     1      37.231 -19.611 -33.945  0.00  0.00    -0.027 C 
ATOM     24  C   UNL     1      36.844 -18.114 -33.571  0.00  0.00    -0.031 C 
ATOM     25  C   UNL     1      36.385 -17.351 -34.838  0.00  0.00    -0.060 C 
ATOM     26  C   UNL     1      35.633 -18.026 -32.603  0.00  0.00    -0.060 C 
ATOM     27  C   UNL     1      38.028 -17.352 -32.918  0.00  0.00    -0.048 C 
ATOM     28  C   UNL     1      38.976 -18.259 -32.145  0.00  0.00    -0.052 C 
ATOM     29  C   UNL     1      39.575 -19.405 -32.971  0.00  0.00    -0.047 C 
ATOM     30  C   UNL     1      38.764 -19.835 -34.226  0.00  0.00    -0.022 C 
ATOM     31  C   UNL     1      39.215 -18.978 -35.443  0.00  0.00    -0.059 C 
BRANCH  20  32
ATOM     32  C   UNL     1      38.551 -23.861 -34.051  0.00  0.00    +0.066 C 
BRANCH  32  33
ATOM     33  O   UNL     1      38.435 -24.268 -35.409  0.00  0.00    -0.391 OA
ATOM     34  H   UNL     1      38.941 -25.084 -35.546  0.00  0.00    +0.000 HD
ENDBRANCH  32  33
ENDBRANCH  20  32
ENDBRANCH  18  19
ENDBRANCH   1  18
TORSDOF 12
ENDMDL
MODEL 10
REMARK VINA RESULT:    -5.694      1.567      2.394
REMARK INTER + INTRA:         -11.925
REMARK INTER:                 -10.209
REMARK INTRA:                  -1.716
REMARK UNBOUND:                -2.403
REMARK  Name = cpd288.pdb
REMARK  16 active torsions:
REMARK  status: ('A' for Active; 'I' for Inactive)
REMARK    1  A    between atoms: C_1  and  C_2
REMARK    2  A    between atoms: C_2  and  C_3
REMARK    3  A    between atoms: C_2  and  C_20
REMARK    4  A    between atoms: C_3  and  C_4
REMARK    5  A    between atoms: C_4  and  C_5
REMARK    6  A    between atoms: C_6  and  C_7
REMARK    7  A    between atoms: C_7  and  O_8
REMARK    8  A    between atoms: C_12  and  C_13
REMARK    9  A    between atoms: C_12  and  C_14
REMARK   10  A    between atoms: C_18  and  C_19
REMARK   11  A    between atoms: C_20  and  C_21
REMARK   12  A    between atoms: C_21  and  O_23
REMARK   13  A    between atoms: O_23  and  C_24
REMARK   14  A    between atoms: C_24  and  C_25
REMARK   15  A    between atoms: C_25  and  C_26
REMARK   16  A    between atoms: C_26  and  N_27
REMARK                            x       y       z     vdW  Elec       q    Type
REMARK                         _______ _______ _______ _____ _____    ______ ____
ROOT
ATOM      1  C   UNL     1      45.773 -17.718 -34.588  0.00  0.00    -0.049 C 
ENDROOT
BRANCH   1   3
ATOM      2  C   UNL     1      45.606 -17.008 -32.148  0.00  0.00    -0.062 C 
ATOM      3  C   UNL     1      44.834 -17.421 -33.401  0.00  0.00    -0.034 C 
BRANCH   3   4
ATOM      4  C   UNL     1      43.762 -16.373 -33.771  0.00  0.00    +0.048 C 
BRANCH   4   5
ATOM      5  C   UNL     1      42.525 -16.406 -32.898  0.00  0.00    +0.307 C 
ATOM      6  O   UNL     1      41.985 -15.364 -32.532  0.00  0.00    -0.251 OA
BRANCH   5   7
ATOM      7  O   UNL     1      42.046 -17.598 -32.481  0.00  0.00    -0.465 OA
BRANCH   7   8
ATOM      8  C   UNL     1      40.839 -18.224 -32.958  0.00  0.00    +0.094 C 
BRANCH   8   9
ATOM      9  C   UNL     1      40.654 -19.588 -32.301  0.00  0.00    -0.006 C 
BRANCH   9  10
ATOM     10  C   UNL     1      39.196 -20.046 -32.390  0.00  0.00    +0.002 C 
BRANCH  10  11
ATOM     11  N   UNL     1      39.091 -21.469 -32.735  0.00  0.00    -0.298 N 
ATOM     12  C   UNL     1      40.342 -22.186 -32.402  0.00  0.00    +0.022 C 
ATOM     13  C   UNL     1      40.442 -23.524 -33.146  0.00  0.00    +0.060 C 
ATOM     14  O   UNL     1      40.522 -23.360 -34.568  0.00  0.00    -0.377 OA
ATOM     15  C   UNL     1      39.879 -22.166 -35.033  0.00  0.00    +0.060 C 
ATOM     16  C   UNL     1      38.709 -21.717 -34.142  0.00  0.00    +0.022 C 
ATOM     17  H   UNL     1      38.329 -21.836 -32.166  0.00  0.00    +0.000 HD
ENDBRANCH  10  11
ENDBRANCH   9  10
ENDBRANCH   8   9
ENDBRANCH   7   8
ENDBRANCH   5   7
ENDBRANCH   4   5
ENDBRANCH   3   4
ENDBRANCH   1   3
BRANCH   1  18
ATOM     18  C   UNL     1      45.123 -17.929 -35.974  0.00  0.00    -0.046 C 
BRANCH  18  19
ATOM     19  C   UNL     1      45.085 -19.372 -36.586  0.00  0.00    -0.012 C 
ATOM     20  C   UNL     1      43.677 -19.989 -36.595  0.00  0.00    -0.045 C 
ATOM     21  C   UNL     1      43.231 -20.688 -37.654  0.00  0.00    -0.082 C 
ATOM     22  C   UNL     1      44.006 -20.973 -38.890  0.00  0.00    -0.031 C 
ATOM     23  C   UNL     1      45.532 -20.764 -38.769  0.00  0.00    -0.027 C 
ATOM     24  C   UNL     1      46.260 -20.904 -40.177  0.00  0.00    -0.031 C 
ATOM     25  C   UNL     1      47.593 -21.675 -40.011  0.00  0.00    -0.060 C 
ATOM     26  C   UNL     1      45.448 -21.747 -41.197  0.00  0.00    -0.060 C 
ATOM     27  C   UNL     1      46.547 -19.523 -40.825  0.00  0.00    -0.048 C 
ATOM     28  C   UNL     1      45.537 -18.453 -40.433  0.00  0.00    -0.052 C 
ATOM     29  C   UNL     1      45.404 -18.225 -38.921  0.00  0.00    -0.047 C 
ATOM     30  C   UNL     1      45.830 -19.414 -38.015  0.00  0.00    -0.022 C 
ATOM     31  C   UNL     1      47.349 -19.300 -37.705  0.00  0.00    -0.059 C 
BRANCH  20  32
ATOM     32  C   UNL     1      42.843 -19.860 -35.339  0.00  0.00    +0.066 C 
BRANCH  32  33
ATOM     33  O   UNL     1      43.177 -20.825 -34.350  0.00  0.00    -0.391 OA
ATOM     34  H   UNL     1      43.505 -20.374 -33.556  0.00  0.00    +0.000 HD
ENDBRANCH  32  33
ENDBRANCH  20  32
ENDBRANCH  18  19
ENDBRANCH   1  18
TORSDOF 12
ENDMDL
MODEL 11
REMARK VINA RESULT:    -5.633      3.278      7.937
REMARK INTER + INTRA:         -11.823
REMARK INTER:                 -10.504
REMARK INTRA:                  -1.319
REMARK UNBOUND:                -2.403
REMARK  Name = cpd288.pdb
REMARK  16 active torsions:
REMARK  status: ('A' for Active; 'I' for Inactive)
REMARK    1  A    between atoms: C_1  and  C_2
REMARK    2  A    between atoms: C_2  and  C_3
REMARK    3  A    between atoms: C_2  and  C_20
REMARK    4  A    between atoms: C_3  and  C_4
REMARK    5  A    between atoms: C_4  and  C_5
REMARK    6  A    between atoms: C_6  and  C_7
REMARK    7  A    between atoms: C_7  and  O_8
REMARK    8  A    between atoms: C_12  and  C_13
REMARK    9  A    between atoms: C_12  and  C_14
REMARK   10  A    between atoms: C_18  and  C_19
REMARK   11  A    between atoms: C_20  and  C_21
REMARK   12  A    between atoms: C_21  and  O_23
REMARK   13  A    between atoms: O_23  and  C_24
REMARK   14  A    between atoms: C_24  and  C_25
REMARK   15  A    between atoms: C_25  and  C_26
REMARK   16  A    between atoms: C_26  and  N_27
REMARK                            x       y       z     vdW  Elec       q    Type
REMARK                         _______ _______ _______ _____ _____    ______ ____
ROOT
ATOM      1  C   UNL     1      44.464 -18.303 -37.443  0.00  0.00    -0.049 C 
ENDROOT
BRANCH   1   3
ATOM      2  C   UNL     1      46.719 -17.332 -36.765  0.00  0.00    -0.062 C 
ATOM      3  C   UNL     1      45.715 -17.525 -37.902  0.00  0.00    -0.034 C 
BRANCH   3   4
ATOM      4  C   UNL     1      46.377 -18.186 -39.130  0.00  0.00    +0.048 C 
BRANCH   4   5
ATOM      5  C   UNL     1      46.037 -17.532 -40.453  0.00  0.00    +0.307 C 
ATOM      6  O   UNL     1      46.410 -16.388 -40.704  0.00  0.00    -0.251 OA
BRANCH   5   7
ATOM      7  O   UNL     1      45.272 -18.204 -41.341  0.00  0.00    -0.465 OA
BRANCH   7   8
ATOM      8  C   UNL     1      44.219 -19.128 -41.002  0.00  0.00    +0.094 C 
BRANCH   8   9
ATOM      9  C   UNL     1      44.667 -20.561 -41.269  0.00  0.00    -0.006 C 
BRANCH   9  10
ATOM     10  C   UNL     1      45.353 -20.677 -42.634  0.00  0.00    +0.002 C 
BRANCH  10  11
ATOM     11  N   UNL     1      46.639 -21.377 -42.540  0.00  0.00    -0.298 N 
ATOM     12  C   UNL     1      46.437 -22.816 -42.264  0.00  0.00    +0.022 C 
ATOM     13  C   UNL     1      47.712 -23.472 -41.716  0.00  0.00    +0.060 C 
ATOM     14  O   UNL     1      48.103 -22.940 -40.443  0.00  0.00    -0.377 OA
ATOM     15  C   UNL     1      47.684 -21.583 -40.248  0.00  0.00    +0.060 C 
ATOM     16  C   UNL     1      47.573 -20.785 -41.558  0.00  0.00    +0.022 C 
ATOM     17  H   UNL     1      47.081 -21.266 -43.453  0.00  0.00    +0.000 HD
ENDBRANCH  10  11
ENDBRANCH   9  10
ENDBRANCH   8   9
ENDBRANCH   7   8
ENDBRANCH   5   7
ENDBRANCH   4   5
ENDBRANCH   3   4
ENDBRANCH   1   3
BRANCH   1  18
ATOM     18  C   UNL     1      44.534 -19.846 -37.478  0.00  0.00    -0.046 C 
BRANCH  18  19
ATOM     19  C   UNL     1      43.663 -20.671 -36.469  0.00  0.00    -0.012 C 
ATOM     20  C   UNL     1      43.844 -20.227 -35.008  0.00  0.00    -0.045 C 
ATOM     21  C   UNL     1      42.793 -20.128 -34.176  0.00  0.00    -0.082 C 
ATOM     22  C   UNL     1      41.383 -20.444 -34.522  0.00  0.00    -0.031 C 
ATOM     23  C   UNL     1      41.197 -21.288 -35.804  0.00  0.00    -0.027 C 
ATOM     24  C   UNL     1      39.663 -21.419 -36.206  0.00  0.00    -0.031 C 
ATOM     25  C   UNL     1      39.362 -22.858 -36.692  0.00  0.00    -0.060 C 
ATOM     26  C   UNL     1      38.702 -21.204 -35.007  0.00  0.00    -0.060 C 
ATOM     27  C   UNL     1      39.265 -20.412 -37.319  0.00  0.00    -0.048 C 
ATOM     28  C   UNL     1      40.086 -19.129 -37.292  0.00  0.00    -0.052 C 
ATOM     29  C   UNL     1      41.602 -19.340 -37.394  0.00  0.00    -0.047 C 
ATOM     30  C   UNL     1      42.125 -20.736 -36.949  0.00  0.00    -0.022 C 
ATOM     31  C   UNL     1      42.101 -21.701 -38.168  0.00  0.00    -0.059 C 
BRANCH  20  32
ATOM     32  C   UNL     1      45.255 -19.993 -34.513  0.00  0.00    +0.066 C 
BRANCH  32  33
ATOM     33  O   UNL     1      45.836 -21.149 -33.923  0.00  0.00    -0.391 OA
ATOM     34  H   UNL     1      45.620 -21.928 -34.459  0.00  0.00    +0.000 HD
ENDBRANCH  32  33
ENDBRANCH  20  32
ENDBRANCH  18  19
ENDBRANCH   1  18
TORSDOF 12
ENDMDL
MODEL 12
REMARK VINA RESULT:    -5.589      2.360      3.380
REMARK INTER + INTRA:         -11.749
REMARK INTER:                  -9.507
REMARK INTRA:                  -2.242
REMARK UNBOUND:                -2.403
REMARK  Name = cpd288.pdb
REMARK  16 active torsions:
REMARK  status: ('A' for Active; 'I' for Inactive)
REMARK    1  A    between atoms: C_1  and  C_2
REMARK    2  A    between atoms: C_2  and  C_3
REMARK    3  A    between atoms: C_2  and  C_20
REMARK    4  A    between atoms: C_3  and  C_4
REMARK    5  A    between atoms: C_4  and  C_5
REMARK    6  A    between atoms: C_6  and  C_7
REMARK    7  A    between atoms: C_7  and  O_8
REMARK    8  A    between atoms: C_12  and  C_13
REMARK    9  A    between atoms: C_12  and  C_14
REMARK   10  A    between atoms: C_18  and  C_19
REMARK   11  A    between atoms: C_20  and  C_21
REMARK   12  A    between atoms: C_21  and  O_23
REMARK   13  A    between atoms: O_23  and  C_24
REMARK   14  A    between atoms: C_24  and  C_25
REMARK   15  A    between atoms: C_25  and  C_26
REMARK   16  A    between atoms: C_26  and  N_27
REMARK                            x       y       z     vdW  Elec       q    Type
REMARK                         _______ _______ _______ _____ _____    ______ ____
ROOT
ATOM      1  C   UNL     1      41.616 -19.514 -35.910  0.00  0.00    -0.049 C 
ENDROOT
BRANCH   1   3
ATOM      2  C   UNL     1      43.761 -20.241 -34.747  0.00  0.00    -0.062 C 
ATOM      3  C   UNL     1      42.372 -20.668 -35.219  0.00  0.00    -0.034 C 
BRANCH   3   4
ATOM      4  C   UNL     1      41.548 -21.276 -34.063  0.00  0.00    +0.048 C 
BRANCH   4   5
ATOM      5  C   UNL     1      40.399 -22.157 -34.507  0.00  0.00    +0.307 C 
ATOM      6  O   UNL     1      40.605 -23.174 -35.167  0.00  0.00    -0.251 OA
BRANCH   5   7
ATOM      7  O   UNL     1      39.134 -21.786 -34.213  0.00  0.00    -0.465 OA
BRANCH   7   8
ATOM      8  C   UNL     1      38.636 -21.505 -32.890  0.00  0.00    +0.094 C 
BRANCH   8   9
ATOM      9  C   UNL     1      38.242 -20.036 -32.775  0.00  0.00    -0.006 C 
BRANCH   9  10
ATOM     10  C   UNL     1      36.825 -19.804 -33.309  0.00  0.00    +0.002 C 
BRANCH  10  11
ATOM     11  N   UNL     1      36.779 -18.699 -34.273  0.00  0.00    -0.298 N 
ATOM     12  C   UNL     1      35.648 -18.866 -35.213  0.00  0.00    +0.022 C 
ATOM     13  C   UNL     1      35.833 -18.016 -36.477  0.00  0.00    +0.060 C 
ATOM     14  O   UNL     1      36.970 -18.419 -37.252  0.00  0.00    -0.377 OA
ATOM     15  C   UNL     1      38.006 -19.016 -36.461  0.00  0.00    +0.060 C 
ATOM     16  C   UNL     1      38.043 -18.498 -35.013  0.00  0.00    +0.022 C 
ATOM     17  H   UNL     1      36.637 -17.855 -33.720  0.00  0.00    +0.000 HD
ENDBRANCH  10  11
ENDBRANCH   9  10
ENDBRANCH   8   9
ENDBRANCH   7   8
ENDBRANCH   5   7
ENDBRANCH   4   5
ENDBRANCH   3   4
ENDBRANCH   1   3
BRANCH   1  18
ATOM     18  C   UNL     1      41.685 -19.441 -37.452  0.00  0.00    -0.046 C 
BRANCH  18  19
ATOM     19  C   UNL     1      42.191 -20.690 -38.253  0.00  0.00    -0.012 C 
ATOM     20  C   UNL     1      41.070 -21.416 -39.014  0.00  0.00    -0.045 C 
ATOM     21  C   UNL     1      41.262 -21.878 -40.262  0.00  0.00    -0.082 C 
ATOM     22  C   UNL     1      42.530 -21.783 -41.033  0.00  0.00    -0.031 C 
ATOM     23  C   UNL     1      43.786 -21.466 -40.191  0.00  0.00    -0.027 C 
ATOM     24  C   UNL     1      45.058 -21.194 -41.108  0.00  0.00    -0.031 C 
ATOM     25  C   UNL     1      46.313 -21.853 -40.484  0.00  0.00    -0.060 C 
ATOM     26  C   UNL     1      44.938 -21.838 -42.515  0.00  0.00    -0.060 C 
ATOM     27  C   UNL     1      45.322 -19.677 -41.301  0.00  0.00    -0.048 C 
ATOM     28  C   UNL     1      44.057 -18.832 -41.238  0.00  0.00    -0.052 C 
ATOM     29  C   UNL     1      43.249 -18.989 -39.943  0.00  0.00    -0.047 C 
ATOM     30  C   UNL     1      43.468 -20.317 -39.163  0.00  0.00    -0.022 C 
ATOM     31  C   UNL     1      44.655 -20.138 -38.176  0.00  0.00    -0.059 C 
BRANCH  20  32
ATOM     32  C   UNL     1      39.771 -21.673 -38.280  0.00  0.00    +0.066 C 
BRANCH  32  33
ATOM     33  O   UNL     1      39.622 -23.029 -37.876  0.00  0.00    -0.391 OA
ATOM     34  H   UNL     1      39.938 -23.131 -36.965  0.00  0.00    +0.000 HD
ENDBRANCH  32  33
ENDBRANCH  20  32
ENDBRANCH  18  19
ENDBRANCH   1  18
TORSDOF 12
ENDMDL
MODEL 13
REMARK VINA RESULT:    -5.550      2.848      8.121
REMARK INTER + INTRA:         -11.685
REMARK INTER:                  -9.257
REMARK INTRA:                  -2.428
REMARK UNBOUND:                -2.403
REMARK  Name = cpd288.pdb
REMARK  16 active torsions:
REMARK  status: ('A' for Active; 'I' for Inactive)
REMARK    1  A    between atoms: C_1  and  C_2
REMARK    2  A    between atoms: C_2  and  C_3
REMARK    3  A    between atoms: C_2  and  C_20
REMARK    4  A    between atoms: C_3  and  C_4
REMARK    5  A    between atoms: C_4  and  C_5
REMARK    6  A    between atoms: C_6  and  C_7
REMARK    7  A    between atoms: C_7  and  O_8
REMARK    8  A    between atoms: C_12  and  C_13
REMARK    9  A    between atoms: C_12  and  C_14
REMARK   10  A    between atoms: C_18  and  C_19
REMARK   11  A    between atoms: C_20  and  C_21
REMARK   12  A    between atoms: C_21  and  O_23
REMARK   13  A    between atoms: O_23  and  C_24
REMARK   14  A    between atoms: C_24  and  C_25
REMARK   15  A    between atoms: C_25  and  C_26
REMARK   16  A    between atoms: C_26  and  N_27
REMARK                            x       y       z     vdW  Elec       q    Type
REMARK                         _______ _______ _______ _____ _____    ______ ____
ROOT
ATOM      1  C   UNL     1      43.041 -18.557 -37.244  0.00  0.00    -0.049 C 
ENDROOT
BRANCH   1   3
ATOM      2  C   UNL     1      41.280 -17.394 -38.669  0.00  0.00    -0.062 C 
ATOM      3  C   UNL     1      42.509 -18.303 -38.669  0.00  0.00    -0.034 C 
BRANCH   3   4
ATOM      4  C   UNL     1      43.613 -17.755 -39.599  0.00  0.00    +0.048 C 
BRANCH   4   5
ATOM      5  C   UNL     1      44.013 -18.693 -40.718  0.00  0.00    +0.307 C 
ATOM      6  O   UNL     1      44.438 -18.255 -41.785  0.00  0.00    -0.251 OA
BRANCH   5   7
ATOM      7  O   UNL     1      43.852 -20.024 -40.549  0.00  0.00    -0.465 OA
BRANCH   7   8
ATOM      8  C   UNL     1      44.899 -21.009 -40.650  0.00  0.00    +0.094 C 
BRANCH   8   9
ATOM      9  C   UNL     1      46.107 -20.583 -39.822  0.00  0.00    -0.006 C 
BRANCH   9  10
ATOM     10  C   UNL     1      45.911 -20.935 -38.344  0.00  0.00    +0.002 C 
BRANCH  10  11
ATOM     11  N   UNL     1      46.894 -20.263 -37.487  0.00  0.00    -0.298 N 
ATOM     12  C   UNL     1      46.429 -20.220 -36.084  0.00  0.00    +0.022 C 
ATOM     13  C   UNL     1      47.180 -19.158 -35.270  0.00  0.00    +0.060 C 
ATOM     14  O   UNL     1      46.935 -17.826 -35.742  0.00  0.00    -0.377 OA
ATOM     15  C   UNL     1      46.622 -17.774 -37.140  0.00  0.00    +0.060 C 
ATOM     16  C   UNL     1      47.267 -18.910 -37.953  0.00  0.00    +0.022 C 
ATOM     17  H   UNL     1      47.742 -20.826 -37.546  0.00  0.00    +0.000 HD
ENDBRANCH  10  11
ENDBRANCH   9  10
ENDBRANCH   8   9
ENDBRANCH   7   8
ENDBRANCH   5   7
ENDBRANCH   4   5
ENDBRANCH   3   4
ENDBRANCH   1   3
BRANCH   1  18
ATOM     18  C   UNL     1      42.688 -19.908 -36.582  0.00  0.00    -0.046 C 
BRANCH  18  19
ATOM     19  C   UNL     1      41.202 -20.408 -36.616  0.00  0.00    -0.012 C 
ATOM     20  C   UNL     1      41.040 -21.781 -37.289  0.00  0.00    -0.045 C 
ATOM     21  C   UNL     1      40.215 -22.712 -36.780  0.00  0.00    -0.082 C 
ATOM     22  C   UNL     1      39.365 -22.547 -35.571  0.00  0.00    -0.031 C 
ATOM     23  C   UNL     1      39.156 -21.085 -35.114  0.00  0.00    -0.027 C 
ATOM     24  C   UNL     1      38.400 -21.008 -33.716  0.00  0.00    -0.031 C 
ATOM     25  C   UNL     1      37.366 -19.855 -33.733  0.00  0.00    -0.060 C 
ATOM     26  C   UNL     1      37.561 -22.278 -33.410  0.00  0.00    -0.060 C 
ATOM     27  C   UNL     1      39.382 -20.793 -32.533  0.00  0.00    -0.048 C 
ATOM     28  C   UNL     1      40.763 -21.387 -32.782  0.00  0.00    -0.052 C 
ATOM     29  C   UNL     1      41.460 -20.871 -34.049  0.00  0.00    -0.047 C 
ATOM     30  C   UNL     1      40.524 -20.308 -35.157  0.00  0.00    -0.022 C 
ATOM     31  C   UNL     1      40.287 -18.793 -34.902  0.00  0.00    -0.059 C 
BRANCH  20  32
ATOM     32  C   UNL     1      41.770 -22.016 -38.594  0.00  0.00    +0.066 C 
BRANCH  32  33
ATOM     33  O   UNL     1      41.204 -21.299 -39.684  0.00  0.00    -0.391 OA
ATOM     34  H   UNL     1      41.761 -20.533 -39.892  0.00  0.00    +0.000 HD
ENDBRANCH  32  33
ENDBRANCH  20  32
ENDBRANCH  18  19
ENDBRANCH   1  18
TORSDOF 12
ENDMDL
MODEL 14
REMARK VINA RESULT:    -5.514      1.809      4.505
REMARK INTER + INTRA:         -11.624
REMARK INTER:                  -9.772
REMARK INTRA:                  -1.851
REMARK UNBOUND:                -2.403
REMARK  Name = cpd288.pdb
REMARK  16 active torsions:
REMARK  status: ('A' for Active; 'I' for Inactive)
REMARK    1  A    between atoms: C_1  and  C_2
REMARK    2  A    between atoms: C_2  and  C_3
REMARK    3  A    between atoms: C_2  and  C_20
REMARK    4  A    between atoms: C_3  and  C_4
REMARK    5  A    between atoms: C_4  and  C_5
REMARK    6  A    between atoms: C_6  and  C_7
REMARK    7  A    between atoms: C_7  and  O_8
REMARK    8  A    between atoms: C_12  and  C_13
REMARK    9  A    between atoms: C_12  and  C_14
REMARK   10  A    between atoms: C_18  and  C_19
REMARK   11  A    between atoms: C_20  and  C_21
REMARK   12  A    between atoms: C_21  and  O_23
REMARK   13  A    between atoms: O_23  and  C_24
REMARK   14  A    between atoms: C_24  and  C_25
REMARK   15  A    between atoms: C_25  and  C_26
REMARK   16  A    between atoms: C_26  and  N_27
REMARK                            x       y       z     vdW  Elec       q    Type
REMARK                         _______ _______ _______ _____ _____    ______ ____
ROOT
ATOM      1  C   UNL     1      40.981 -20.366 -36.023  0.00  0.00    -0.049 C 
ENDROOT
BRANCH   1   3
ATOM      2  C   UNL     1      39.325 -21.480 -37.604  0.00  0.00    -0.062 C 
ATOM      3  C   UNL     1      39.820 -21.371 -36.162  0.00  0.00    -0.034 C 
BRANCH   3   4
ATOM      4  C   UNL     1      40.194 -22.756 -35.591  0.00  0.00    +0.048 C 
BRANCH   4   5
ATOM      5  C   UNL     1      40.026 -22.882 -34.092  0.00  0.00    +0.307 C 
ATOM      6  O   UNL     1      40.975 -22.690 -33.333  0.00  0.00    -0.251 OA
BRANCH   5   7
ATOM      7  O   UNL     1      38.828 -23.258 -33.593  0.00  0.00    -0.465 OA
BRANCH   7   8
ATOM      8  C   UNL     1      37.682 -22.398 -33.444  0.00  0.00    +0.094 C 
BRANCH   8   9
ATOM      9  C   UNL     1      38.033 -21.194 -32.575  0.00  0.00    -0.006 C 
BRANCH   9  10
ATOM     10  C   UNL     1      37.669 -19.884 -33.280  0.00  0.00    +0.002 C 
BRANCH  10  11
ATOM     11  N   UNL     1      38.848 -19.041 -33.508  0.00  0.00    -0.298 N 
ATOM     12  C   UNL     1      39.955 -19.427 -32.606  0.00  0.00    +0.022 C 
ATOM     13  C   UNL     1      41.005 -18.314 -32.489  0.00  0.00    +0.060 C 
ATOM     14  O   UNL     1      40.483 -17.124 -31.883  0.00  0.00    -0.377 OA
ATOM     15  C   UNL     1      39.075 -16.956 -32.095  0.00  0.00    +0.060 C 
ATOM     16  C   UNL     1      38.576 -17.591 -33.405  0.00  0.00    +0.022 C 
ATOM     17  H   UNL     1      39.125 -19.209 -34.475  0.00  0.00    +0.000 HD
ENDBRANCH  10  11
ENDBRANCH   9  10
ENDBRANCH   8   9
ENDBRANCH   7   8
ENDBRANCH   5   7
ENDBRANCH   4   5
ENDBRANCH   3   4
ENDBRANCH   1   3
BRANCH   1  18
ATOM     18  C   UNL     1      42.396 -20.855 -36.407  0.00  0.00    -0.046 C 
BRANCH  18  19
ATOM     19  C   UNL     1      43.479 -19.802 -36.825  0.00  0.00    -0.012 C 
ATOM     20  C   UNL     1      44.750 -19.865 -35.962  0.00  0.00    -0.045 C 
ATOM     21  C   UNL     1      45.971 -19.751 -36.512  0.00  0.00    -0.082 C 
ATOM     22  C   UNL     1      46.252 -19.531 -37.956  0.00  0.00    -0.031 C 
ATOM     23  C   UNL     1      45.048 -19.036 -38.789  0.00  0.00    -0.027 C 
ATOM     24  C   UNL     1      45.379 -19.009 -40.345  0.00  0.00    -0.031 C 
ATOM     25  C   UNL     1      44.778 -17.738 -40.994  0.00  0.00    -0.060 C 
ATOM     26  C   UNL     1      46.900 -18.915 -40.639  0.00  0.00    -0.060 C 
ATOM     27  C   UNL     1      44.831 -20.263 -41.078  0.00  0.00    -0.048 C 
ATOM     28  C   UNL     1      44.763 -21.498 -40.190  0.00  0.00    -0.052 C 
ATOM     29  C   UNL     1      43.930 -21.321 -38.913  0.00  0.00    -0.047 C 
ATOM     30  C   UNL     1      43.760 -19.859 -38.411  0.00  0.00    -0.022 C 
ATOM     31  C   UNL     1      42.508 -19.231 -39.087  0.00  0.00    -0.059 C 
BRANCH  20  32
ATOM     32  C   UNL     1      44.579 -19.969 -34.462  0.00  0.00    +0.066 C 
BRANCH  32  33
ATOM     33  O   UNL     1      45.353 -21.014 -33.886  0.00  0.00    -0.391 OA
ATOM     34  H   UNL     1      46.059 -21.269 -34.500  0.00  0.00    +0.000 HD
ENDBRANCH  32  33
ENDBRANCH  20  32
ENDBRANCH  18  19
ENDBRANCH   1  18
TORSDOF 12
ENDMDL
MODEL 15
REMARK VINA RESULT:    -5.492      2.062      4.352
REMARK INTER + INTRA:         -11.588
REMARK INTER:                  -9.408
REMARK INTRA:                  -2.180
REMARK UNBOUND:                -2.403
REMARK  Name = cpd288.pdb
REMARK  16 active torsions:
REMARK  status: ('A' for Active; 'I' for Inactive)
REMARK    1  A    between atoms: C_1  and  C_2
REMARK    2  A    between atoms: C_2  and  C_3
REMARK    3  A    between atoms: C_2  and  C_20
REMARK    4  A    between atoms: C_3  and  C_4
REMARK    5  A    between atoms: C_4  and  C_5
REMARK    6  A    between atoms: C_6  and  C_7
REMARK    7  A    between atoms: C_7  and  O_8
REMARK    8  A    between atoms: C_12  and  C_13
REMARK    9  A    between atoms: C_12  and  C_14
REMARK   10  A    between atoms: C_18  and  C_19
REMARK   11  A    between atoms: C_20  and  C_21
REMARK   12  A    between atoms: C_21  and  O_23
REMARK   13  A    between atoms: O_23  and  C_24
REMARK   14  A    between atoms: C_24  and  C_25
REMARK   15  A    between atoms: C_25  and  C_26
REMARK   16  A    between atoms: C_26  and  N_27
REMARK                            x       y       z     vdW  Elec       q    Type
REMARK                         _______ _______ _______ _____ _____    ______ ____
ROOT
ATOM      1  C   UNL     1      41.038 -18.287 -38.618  0.00  0.00    -0.049 C 
ENDROOT
BRANCH   1   3
ATOM      2  C   UNL     1      39.469 -20.151 -39.358  0.00  0.00    -0.062 C 
ATOM      3  C   UNL     1      40.211 -19.515 -38.183  0.00  0.00    -0.034 C 
BRANCH   3   4
ATOM      4  C   UNL     1      41.081 -20.553 -37.441  0.00  0.00    +0.048 C 
BRANCH   4   5
ATOM      5  C   UNL     1      40.295 -21.620 -36.708  0.00  0.00    +0.307 C 
ATOM      6  O   UNL     1      40.332 -22.793 -37.076  0.00  0.00    -0.251 OA
BRANCH   5   7
ATOM      7  O   UNL     1      39.509 -21.261 -35.669  0.00  0.00    -0.465 OA
BRANCH   7   8
ATOM      8  C   UNL     1      39.891 -20.365 -34.608  0.00  0.00    +0.094 C 
BRANCH   8   9
ATOM      9  C   UNL     1      40.560 -21.138 -33.477  0.00  0.00    -0.006 C 
BRANCH   9  10
ATOM     10  C   UNL     1      42.083 -20.995 -33.540  0.00  0.00    +0.002 C 
BRANCH  10  11
ATOM     11  N   UNL     1      42.487 -19.660 -33.997  0.00  0.00    -0.298 N 
ATOM     12  C   UNL     1      43.713 -19.734 -34.822  0.00  0.00    +0.022 C 
ATOM     13  C   UNL     1      44.407 -18.369 -34.929  0.00  0.00    +0.060 C 
ATOM     14  O   UNL     1      44.886 -17.894 -33.663  0.00  0.00    -0.377 OA
ATOM     15  C   UNL     1      44.124 -18.385 -32.553  0.00  0.00    +0.060 C 
ATOM     16  C   UNL     1      42.655 -18.678 -32.904  0.00  0.00    +0.022 C 
ATOM     17  H   UNL     1      41.715 -19.318 -34.568  0.00  0.00    +0.000 HD
ENDBRANCH  10  11
ENDBRANCH   9  10
ENDBRANCH   8   9
ENDBRANCH   7   8
ENDBRANCH   5   7
ENDBRANCH   4   5
ENDBRANCH   3   4
ENDBRANCH   1   3
BRANCH   1  18
ATOM     18  C   UNL     1      42.577 -18.398 -38.527  0.00  0.00    -0.046 C 
BRANCH  18  19
ATOM     19  C   UNL     1      43.415 -18.476 -39.850  0.00  0.00    -0.012 C 
ATOM     20  C   UNL     1      44.282 -17.230 -40.092  0.00  0.00    -0.045 C 
ATOM     21  C   UNL     1      45.540 -17.338 -40.554  0.00  0.00    -0.082 C 
ATOM     22  C   UNL     1      46.227 -18.609 -40.906  0.00  0.00    -0.031 C 
ATOM     23  C   UNL     1      45.293 -19.826 -41.096  0.00  0.00    -0.027 C 
ATOM     24  C   UNL     1      46.114 -21.176 -41.280  0.00  0.00    -0.031 C 
ATOM     25  C   UNL     1      45.454 -22.055 -42.371  0.00  0.00    -0.060 C 
ATOM     26  C   UNL     1      47.560 -20.940 -41.793  0.00  0.00    -0.060 C 
ATOM     27  C   UNL     1      46.206 -21.987 -39.960  0.00  0.00    -0.048 C 
ATOM     28  C   UNL     1      46.172 -21.113 -38.713  0.00  0.00    -0.052 C 
ATOM     29  C   UNL     1      44.939 -20.206 -38.603  0.00  0.00    -0.047 C 
ATOM     30  C   UNL     1      44.223 -19.868 -39.942  0.00  0.00    -0.022 C 
ATOM     31  C   UNL     1      43.157 -20.959 -40.240  0.00  0.00    -0.059 C 
BRANCH  20  32
ATOM     32  C   UNL     1      43.644 -15.875 -39.879  0.00  0.00    +0.066 C 
BRANCH  32  33
ATOM     33  O   UNL     1      42.537 -15.641 -40.741  0.00  0.00    -0.391 OA
ATOM     34  H   UNL     1      41.842 -16.293 -40.559  0.00  0.00    +0.000 HD
ENDBRANCH  32  33
ENDBRANCH  20  32
ENDBRANCH  18  19
ENDBRANCH   1  18
TORSDOF 12
ENDMDL
MODEL 16
REMARK VINA RESULT:    -5.454      2.896      7.810
REMARK INTER + INTRA:         -11.524
REMARK INTER:                  -9.651
REMARK INTRA:                  -1.874
REMARK UNBOUND:                -2.403
REMARK  Name = cpd288.pdb
REMARK  16 active torsions:
REMARK  status: ('A' for Active; 'I' for Inactive)
REMARK    1  A    between atoms: C_1  and  C_2
REMARK    2  A    between atoms: C_2  and  C_3
REMARK    3  A    between atoms: C_2  and  C_20
REMARK    4  A    between atoms: C_3  and  C_4
REMARK    5  A    between atoms: C_4  and  C_5
REMARK    6  A    between atoms: C_6  and  C_7
REMARK    7  A    between atoms: C_7  and  O_8
REMARK    8  A    between atoms: C_12  and  C_13
REMARK    9  A    between atoms: C_12  and  C_14
REMARK   10  A    between atoms: C_18  and  C_19
REMARK   11  A    between atoms: C_20  and  C_21
REMARK   12  A    between atoms: C_21  and  O_23
REMARK   13  A    between atoms: O_23  and  C_24
REMARK   14  A    between atoms: C_24  and  C_25
REMARK   15  A    between atoms: C_25  and  C_26
REMARK   16  A    between atoms: C_26  and  N_27
REMARK                            x       y       z     vdW  Elec       q    Type
REMARK                         _______ _______ _______ _____ _____    ______ ____
ROOT
ATOM      1  C   UNL     1      41.474 -17.008 -33.349  0.00  0.00    -0.049 C 
ENDROOT
BRANCH   1   3
ATOM      2  C   UNL     1      43.253 -15.959 -34.839  0.00  0.00    -0.062 C 
ATOM      3  C   UNL     1      42.880 -17.157 -33.965  0.00  0.00    -0.034 C 
BRANCH   3   4
ATOM      4  C   UNL     1      43.951 -17.418 -32.884  0.00  0.00    +0.048 C 
BRANCH   4   5
ATOM      5  C   UNL     1      45.083 -18.319 -33.327  0.00  0.00    +0.307 C 
ATOM      6  O   UNL     1      44.913 -19.531 -33.447  0.00  0.00    -0.251 OA
BRANCH   5   7
ATOM      7  O   UNL     1      46.305 -17.784 -33.544  0.00  0.00    -0.465 OA
BRANCH   7   8
ATOM      8  C   UNL     1      47.133 -18.038 -34.696  0.00  0.00    +0.094 C 
BRANCH   8   9
ATOM      9  C   UNL     1      46.859 -17.004 -35.783  0.00  0.00    -0.006 C 
BRANCH   9  10
ATOM     10  C   UNL     1      45.965 -17.586 -36.882  0.00  0.00    +0.002 C 
BRANCH  10  11
ATOM     11  N   UNL     1      46.072 -19.047 -36.955  0.00  0.00    -0.298 N 
ATOM     12  C   UNL     1      46.925 -19.457 -38.092  0.00  0.00    +0.022 C 
ATOM     13  C   UNL     1      46.694 -20.926 -38.473  0.00  0.00    +0.060 C 
ATOM     14  O   UNL     1      45.364 -21.170 -38.951  0.00  0.00    -0.377 OA
ATOM     15  C   UNL     1      44.397 -20.261 -38.409  0.00  0.00    +0.060 C 
ATOM     16  C   UNL     1      44.767 -19.741 -37.009  0.00  0.00    +0.022 C 
ATOM     17  H   UNL     1      46.510 -19.337 -36.081  0.00  0.00    +0.000 HD
ENDBRANCH  10  11
ENDBRANCH   9  10
ENDBRANCH   8   9
ENDBRANCH   7   8
ENDBRANCH   5   7
ENDBRANCH   4   5
ENDBRANCH   3   4
ENDBRANCH   1   3
BRANCH   1  18
ATOM     18  C   UNL     1      40.339 -17.866 -33.951  0.00  0.00    -0.046 C 
BRANCH  18  19
ATOM     19  C   UNL     1      39.724 -19.027 -33.095  0.00  0.00    -0.012 C 
ATOM     20  C   UNL     1      38.218 -18.857 -32.836  0.00  0.00    -0.045 C 
ATOM     21  C   UNL     1      37.378 -19.905 -32.905  0.00  0.00    -0.082 C 
ATOM     22  C   UNL     1      37.770 -21.309 -33.197  0.00  0.00    -0.031 C 
ATOM     23  C   UNL     1      39.277 -21.615 -33.038  0.00  0.00    -0.027 C 
ATOM     24  C   UNL     1      39.638 -23.078 -33.550  0.00  0.00    -0.031 C 
ATOM     25  C   UNL     1      40.661 -23.738 -32.591  0.00  0.00    -0.060 C 
ATOM     26  C   UNL     1      38.420 -24.040 -33.543  0.00  0.00    -0.060 C 
ATOM     27  C   UNL     1      40.224 -23.063 -34.987  0.00  0.00    -0.048 C 
ATOM     28  C   UNL     1      39.704 -21.912 -35.838  0.00  0.00    -0.052 C 
ATOM     29  C   UNL     1      39.942 -20.519 -35.239  0.00  0.00    -0.047 C 
ATOM     30  C   UNL     1      40.129 -20.467 -33.696  0.00  0.00    -0.022 C 
ATOM     31  C   UNL     1      41.635 -20.659 -33.358  0.00  0.00    -0.059 C 
BRANCH  20  32
ATOM     32  C   UNL     1      37.725 -17.490 -32.415  0.00  0.00    +0.066 C 
BRANCH  32  33
ATOM     33  O   UNL     1      36.338 -17.473 -32.100  0.00  0.00    -0.391 OA
ATOM     34  H   UNL     1      36.225 -17.361 -31.143  0.00  0.00    +0.000 HD
ENDBRANCH  32  33
ENDBRANCH  20  32
ENDBRANCH  18  19
ENDBRANCH   1  18
TORSDOF 12
ENDMDL
MODEL 17
REMARK VINA RESULT:    -5.415      2.115      4.460
REMARK INTER + INTRA:         -11.460
REMARK INTER:                  -9.538
REMARK INTRA:                  -1.921
REMARK UNBOUND:                -2.403
REMARK  Name = cpd288.pdb
REMARK  16 active torsions:
REMARK  status: ('A' for Active; 'I' for Inactive)
REMARK    1  A    between atoms: C_1  and  C_2
REMARK    2  A    between atoms: C_2  and  C_3
REMARK    3  A    between atoms: C_2  and  C_20
REMARK    4  A    between atoms: C_3  and  C_4
REMARK    5  A    between atoms: C_4  and  C_5
REMARK    6  A    between atoms: C_6  and  C_7
REMARK    7  A    between atoms: C_7  and  O_8
REMARK    8  A    between atoms: C_12  and  C_13
REMARK    9  A    between atoms: C_12  and  C_14
REMARK   10  A    between atoms: C_18  and  C_19
REMARK   11  A    between atoms: C_20  and  C_21
REMARK   12  A    between atoms: C_21  and  O_23
REMARK   13  A    between atoms: O_23  and  C_24
REMARK   14  A    between atoms: C_24  and  C_25
REMARK   15  A    between atoms: C_25  and  C_26
REMARK   16  A    between atoms: C_26  and  N_27
REMARK                            x       y       z     vdW  Elec       q    Type
REMARK                         _______ _______ _______ _____ _____    ______ ____
ROOT
ATOM      1  C   UNL     1      41.919 -21.254 -39.943  0.00  0.00    -0.049 C 
ENDROOT
BRANCH   1   3
ATOM      2  C   UNL     1      40.458 -22.424 -38.216  0.00  0.00    -0.062 C 
ATOM      3  C   UNL     1      40.663 -21.161 -39.052  0.00  0.00    -0.034 C 
BRANCH   3   4
ATOM      4  C   UNL     1      40.687 -19.897 -38.165  0.00  0.00    +0.048 C 
BRANCH   4   5
ATOM      5  C   UNL     1      39.474 -19.733 -37.274  0.00  0.00    +0.307 C 
ATOM      6  O   UNL     1      38.364 -19.516 -37.756  0.00  0.00    -0.251 OA
BRANCH   5   7
ATOM      7  O   UNL     1      39.631 -19.780 -35.933  0.00  0.00    -0.465 OA
BRANCH   7   8
ATOM      8  C   UNL     1      40.793 -19.320 -35.215  0.00  0.00    +0.094 C 
BRANCH   8   9
ATOM      9  C   UNL     1      41.184 -20.330 -34.141  0.00  0.00    -0.006 C 
BRANCH   9  10
ATOM     10  C   UNL     1      41.036 -21.765 -34.657  0.00  0.00    +0.002 C 
BRANCH  10  11
ATOM     11  N   UNL     1      40.195 -22.579 -33.772  0.00  0.00    -0.298 N 
ATOM     12  C   UNL     1      39.123 -23.253 -34.536  0.00  0.00    +0.022 C 
ATOM     13  C   UNL     1      37.984 -23.722 -33.620  0.00  0.00    +0.060 C 
ATOM     14  O   UNL     1      37.304 -22.633 -32.983  0.00  0.00    -0.377 OA
ATOM     15  C   UNL     1      38.137 -21.482 -32.794  0.00  0.00    +0.060 C 
ATOM     16  C   UNL     1      39.627 -21.829 -32.630  0.00  0.00    +0.022 C 
ATOM     17  H   UNL     1      40.816 -23.280 -33.368  0.00  0.00    +0.000 HD
ENDBRANCH  10  11
ENDBRANCH   9  10
ENDBRANCH   8   9
ENDBRANCH   7   8
ENDBRANCH   5   7
ENDBRANCH   4   5
ENDBRANCH   3   4
ENDBRANCH   1   3
BRANCH   1  18
ATOM     18  C   UNL     1      43.026 -20.199 -39.724  0.00  0.00    -0.046 C 
BRANCH  18  19
ATOM     19  C   UNL     1      44.414 -20.656 -39.155  0.00  0.00    -0.012 C 
ATOM     20  C   UNL     1      45.534 -20.643 -40.208  0.00  0.00    -0.045 C 
ATOM     21  C   UNL     1      46.765 -20.193 -39.908  0.00  0.00    -0.082 C 
ATOM     22  C   UNL     1      47.204 -19.697 -38.577  0.00  0.00    -0.031 C 
ATOM     23  C   UNL     1      46.281 -20.081 -37.398  0.00  0.00    -0.027 C 
ATOM     24  C   UNL     1      46.714 -19.355 -36.050  0.00  0.00    -0.031 C 
ATOM     25  C   UNL     1      46.593 -20.336 -34.857  0.00  0.00    -0.060 C 
ATOM     26  C   UNL     1      48.205 -18.921 -36.048  0.00  0.00    -0.060 C 
ATOM     27  C   UNL     1      45.853 -18.096 -35.764  0.00  0.00    -0.048 C 
ATOM     28  C   UNL     1      45.336 -17.420 -37.026  0.00  0.00    -0.052 C 
ATOM     29  C   UNL     1      44.512 -18.332 -37.946  0.00  0.00    -0.047 C 
ATOM     30  C   UNL     1      44.776 -19.858 -37.802  0.00  0.00    -0.022 C 
ATOM     31  C   UNL     1      43.837 -20.436 -36.705  0.00  0.00    -0.059 C 
BRANCH  20  32
ATOM     32  C   UNL     1      45.231 -21.236 -41.567  0.00  0.00    +0.066 C 
BRANCH  32  33
ATOM     33  O   UNL     1      45.902 -20.566 -42.627  0.00  0.00    -0.391 OA
ATOM     34  H   UNL     1      46.219 -19.704 -42.315  0.00  0.00    +0.000 HD
ENDBRANCH  32  33
ENDBRANCH  20  32
ENDBRANCH  18  19
ENDBRANCH   1  18
TORSDOF 12
ENDMDL
MODEL 18
REMARK VINA RESULT:    -5.315      2.723      7.718
REMARK INTER + INTRA:         -11.291
REMARK INTER:                  -9.383
REMARK INTRA:                  -1.908
REMARK UNBOUND:                -2.403
REMARK  Name = cpd288.pdb
REMARK  16 active torsions:
REMARK  status: ('A' for Active; 'I' for Inactive)
REMARK    1  A    between atoms: C_1  and  C_2
REMARK    2  A    between atoms: C_2  and  C_3
REMARK    3  A    between atoms: C_2  and  C_20
REMARK    4  A    between atoms: C_3  and  C_4
REMARK    5  A    between atoms: C_4  and  C_5
REMARK    6  A    between atoms: C_6  and  C_7
REMARK    7  A    between atoms: C_7  and  O_8
REMARK    8  A    between atoms: C_12  and  C_13
REMARK    9  A    between atoms: C_12  and  C_14
REMARK   10  A    between atoms: C_18  and  C_19
REMARK   11  A    between atoms: C_20  and  C_21
REMARK   12  A    between atoms: C_21  and  O_23
REMARK   13  A    between atoms: O_23  and  C_24
REMARK   14  A    between atoms: C_24  and  C_25
REMARK   15  A    between atoms: C_25  and  C_26
REMARK   16  A    between atoms: C_26  and  N_27
REMARK                            x       y       z     vdW  Elec       q    Type
REMARK                         _______ _______ _______ _____ _____    ______ ____
ROOT
ATOM      1  C   UNL     1      42.059 -19.612 -39.284  0.00  0.00    -0.049 C 
ENDROOT
BRANCH   1   3
ATOM      2  C   UNL     1      42.302 -21.847 -40.479  0.00  0.00    -0.062 C 
ATOM      3  C   UNL     1      43.020 -20.741 -39.707  0.00  0.00    -0.034 C 
BRANCH   3   4
ATOM      4  C   UNL     1      44.227 -20.194 -40.501  0.00  0.00    +0.048 C 
BRANCH   4   5
ATOM      5  C   UNL     1      45.566 -20.752 -40.071  0.00  0.00    +0.307 C 
ATOM      6  O   UNL     1      45.739 -21.965 -39.966  0.00  0.00    -0.251 OA
BRANCH   5   7
ATOM      7  O   UNL     1      46.563 -19.897 -39.752  0.00  0.00    -0.465 OA
BRANCH   7   8
ATOM      8  C   UNL     1      46.615 -18.505 -40.119  0.00  0.00    +0.094 C 
BRANCH   8   9
ATOM      9  C   UNL     1      46.806 -17.639 -38.878  0.00  0.00    -0.006 C 
BRANCH   9  10
ATOM     10  C   UNL     1      47.135 -18.498 -37.654  0.00  0.00    +0.002 C 
BRANCH  10  11
ATOM     11  N   UNL     1      45.948 -18.747 -36.827  0.00  0.00    -0.298 N 
ATOM     12  C   UNL     1      45.903 -17.818 -35.677  0.00  0.00    +0.022 C 
ATOM     13  C   UNL     1      44.967 -18.330 -34.573  0.00  0.00    +0.060 C 
ATOM     14  O   UNL     1      45.421 -19.559 -33.990  0.00  0.00    -0.377 OA
ATOM     15  C   UNL     1      46.198 -20.356 -34.893  0.00  0.00    +0.060 C 
ATOM     16  C   UNL     1      45.821 -20.148 -36.370  0.00  0.00    +0.022 C 
ATOM     17  H   UNL     1      45.147 -18.574 -37.434  0.00  0.00    +0.000 HD
ENDBRANCH  10  11
ENDBRANCH   9  10
ENDBRANCH   8   9
ENDBRANCH   7   8
ENDBRANCH   5   7
ENDBRANCH   4   5
ENDBRANCH   3   4
ENDBRANCH   1   3
BRANCH   1  18
ATOM     18  C   UNL     1      40.677 -20.024 -38.728  0.00  0.00    -0.046 C 
BRANCH  18  19
ATOM     19  C   UNL     1      40.257 -19.544 -37.296  0.00  0.00    -0.012 C 
ATOM     20  C   UNL     1      38.884 -18.854 -37.267  0.00  0.00    -0.045 C 
ATOM     21  C   UNL     1      38.007 -19.091 -36.276  0.00  0.00    -0.082 C 
ATOM     22  C   UNL     1      38.238 -19.987 -35.113  0.00  0.00    -0.031 C 
ATOM     23  C   UNL     1      39.717 -20.360 -34.858  0.00  0.00    -0.027 C 
ATOM     24  C   UNL     1      39.858 -21.465 -33.721  0.00  0.00    -0.031 C 
ATOM     25  C   UNL     1      41.065 -21.136 -32.808  0.00  0.00    -0.060 C 
ATOM     26  C   UNL     1      38.640 -21.503 -32.759  0.00  0.00    -0.060 C 
ATOM     27  C   UNL     1      40.040 -22.888 -34.313  0.00  0.00    -0.048 C 
ATOM     28  C   UNL     1      39.369 -23.067 -35.668  0.00  0.00    -0.052 C 
ATOM     29  C   UNL     1      39.825 -22.070 -36.742  0.00  0.00    -0.047 C 
ATOM     30  C   UNL     1      40.418 -20.731 -36.217  0.00  0.00    -0.022 C 
ATOM     31  C   UNL     1      41.948 -20.903 -35.999  0.00  0.00    -0.059 C 
BRANCH  20  32
ATOM     32  C   UNL     1      38.587 -17.830 -38.342  0.00  0.00    +0.066 C 
BRANCH  32  33
ATOM     33  O   UNL     1      37.570 -18.251 -39.243  0.00  0.00    -0.391 OA
ATOM     34  H   UNL     1      37.791 -19.128 -39.593  0.00  0.00    +0.000 HD
ENDBRANCH  32  33
ENDBRANCH  20  32
ENDBRANCH  18  19
ENDBRANCH   1  18
TORSDOF 12
ENDMDL
MODEL 19
REMARK VINA RESULT:    -5.246      3.601      6.459
REMARK INTER + INTRA:         -11.176
REMARK INTER:                  -9.255
REMARK INTRA:                  -1.922
REMARK UNBOUND:                -2.403
REMARK  Name = cpd288.pdb
REMARK  16 active torsions:
REMARK  status: ('A' for Active; 'I' for Inactive)
REMARK    1  A    between atoms: C_1  and  C_2
REMARK    2  A    between atoms: C_2  and  C_3
REMARK    3  A    between atoms: C_2  and  C_20
REMARK    4  A    between atoms: C_3  and  C_4
REMARK    5  A    between atoms: C_4  and  C_5
REMARK    6  A    between atoms: C_6  and  C_7
REMARK    7  A    between atoms: C_7  and  O_8
REMARK    8  A    between atoms: C_12  and  C_13
REMARK    9  A    between atoms: C_12  and  C_14
REMARK   10  A    between atoms: C_18  and  C_19
REMARK   11  A    between atoms: C_20  and  C_21
REMARK   12  A    between atoms: C_21  and  O_23
REMARK   13  A    between atoms: O_23  and  C_24
REMARK   14  A    between atoms: C_24  and  C_25
REMARK   15  A    between atoms: C_25  and  C_26
REMARK   16  A    between atoms: C_26  and  N_27
REMARK                            x       y       z     vdW  Elec       q    Type
REMARK                         _______ _______ _______ _____ _____    ______ ____
ROOT
ATOM      1  C   UNL     1      43.017 -20.049 -35.306  0.00  0.00    -0.049 C 
ENDROOT
BRANCH   1   3
ATOM      2  C   UNL     1      43.360 -18.921 -33.049  0.00  0.00    -0.062 C 
ATOM      3  C   UNL     1      43.875 -19.068 -34.481  0.00  0.00    -0.034 C 
BRANCH   3   4
ATOM      4  C   UNL     1      45.368 -19.461 -34.502  0.00  0.00    +0.048 C 
BRANCH   4   5
ATOM      5  C   UNL     1      46.314 -18.314 -34.784  0.00  0.00    +0.307 C 
ATOM      6  O   UNL     1      47.246 -18.064 -34.020  0.00  0.00    -0.251 OA
BRANCH   5   7
ATOM      7  O   UNL     1      46.096 -17.529 -35.862  0.00  0.00    -0.465 OA
BRANCH   7   8
ATOM      8  C   UNL     1      47.114 -17.038 -36.754  0.00  0.00    +0.094 C 
BRANCH   8   9
ATOM      9  C   UNL     1      46.626 -15.786 -37.476  0.00  0.00    -0.006 C 
BRANCH   9  10
ATOM     10  C   UNL     1      47.241 -15.684 -38.875  0.00  0.00    +0.002 C 
BRANCH  10  11
ATOM     11  N   UNL     1      46.227 -15.404 -39.898  0.00  0.00    -0.298 N 
ATOM     12  C   UNL     1      46.777 -14.536 -40.962  0.00  0.00    +0.022 C 
ATOM     13  C   UNL     1      45.663 -13.863 -41.775  0.00  0.00    +0.060 C 
ATOM     14  O   UNL     1      44.872 -12.963 -40.988  0.00  0.00    -0.377 OA
ATOM     15  C   UNL     1      44.824 -13.322 -39.601  0.00  0.00    +0.060 C 
ATOM     16  C   UNL     1      44.974 -14.834 -39.358  0.00  0.00    +0.022 C 
ATOM     17  H   UNL     1      45.977 -16.310 -40.295  0.00  0.00    +0.000 HD
ENDBRANCH  10  11
ENDBRANCH   9  10
ENDBRANCH   8   9
ENDBRANCH   7   8
ENDBRANCH   5   7
ENDBRANCH   4   5
ENDBRANCH   3   4
ENDBRANCH   1   3
BRANCH   1  18
ATOM     18  C   UNL     1      42.764 -19.699 -36.790  0.00  0.00    -0.046 C 
BRANCH  18  19
ATOM     19  C   UNL     1      43.130 -20.750 -37.894  0.00  0.00    -0.012 C 
ATOM     20  C   UNL     1      41.897 -21.416 -38.528  0.00  0.00    -0.045 C 
ATOM     21  C   UNL     1      41.831 -21.640 -39.852  0.00  0.00    -0.082 C 
ATOM     22  C   UNL     1      42.897 -21.318 -40.837  0.00  0.00    -0.031 C 
ATOM     23  C   UNL     1      44.294 -21.058 -40.229  0.00  0.00    -0.027 C 
ATOM     24  C   UNL     1      45.325 -20.538 -41.323  0.00  0.00    -0.031 C 
ATOM     25  C   UNL     1      46.709 -21.198 -41.105  0.00  0.00    -0.060 C 
ATOM     26  C   UNL     1      44.927 -20.936 -42.769  0.00  0.00    -0.060 C 
ATOM     27  C   UNL     1      45.486 -18.994 -41.284  0.00  0.00    -0.048 C 
ATOM     28  C   UNL     1      44.235 -18.270 -40.806  0.00  0.00    -0.052 C 
ATOM     29  C   UNL     1      43.733 -18.708 -39.423  0.00  0.00    -0.047 C 
ATOM     30  C   UNL     1      44.164 -20.131 -38.964  0.00  0.00    -0.022 C 
ATOM     31  C   UNL     1      45.530 -20.036 -38.228  0.00  0.00    -0.059 C 
BRANCH  20  32
ATOM     32  C   UNL     1      40.799 -21.892 -37.602  0.00  0.00    +0.066 C 
BRANCH  32  33
ATOM     33  O   UNL     1      41.209 -22.963 -36.760  0.00  0.00    -0.391 OA
ATOM     34  H   UNL     1      40.950 -22.772 -35.845  0.00  0.00    +0.000 HD
ENDBRANCH  32  33
ENDBRANCH  20  32
ENDBRANCH  18  19
ENDBRANCH   1  18
TORSDOF 12
ENDMDL
MODEL 20
REMARK VINA RESULT:    -5.186     18.939     21.966
REMARK INTER + INTRA:         -11.075
REMARK INTER:                  -8.151
REMARK INTRA:                  -2.925
REMARK UNBOUND:                -2.403
REMARK  Name = cpd288.pdb
REMARK  16 active torsions:
REMARK  status: ('A' for Active; 'I' for Inactive)
REMARK    1  A    between atoms: C_1  and  C_2
REMARK    2  A    between atoms: C_2  and  C_3
REMARK    3  A    between atoms: C_2  and  C_20
REMARK    4  A    between atoms: C_3  and  C_4
REMARK    5  A    between atoms: C_4  and  C_5
REMARK    6  A    between atoms: C_6  and  C_7
REMARK    7  A    between atoms: C_7  and  O_8
REMARK    8  A    between atoms: C_12  and  C_13
REMARK    9  A    between atoms: C_12  and  C_14
REMARK   10  A    between atoms: C_18  and  C_19
REMARK   11  A    between atoms: C_20  and  C_21
REMARK   12  A    between atoms: C_21  and  O_23
REMARK   13  A    between atoms: O_23  and  C_24
REMARK   14  A    between atoms: C_24  and  C_25
REMARK   15  A    between atoms: C_25  and  C_26
REMARK   16  A    between atoms: C_26  and  N_27
REMARK                            x       y       z     vdW  Elec       q    Type
REMARK                         _______ _______ _______ _____ _____    ______ ____
ROOT
ATOM      1  C   UNL     1      36.546 -37.952 -27.536  0.00  0.00    -0.049 C 
ENDROOT
BRANCH   1   3
ATOM      2  C   UNL     1      38.620 -37.971 -29.014  0.00  0.00    -0.062 C 
ATOM      3  C   UNL     1      37.220 -38.542 -28.792  0.00  0.00    -0.034 C 
BRANCH   3   4
ATOM      4  C   UNL     1      37.243 -40.086 -28.752  0.00  0.00    +0.048 C 
BRANCH   4   5
ATOM      5  C   UNL     1      35.876 -40.735 -28.789  0.00  0.00    +0.307 C 
ATOM      6  O   UNL     1      35.431 -41.320 -27.803  0.00  0.00    -0.251 OA
BRANCH   5   7
ATOM      7  O   UNL     1      35.165 -40.708 -29.937  0.00  0.00    -0.465 OA
BRANCH   7   8
ATOM      8  C   UNL     1      33.805 -41.159 -30.085  0.00  0.00    +0.094 C 
BRANCH   8   9
ATOM      9  C   UNL     1      32.997 -40.147 -30.892  0.00  0.00    -0.006 C 
BRANCH   9  10
ATOM     10  C   UNL     1      33.818 -39.598 -32.062  0.00  0.00    +0.002 C 
BRANCH  10  11
ATOM     11  N   UNL     1      33.332 -40.100 -33.353  0.00  0.00    -0.298 N 
ATOM     12  C   UNL     1      31.870 -40.323 -33.314  0.00  0.00    +0.022 C 
ATOM     13  C   UNL     1      31.409 -41.252 -34.446  0.00  0.00    +0.060 C 
ATOM     14  O   UNL     1      31.951 -42.575 -34.329  0.00  0.00    -0.377 OA
ATOM     15  C   UNL     1      33.214 -42.607 -33.653  0.00  0.00    +0.060 C 
ATOM     16  C   UNL     1      34.031 -41.315 -33.824  0.00  0.00    +0.022 C 
ATOM     17  H   UNL     1      33.545 -39.370 -34.032  0.00  0.00    +0.000 HD
ENDBRANCH  10  11
ENDBRANCH   9  10
ENDBRANCH   8   9
ENDBRANCH   7   8
ENDBRANCH   5   7
ENDBRANCH   4   5
ENDBRANCH   3   4
ENDBRANCH   1   3
BRANCH   1  18
ATOM     18  C   UNL     1      35.388 -36.952 -27.754  0.00  0.00    -0.046 C 
BRANCH  18  19
ATOM     19  C   UNL     1      34.260 -37.305 -28.784  0.00  0.00    -0.012 C 
ATOM     20  C   UNL     1      32.911 -37.628 -28.119  0.00  0.00    -0.045 C 
ATOM     21  C   UNL     1      31.755 -37.173 -28.634  0.00  0.00    -0.082 C 
ATOM     22  C   UNL     1      31.620 -36.359 -29.870  0.00  0.00    -0.031 C 
ATOM     23  C   UNL     1      32.856 -36.369 -30.798  0.00  0.00    -0.027 C 
ATOM     24  C   UNL     1      32.703 -35.330 -31.994  0.00  0.00    -0.031 C 
ATOM     25  C   UNL     1      33.245 -35.948 -33.307  0.00  0.00    -0.060 C 
ATOM     26  C   UNL     1      31.224 -34.982 -32.308  0.00  0.00    -0.060 C 
ATOM     27  C   UNL     1      33.453 -34.001 -31.709  0.00  0.00    -0.048 C 
ATOM     28  C   UNL     1      33.541 -33.664 -30.227  0.00  0.00    -0.052 C 
ATOM     29  C   UNL     1      34.202 -34.749 -29.365  0.00  0.00    -0.047 C 
ATOM     30  C   UNL     1      34.168 -36.192 -29.946  0.00  0.00    -0.022 C 
ATOM     31  C   UNL     1      35.420 -36.410 -30.842  0.00  0.00    -0.059 C 
BRANCH  20  32
ATOM     32  C   UNL     1      32.921 -38.549 -26.918  0.00  0.00    +0.066 C 
BRANCH  32  33
ATOM     33  O   UNL     1      32.747 -39.917 -27.267  0.00  0.00    -0.391 OA
ATOM     34  H   UNL     1      31.805 -40.094 -27.418  0.00  0.00    +0.000 HD
ENDBRANCH  32  33
ENDBRANCH  20  32
ENDBRANCH  18  19
ENDBRANCH   1  18
TORSDOF 12
ENDMDL
