REMARK  Name = cpd288.pdb
REMARK  16 active torsions:
REMARK  status: ('A' for Active; 'I' for Inactive)
REMARK    1  A    between atoms: C_1  and  C_2
REMARK    2  A    between atoms: C_2  and  C_3
REMARK    3  A    between atoms: C_2  and  C_20
REMARK    4  A    between atoms: C_3  and  C_4
REMARK    5  A    between atoms: C_4  and  C_5
REMARK    6  A    between atoms: C_6  and  C_7
REMARK    7  A    between atoms: C_7  and  O_8
REMARK    8  A    between atoms: C_12  and  C_13
REMARK    9  A    between atoms: C_12  and  C_14
REMARK   10  A    between atoms: C_18  and  C_19
REMARK   11  A    between atoms: C_20  and  C_21
REMARK   12  A    between atoms: C_21  and  O_23
REMARK   13  A    between atoms: O_23  and  C_24
REMARK   14  A    between atoms: C_24  and  C_25
REMARK   15  A    between atoms: C_25  and  C_26
REMARK   16  A    between atoms: C_26  and  N_27
REMARK                            x       y       z     vdW  Elec       q    Type
REMARK                         _______ _______ _______ _____ _____    ______ ____
ROOT
ATOM      1  C   UNL     1      -5.946  -0.111   2.193  0.00  0.00    -0.049 C 
ENDROOT
BRANCH   1   3
ATOM      2  C   UNL     1      -5.108   1.861   0.817  0.00  0.00    -0.062 C 
ATOM      3  C   UNL     1      -4.993   0.359   1.075  0.00  0.00    -0.034 C 
BRANCH   3   4
ATOM      4  C   UNL     1      -3.532  -0.051   1.363  0.00  0.00    +0.048 C 
BRANCH   4   5
ATOM      5  C   UNL     1      -2.951   0.546   2.627  0.00  0.00    +0.307 C 
ATOM      6  O   UNL     1      -3.262   0.105   3.732  0.00  0.00    -0.251 OA
BRANCH   5   7
ATOM      7  O   UNL     1      -2.120   1.607   2.532  0.00  0.00    -0.465 OA
BRANCH   7   8
ATOM      8  C   UNL     1      -1.469   2.049   1.325  0.00  0.00    +0.094 C 
BRANCH   8   9
ATOM      9  C   UNL     1      -0.248   1.182   1.035  0.00  0.00    -0.006 C 
BRANCH   9  10
ATOM     10  C   UNL     1       0.482   1.665  -0.222  0.00  0.00    +0.002 C 
BRANCH  10  11
ATOM     11  N   UNL     1       1.704   0.893  -0.474  0.00  0.00    -0.298 N 
ATOM     12  C   UNL     1       2.623   1.636  -1.364  0.00  0.00    +0.022 C 
ATOM     13  C   UNL     1       3.664   0.708  -2.005  0.00  0.00    +0.060 C 
ATOM     14  O   UNL     1       3.073  -0.266  -2.876  0.00  0.00    -0.377 OA
ATOM     15  C   UNL     1       1.730  -0.607  -2.509  0.00  0.00    +0.060 C 
ATOM     16  C   UNL     1       1.455  -0.466  -1.002  0.00  0.00    +0.022 C 
ATOM     17  H   UNL     1       2.144   0.766   0.437  0.00  0.00    +0.000 HD
ENDBRANCH  10  11
ENDBRANCH   9  10
ENDBRANCH   8   9
ENDBRANCH   7   8
ENDBRANCH   5   7
ENDBRANCH   4   5
ENDBRANCH   3   4
ENDBRANCH   1   3
BRANCH   1  18
ATOM     18  C   UNL     1      -7.464  -0.018   1.920  0.00  0.00    -0.046 C 
BRANCH  18  19
ATOM     19  C   UNL     1      -8.044  -0.659   0.612  0.00  0.00    -0.012 C 
ATOM     20  C   UNL     1      -8.191  -2.187   0.700  0.00  0.00    -0.045 C 
ATOM     21  C   UNL     1      -9.275  -2.811   0.207  0.00  0.00    -0.082 C 
ATOM     22  C   UNL     1     -10.414  -2.150  -0.483  0.00  0.00    -0.031 C 
ATOM     23  C   UNL     1     -10.134  -0.713  -0.979  0.00  0.00    -0.027 C 
ATOM     24  C   UNL     1     -11.452  -0.013  -1.531  0.00  0.00    -0.031 C 
ATOM     25  C   UNL     1     -11.126   0.801  -2.808  0.00  0.00    -0.060 C 
ATOM     26  C   UNL     1     -12.534  -1.030  -1.983  0.00  0.00    -0.060 C 
ATOM     27  C   UNL     1     -12.096   0.928  -0.478  0.00  0.00    -0.048 C 
ATOM     28  C   UNL     1     -11.840   0.490   0.958  0.00  0.00    -0.052 C 
ATOM     29  C   UNL     1     -10.357   0.347   1.326  0.00  0.00    -0.047 C 
ATOM     30  C   UNL     1      -9.383   0.103   0.138  0.00  0.00    -0.022 C 
ATOM     31  C   UNL     1      -8.914   1.474  -0.426  0.00  0.00    -0.059 C 
BRANCH  20  32
ATOM     32  C   UNL     1      -7.035  -2.974   1.279  0.00  0.00    +0.066 C 
BRANCH  32  33
ATOM     33  O   UNL     1      -7.169  -4.377   1.089  0.00  0.00    -0.391 OA
ATOM     34  H   UNL     1      -7.967  -4.690   1.543  0.00  0.00    +0.000 HD
ENDBRANCH  32  33
ENDBRANCH  20  32
ENDBRANCH  18  19
ENDBRANCH   1  18
TORSDOF 12
