MODEL 1
REMARK VINA RESULT:    -7.236      0.000      0.000
REMARK INTER + INTRA:         -11.731
REMARK INTER:                  -9.773
REMARK INTRA:                  -1.957
REMARK UNBOUND:                -1.957
REMARK  Name = cpd100.pdb
REMARK  17 active torsions:
REMARK  status: ('A' for Active; 'I' for Inactive)
REMARK    1  A    between atoms: C_1  and  C_2
REMARK    2  A    between atoms: C_2  and  C_3
REMARK    3  A    between atoms: C_2  and  C_4
REMARK    4  A    between atoms: C_15  and  C_16
REMARK    5  A    between atoms: C_17  and  C_18
REMARK    6  A    between atoms: C_18  and  C_19
REMARK    7  A    between atoms: C_18  and  N_20
REMARK    8  A    between atoms: N_20  and  C_21
REMARK    9  A    between atoms: N_20  and  C_22
REMARK   10  A    between atoms: C_23  and  O_24
REMARK   11  A    between atoms: O_24  and  C_25
REMARK   12  A    between atoms: C_25  and  C_27
REMARK   13  A    between atoms: C_27  and  C_28
REMARK   14  A    between atoms: C_27  and  C_29
REMARK   15  A    between atoms: C_27  and  C_30
REMARK   16  A    between atoms: C_32  and  C_33
REMARK   17  A    between atoms: C_38  and  C_39
REMARK                            x       y       z     vdW  Elec       q    Type
REMARK                         _______ _______ _______ _____ _____    ______ ____
ROOT
ATOM      1  C   UNL     1      45.962 -20.838 -41.416  0.00  0.00    +0.188 C 
ATOM      2  N   UNL     1      46.329 -19.619 -41.562  0.00  0.00    -0.250 NA
ATOM      3  C   UNL     1      46.905 -18.901 -40.424  0.00  0.00    +0.067 C 
ATOM      4  C   UNL     1      46.779 -17.388 -40.668  0.00  0.00    -0.011 C 
ATOM      5  C   UNL     1      45.615 -16.715 -40.004  0.00  0.00    -0.082 C 
ATOM      6  C   UNL     1      44.763 -17.306 -39.148  0.00  0.00    -0.069 C 
ATOM      7  C   UNL     1      43.674 -16.464 -38.498  0.00  0.00    -0.022 C 
ATOM      8  C   UNL     1      42.825 -17.187 -37.444  0.00  0.00    +0.025 C 
ATOM      9  C   UNL     1      41.989 -16.205 -36.619  0.00  0.00    +0.138 C 
ATOM     10  O   UNL     1      42.282 -15.014 -36.514  0.00  0.00    -0.297 OA
ATOM     11  C   UNL     1      40.756 -16.768 -35.916  0.00  0.00    +0.012 C 
ATOM     12  C   UNL     1      40.908 -18.268 -35.564  0.00  0.00    -0.012 C 
ATOM     13  C   UNL     1      42.006 -18.369 -34.465  0.00  0.00    -0.058 C 
ATOM     14  C   UNL     1      39.613 -18.963 -34.964  0.00  0.00    +0.018 C 
ATOM     15  C   UNL     1      38.964 -19.792 -36.088  0.00  0.00    +0.108 C 
ATOM     16  C   UNL     1      39.765 -19.491 -37.347  0.00  0.00    -0.009 C 
ATOM     17  C   UNL     1      41.197 -19.093 -36.891  0.00  0.00    -0.019 C 
ATOM     18  C   UNL     1      42.025 -20.364 -36.616  0.00  0.00    -0.059 C 
ATOM     19  C   UNL     1      41.843 -18.215 -38.032  0.00  0.00    -0.025 C 
ATOM     20  C   UNL     1      42.307 -18.961 -39.301  0.00  0.00    -0.048 C 
ATOM     21  C   UNL     1      43.710 -19.578 -39.377  0.00  0.00    -0.046 C 
ATOM     22  C   UNL     1      44.888 -18.780 -38.788  0.00  0.00    -0.009 C 
ATOM     23  C   UNL     1      46.332 -19.356 -39.074  0.00  0.00    +0.031 C 
ATOM     24  C   UNL     1      47.267 -18.852 -37.935  0.00  0.00    -0.054 C 
ATOM     25  C   UNL     1      46.413 -20.887 -39.059  0.00  0.00    +0.099 C 
ATOM     26  O   UNL     1      45.928 -21.520 -40.249  0.00  0.00    -0.479 OA
ENDROOT
BRANCH   1  28
ATOM     27  C   UNL     1      43.953 -21.966 -42.404  0.00  0.00    -0.054 C 
ATOM     28  C   UNL     1      45.443 -21.674 -42.568  0.00  0.00    +0.029 C 
ATOM     29  C   UNL     1      46.245 -22.963 -42.688  0.00  0.00    -0.054 C 
ENDBRANCH   1  28
BRANCH  14  30
ATOM     30  C   UNL     1      38.644 -18.102 -34.088  0.00  0.00    +0.014 C 
ATOM     31  C   UNL     1      38.824 -18.436 -32.594  0.00  0.00    -0.049 C 
BRANCH  30  32
ATOM     32  N   UNL     1      37.233 -18.055 -34.528  0.00  0.00    -0.305 N 
ATOM     33  C   UNL     1      36.988 -16.914 -35.420  0.00  0.00    -0.013 C 
ATOM     34  C   UNL     1      36.213 -18.075 -33.481  0.00  0.00    -0.013 C 
ATOM     35  H   UNL     1      37.125 -18.942 -35.021  0.00  0.00    +0.000 HD
ENDBRANCH  30  32
ENDBRANCH  14  30
BRANCH  15  36
ATOM     36  O   UNL     1      39.096 -21.189 -35.741  0.00  0.00    -0.461 OA
BRANCH  36  37
ATOM     37  C   UNL     1      38.419 -21.608 -34.634  0.00  0.00    +0.313 C 
ATOM     38  O   UNL     1      37.294 -21.233 -34.330  0.00  0.00    -0.250 OA
BRANCH  37  39
ATOM     39  C   UNL     1      39.275 -22.565 -33.802  0.00  0.00    +0.059 C 
ATOM     40  C   UNL     1      39.695 -21.905 -32.480  0.00  0.00    -0.050 C 
ATOM     41  C   UNL     1      40.542 -22.930 -34.592  0.00  0.00    -0.050 C 
ATOM     42  C   UNL     1      38.458 -23.833 -33.528  0.00  0.00    -0.050 C 
ENDBRANCH  37  39
ENDBRANCH  36  37
ENDBRANCH  15  36
TORSDOF 6
ENDMDL
MODEL 2
REMARK VINA RESULT:    -7.042      2.017      9.344
REMARK INTER + INTRA:         -11.470
REMARK INTER:                 -10.368
REMARK INTRA:                  -1.102
REMARK UNBOUND:                -1.957
REMARK  Name = cpd100.pdb
REMARK  17 active torsions:
REMARK  status: ('A' for Active; 'I' for Inactive)
REMARK    1  A    between atoms: C_1  and  C_2
REMARK    2  A    between atoms: C_2  and  C_3
REMARK    3  A    between atoms: C_2  and  C_4
REMARK    4  A    between atoms: C_15  and  C_16
REMARK    5  A    between atoms: C_17  and  C_18
REMARK    6  A    between atoms: C_18  and  C_19
REMARK    7  A    between atoms: C_18  and  N_20
REMARK    8  A    between atoms: N_20  and  C_21
REMARK    9  A    between atoms: N_20  and  C_22
REMARK   10  A    between atoms: C_23  and  O_24
REMARK   11  A    between atoms: O_24  and  C_25
REMARK   12  A    between atoms: C_25  and  C_27
REMARK   13  A    between atoms: C_27  and  C_28
REMARK   14  A    between atoms: C_27  and  C_29
REMARK   15  A    between atoms: C_27  and  C_30
REMARK   16  A    between atoms: C_32  and  C_33
REMARK   17  A    between atoms: C_38  and  C_39
REMARK                            x       y       z     vdW  Elec       q    Type
REMARK                         _______ _______ _______ _____ _____    ______ ____
ROOT
ATOM      1  C   UNL     1      38.428 -18.194 -32.718  0.00  0.00    +0.188 C 
ATOM      2  N   UNL     1      37.892 -19.341 -32.914  0.00  0.00    -0.250 NA
ATOM      3  C   UNL     1      38.712 -20.547 -32.787  0.00  0.00    +0.067 C 
ATOM      4  C   UNL     1      38.033 -21.699 -33.548  0.00  0.00    -0.011 C 
ATOM      5  C   UNL     1      38.552 -21.963 -34.929  0.00  0.00    -0.082 C 
ATOM      6  C   UNL     1      39.611 -21.352 -35.490  0.00  0.00    -0.069 C 
ATOM      7  C   UNL     1      40.060 -21.788 -36.878  0.00  0.00    -0.022 C 
ATOM      8  C   UNL     1      41.347 -21.127 -37.390  0.00  0.00    +0.025 C 
ATOM      9  C   UNL     1      41.899 -21.845 -38.624  0.00  0.00    +0.138 C 
ATOM     10  O   UNL     1      41.616 -23.013 -38.891  0.00  0.00    -0.297 OA
ATOM     11  C   UNL     1      42.835 -21.045 -39.528  0.00  0.00    +0.012 C 
ATOM     12  C   UNL     1      43.610 -19.949 -38.757  0.00  0.00    -0.012 C 
ATOM     13  C   UNL     1      44.598 -20.678 -37.800  0.00  0.00    -0.058 C 
ATOM     14  C   UNL     1      44.491 -18.979 -39.652  0.00  0.00    +0.018 C 
ATOM     15  C   UNL     1      43.725 -17.651 -39.797  0.00  0.00    +0.108 C 
ATOM     16  C   UNL     1      42.375 -17.872 -39.128  0.00  0.00    -0.009 C 
ATOM     17  C   UNL     1      42.576 -18.972 -38.049  0.00  0.00    -0.019 C 
ATOM     18  C   UNL     1      43.156 -18.342 -36.768  0.00  0.00    -0.059 C 
ATOM     19  C   UNL     1      41.175 -19.649 -37.781  0.00  0.00    -0.025 C 
ATOM     20  C   UNL     1      40.158 -18.833 -36.955  0.00  0.00    -0.048 C 
ATOM     21  C   UNL     1      40.162 -18.900 -35.422  0.00  0.00    -0.046 C 
ATOM     22  C   UNL     1      40.388 -20.269 -34.754  0.00  0.00    -0.009 C 
ATOM     23  C   UNL     1      40.177 -20.325 -33.189  0.00  0.00    +0.031 C 
ATOM     24  C   UNL     1      41.033 -21.506 -32.646  0.00  0.00    -0.054 C 
ATOM     25  C   UNL     1      40.647 -19.068 -32.445  0.00  0.00    +0.099 C 
ATOM     26  O   UNL     1      39.746 -17.957 -32.526  0.00  0.00    -0.479 OA
ENDROOT
BRANCH   1  28
ATOM     27  C   UNL     1      36.128 -17.198 -32.757  0.00  0.00    -0.054 C 
ATOM     28  C   UNL     1      37.627 -16.908 -32.741  0.00  0.00    +0.029 C 
ATOM     29  C   UNL     1      38.034 -16.055 -33.936  0.00  0.00    -0.054 C 
ENDBRANCH   1  28
BRANCH  14  30
ATOM     30  C   UNL     1      45.140 -19.552 -40.956  0.00  0.00    +0.014 C 
ATOM     31  C   UNL     1      44.233 -19.288 -42.173  0.00  0.00    -0.049 C 
BRANCH  30  32
ATOM     32  N   UNL     1      45.653 -20.937 -40.876  0.00  0.00    -0.305 N 
ATOM     33  C   UNL     1      47.059 -20.964 -40.454  0.00  0.00    -0.013 C 
ATOM     34  C   UNL     1      45.491 -21.771 -42.065  0.00  0.00    -0.013 C 
ATOM     35  H   UNL     1      45.046 -21.358 -40.172  0.00  0.00    +0.000 HD
ENDBRANCH  30  32
ENDBRANCH  14  30
BRANCH  15  36
ATOM     36  O   UNL     1      44.466 -16.632 -39.088  0.00  0.00    -0.461 OA
BRANCH  36  37
ATOM     37  C   UNL     1      45.081 -15.685 -39.852  0.00  0.00    +0.313 C 
ATOM     38  O   UNL     1      44.491 -14.854 -40.530  0.00  0.00    -0.250 OA
BRANCH  37  39
ATOM     39  C   UNL     1      46.603 -15.837 -39.787  0.00  0.00    +0.059 C 
ATOM     40  C   UNL     1      47.126 -16.586 -41.022  0.00  0.00    -0.050 C 
ATOM     41  C   UNL     1      46.980 -16.637 -38.531  0.00  0.00    -0.050 C 
ATOM     42  C   UNL     1      47.226 -14.438 -39.711  0.00  0.00    -0.050 C 
ENDBRANCH  37  39
ENDBRANCH  36  37
ENDBRANCH  15  36
TORSDOF 6
ENDMDL
MODEL 3
REMARK VINA RESULT:    -7.004     17.130     21.163
REMARK INTER + INTRA:         -11.418
REMARK INTER:                 -10.108
REMARK INTRA:                  -1.310
REMARK UNBOUND:                -1.957
REMARK  Name = cpd100.pdb
REMARK  17 active torsions:
REMARK  status: ('A' for Active; 'I' for Inactive)
REMARK    1  A    between atoms: C_1  and  C_2
REMARK    2  A    between atoms: C_2  and  C_3
REMARK    3  A    between atoms: C_2  and  C_4
REMARK    4  A    between atoms: C_15  and  C_16
REMARK    5  A    between atoms: C_17  and  C_18
REMARK    6  A    between atoms: C_18  and  C_19
REMARK    7  A    between atoms: C_18  and  N_20
REMARK    8  A    between atoms: N_20  and  C_21
REMARK    9  A    between atoms: N_20  and  C_22
REMARK   10  A    between atoms: C_23  and  O_24
REMARK   11  A    between atoms: O_24  and  C_25
REMARK   12  A    between atoms: C_25  and  C_27
REMARK   13  A    between atoms: C_27  and  C_28
REMARK   14  A    between atoms: C_27  and  C_29
REMARK   15  A    between atoms: C_27  and  C_30
REMARK   16  A    between atoms: C_32  and  C_33
REMARK   17  A    between atoms: C_38  and  C_39
REMARK                            x       y       z     vdW  Elec       q    Type
REMARK                         _______ _______ _______ _____ _____    ______ ____
ROOT
ATOM      1  C   UNL     1      27.402 -31.405 -28.217  0.00  0.00    +0.188 C 
ATOM      2  N   UNL     1      27.843 -30.380 -28.848  0.00  0.00    -0.250 NA
ATOM      3  C   UNL     1      28.089 -30.476 -30.288  0.00  0.00    +0.067 C 
ATOM      4  C   UNL     1      29.063 -29.362 -30.706  0.00  0.00    -0.011 C 
ATOM      5  C   UNL     1      30.502 -29.765 -30.827  0.00  0.00    -0.082 C 
ATOM      6  C   UNL     1      30.968 -31.021 -30.706  0.00  0.00    -0.069 C 
ATOM      7  C   UNL     1      32.451 -31.278 -30.933  0.00  0.00    -0.022 C 
ATOM      8  C   UNL     1      32.875 -32.753 -30.897  0.00  0.00    +0.025 C 
ATOM      9  C   UNL     1      34.289 -32.949 -31.449  0.00  0.00    +0.138 C 
ATOM     10  O   UNL     1      34.822 -32.137 -32.205  0.00  0.00    -0.297 OA
ATOM     11  C   UNL     1      35.029 -34.214 -31.021  0.00  0.00    +0.012 C 
ATOM     12  C   UNL     1      34.066 -35.384 -30.700  0.00  0.00    -0.012 C 
ATOM     13  C   UNL     1      33.404 -35.810 -32.042  0.00  0.00    -0.058 C 
ATOM     14  C   UNL     1      34.750 -36.687 -30.107  0.00  0.00    +0.018 C 
ATOM     15  C   UNL     1      34.494 -36.699 -28.588  0.00  0.00    +0.108 C 
ATOM     16  C   UNL     1      33.803 -35.381 -28.269  0.00  0.00    -0.009 C 
ATOM     17  C   UNL     1      33.057 -34.935 -29.557  0.00  0.00    -0.019 C 
ATOM     18  C   UNL     1      31.706 -35.669 -29.655  0.00  0.00    -0.059 C 
ATOM     19  C   UNL     1      32.864 -33.370 -29.488  0.00  0.00    -0.025 C 
ATOM     20  C   UNL     1      31.782 -32.848 -28.518  0.00  0.00    -0.048 C 
ATOM     21  C   UNL     1      30.321 -32.720 -28.970  0.00  0.00    -0.046 C 
ATOM     22  C   UNL     1      30.043 -32.187 -30.387  0.00  0.00    -0.009 C 
ATOM     23  C   UNL     1      28.531 -31.877 -30.731  0.00  0.00    +0.031 C 
ATOM     24  C   UNL     1      28.374 -31.990 -32.276  0.00  0.00    -0.054 C 
ATOM     25  C   UNL     1      27.531 -32.865 -30.118  0.00  0.00    +0.099 C 
ATOM     26  O   UNL     1      27.258 -32.649 -28.728  0.00  0.00    -0.479 OA
ENDROOT
BRANCH   1  28
ATOM     27  C   UNL     1      25.572 -31.730 -26.535  0.00  0.00    -0.054 C 
ATOM     28  C   UNL     1      27.038 -31.359 -26.747  0.00  0.00    +0.029 C 
ATOM     29  C   UNL     1      27.344 -29.982 -26.171  0.00  0.00    -0.054 C 
ENDBRANCH   1  28
BRANCH  14  30
ATOM     30  C   UNL     1      36.202 -37.043 -30.569  0.00  0.00    +0.014 C 
ATOM     31  C   UNL     1      36.291 -38.526 -30.980  0.00  0.00    -0.049 C 
BRANCH  30  32
ATOM     32  N   UNL     1      37.298 -36.598 -29.681  0.00  0.00    -0.305 N 
ATOM     33  C   UNL     1      38.499 -36.244 -30.449  0.00  0.00    -0.013 C 
ATOM     34  C   UNL     1      37.671 -37.496 -28.591  0.00  0.00    -0.013 C 
ATOM     35  H   UNL     1      36.895 -35.779 -29.225  0.00  0.00    +0.000 HD
ENDBRANCH  30  32
ENDBRANCH  14  30
BRANCH  15  36
ATOM     36  O   UNL     1      33.608 -37.805 -28.297  0.00  0.00    -0.461 OA
BRANCH  36  37
ATOM     37  C   UNL     1      34.001 -38.654 -27.305  0.00  0.00    +0.313 C 
ATOM     38  O   UNL     1      34.901 -39.476 -27.416  0.00  0.00    -0.250 OA
BRANCH  37  39
ATOM     39  C   UNL     1      33.131 -38.476 -26.058  0.00  0.00    +0.059 C 
ATOM     40  C   UNL     1      31.741 -37.943 -26.439  0.00  0.00    -0.050 C 
ATOM     41  C   UNL     1      33.801 -37.467 -25.113  0.00  0.00    -0.050 C 
ATOM     42  C   UNL     1      33.006 -39.833 -25.356  0.00  0.00    -0.050 C 
ENDBRANCH  37  39
ENDBRANCH  36  37
ENDBRANCH  15  36
TORSDOF 6
ENDMDL
MODEL 4
REMARK VINA RESULT:    -6.968      1.153      1.492
REMARK INTER + INTRA:         -11.370
REMARK INTER:                  -9.986
REMARK INTRA:                  -1.384
REMARK UNBOUND:                -1.957
REMARK  Name = cpd100.pdb
REMARK  17 active torsions:
REMARK  status: ('A' for Active; 'I' for Inactive)
REMARK    1  A    between atoms: C_1  and  C_2
REMARK    2  A    between atoms: C_2  and  C_3
REMARK    3  A    between atoms: C_2  and  C_4
REMARK    4  A    between atoms: C_15  and  C_16
REMARK    5  A    between atoms: C_17  and  C_18
REMARK    6  A    between atoms: C_18  and  C_19
REMARK    7  A    between atoms: C_18  and  N_20
REMARK    8  A    between atoms: N_20  and  C_21
REMARK    9  A    between atoms: N_20  and  C_22
REMARK   10  A    between atoms: C_23  and  O_24
REMARK   11  A    between atoms: O_24  and  C_25
REMARK   12  A    between atoms: C_25  and  C_27
REMARK   13  A    between atoms: C_27  and  C_28
REMARK   14  A    between atoms: C_27  and  C_29
REMARK   15  A    between atoms: C_27  and  C_30
REMARK   16  A    between atoms: C_32  and  C_33
REMARK   17  A    between atoms: C_38  and  C_39
REMARK                            x       y       z     vdW  Elec       q    Type
REMARK                         _______ _______ _______ _____ _____    ______ ____
ROOT
ATOM      1  C   UNL     1      46.421 -20.941 -40.134  0.00  0.00    +0.188 C 
ATOM      2  N   UNL     1      46.374 -19.860 -40.819  0.00  0.00    -0.250 NA
ATOM      3  C   UNL     1      46.709 -18.588 -40.177  0.00  0.00    +0.067 C 
ATOM      4  C   UNL     1      46.100 -17.436 -40.994  0.00  0.00    -0.011 C 
ATOM      5  C   UNL     1      44.794 -16.900 -40.490  0.00  0.00    -0.082 C 
ATOM      6  C   UNL     1      44.192 -17.271 -39.346  0.00  0.00    -0.069 C 
ATOM      7  C   UNL     1      42.903 -16.575 -38.936  0.00  0.00    -0.022 C 
ATOM      8  C   UNL     1      42.350 -16.972 -37.560  0.00  0.00    +0.025 C 
ATOM      9  C   UNL     1      41.258 -16.009 -37.089  0.00  0.00    +0.138 C 
ATOM     10  O   UNL     1      41.155 -14.862 -37.525  0.00  0.00    -0.297 OA
ATOM     11  C   UNL     1      40.284 -16.529 -36.034  0.00  0.00    +0.012 C 
ATOM     12  C   UNL     1      40.917 -17.616 -35.129  0.00  0.00    -0.012 C 
ATOM     13  C   UNL     1      42.008 -16.914 -34.271  0.00  0.00    -0.058 C 
ATOM     14  C   UNL     1      39.924 -18.312 -34.105  0.00  0.00    +0.018 C 
ATOM     15  C   UNL     1      39.555 -19.694 -34.678  0.00  0.00    +0.108 C 
ATOM     16  C   UNL     1      40.195 -19.760 -36.057  0.00  0.00    -0.009 C 
ATOM     17  C   UNL     1      41.431 -18.818 -36.032  0.00  0.00    -0.019 C 
ATOM     18  C   UNL     1      42.628 -19.551 -35.395  0.00  0.00    -0.059 C 
ATOM     19  C   UNL     1      41.739 -18.383 -37.517  0.00  0.00    -0.025 C 
ATOM     20  C   UNL     1      42.396 -19.444 -38.427  0.00  0.00    -0.048 C 
ATOM     21  C   UNL     1      43.921 -19.609 -38.463  0.00  0.00    -0.046 C 
ATOM     22  C   UNL     1      44.791 -18.339 -38.441  0.00  0.00    -0.009 C 
ATOM     23  C   UNL     1      46.338 -18.549 -38.688  0.00  0.00    +0.031 C 
ATOM     24  C   UNL     1      47.082 -17.359 -38.014  0.00  0.00    -0.054 C 
ATOM     25  C   UNL     1      46.907 -19.829 -38.063  0.00  0.00    +0.099 C 
ATOM     26  O   UNL     1      46.628 -21.025 -38.800  0.00  0.00    -0.479 OA
ENDROOT
BRANCH   1  28
ATOM     27  C   UNL     1      47.480 -23.091 -40.870  0.00  0.00    -0.054 C 
ATOM     28  C   UNL     1      46.177 -22.304 -40.748  0.00  0.00    +0.029 C 
ATOM     29  C   UNL     1      45.496 -22.157 -42.103  0.00  0.00    -0.054 C 
ENDBRANCH   1  28
BRANCH  14  30
ATOM     30  C   UNL     1      38.746 -17.467 -33.517  0.00  0.00    +0.014 C 
ATOM     31  C   UNL     1      39.017 -17.114 -32.042  0.00  0.00    -0.049 C 
BRANCH  30  32
ATOM     32  N   UNL     1      37.383 -17.980 -33.773  0.00  0.00    -0.305 N 
ATOM     33  C   UNL     1      36.662 -17.131 -34.730  0.00  0.00    -0.013 C 
ATOM     34  C   UNL     1      36.536 -18.215 -32.606  0.00  0.00    -0.013 C 
ATOM     35  H   UNL     1      37.563 -18.906 -34.161  0.00  0.00    +0.000 HD
ENDBRANCH  30  32
ENDBRANCH  14  30
BRANCH  15  36
ATOM     36  O   UNL     1      40.135 -20.700 -33.816  0.00  0.00    -0.461 OA
BRANCH  36  37
ATOM     37  C   UNL     1      39.281 -21.635 -33.312  0.00  0.00    +0.313 C 
ATOM     38  O   UNL     1      38.282 -21.374 -32.653  0.00  0.00    -0.250 OA
BRANCH  37  39
ATOM     39  C   UNL     1      39.768 -23.049 -33.635  0.00  0.00    +0.059 C 
ATOM     40  C   UNL     1      40.370 -23.106 -35.047  0.00  0.00    -0.050 C 
ATOM     41  C   UNL     1      38.580 -24.022 -33.569  0.00  0.00    -0.050 C 
ATOM     42  C   UNL     1      40.818 -23.450 -32.592  0.00  0.00    -0.050 C 
ENDBRANCH  37  39
ENDBRANCH  36  37
ENDBRANCH  15  36
TORSDOF 6
ENDMDL
MODEL 5
REMARK VINA RESULT:    -6.944      1.982      9.306
REMARK INTER + INTRA:         -11.337
REMARK INTER:                  -9.367
REMARK INTRA:                  -1.970
REMARK UNBOUND:                -1.957
REMARK  Name = cpd100.pdb
REMARK  17 active torsions:
REMARK  status: ('A' for Active; 'I' for Inactive)
REMARK    1  A    between atoms: C_1  and  C_2
REMARK    2  A    between atoms: C_2  and  C_3
REMARK    3  A    between atoms: C_2  and  C_4
REMARK    4  A    between atoms: C_15  and  C_16
REMARK    5  A    between atoms: C_17  and  C_18
REMARK    6  A    between atoms: C_18  and  C_19
REMARK    7  A    between atoms: C_18  and  N_20
REMARK    8  A    between atoms: N_20  and  C_21
REMARK    9  A    between atoms: N_20  and  C_22
REMARK   10  A    between atoms: C_23  and  O_24
REMARK   11  A    between atoms: O_24  and  C_25
REMARK   12  A    between atoms: C_25  and  C_27
REMARK   13  A    between atoms: C_27  and  C_28
REMARK   14  A    between atoms: C_27  and  C_29
REMARK   15  A    between atoms: C_27  and  C_30
REMARK   16  A    between atoms: C_32  and  C_33
REMARK   17  A    between atoms: C_38  and  C_39
REMARK                            x       y       z     vdW  Elec       q    Type
REMARK                         _______ _______ _______ _____ _____    ______ ____
ROOT
ATOM      1  C   UNL     1      37.185 -16.227 -33.607  0.00  0.00    +0.188 C 
ATOM      2  N   UNL     1      36.557 -17.331 -33.435  0.00  0.00    -0.250 NA
ATOM      3  C   UNL     1      37.229 -18.439 -32.755  0.00  0.00    +0.067 C 
ATOM      4  C   UNL     1      36.519 -19.755 -33.118  0.00  0.00    -0.011 C 
ATOM      5  C   UNL     1      37.153 -20.556 -34.215  0.00  0.00    -0.082 C 
ATOM      6  C   UNL     1      38.324 -20.266 -34.810  0.00  0.00    -0.069 C 
ATOM      7  C   UNL     1      38.870 -21.224 -35.859  0.00  0.00    -0.022 C 
ATOM      8  C   UNL     1      40.267 -20.883 -36.397  0.00  0.00    +0.025 C 
ATOM      9  C   UNL     1      40.870 -22.048 -37.185  0.00  0.00    +0.138 C 
ATOM     10  O   UNL     1      40.498 -23.211 -37.034  0.00  0.00    -0.297 OA
ATOM     11  C   UNL     1      41.976 -21.709 -38.183  0.00  0.00    +0.012 C 
ATOM     12  C   UNL     1      42.774 -20.446 -37.776  0.00  0.00    -0.012 C 
ATOM     13  C   UNL     1      43.572 -20.806 -36.489  0.00  0.00    -0.058 C 
ATOM     14  C   UNL     1      43.842 -19.943 -38.837  0.00  0.00    +0.018 C 
ATOM     15  C   UNL     1      43.237 -18.731 -39.571  0.00  0.00    +0.108 C 
ATOM     16  C   UNL     1      41.808 -18.604 -39.062  0.00  0.00    -0.009 C 
ATOM     17  C   UNL     1      41.777 -19.216 -37.634  0.00  0.00    -0.019 C 
ATOM     18  C   UNL     1      42.278 -18.177 -36.613  0.00  0.00    -0.059 C 
ATOM     19  C   UNL     1      40.293 -19.660 -37.330  0.00  0.00    -0.025 C 
ATOM     20  C   UNL     1      39.284 -18.535 -37.017  0.00  0.00    -0.048 C 
ATOM     21  C   UNL     1      39.116 -18.010 -35.585  0.00  0.00    -0.046 C 
ATOM     22  C   UNL     1      39.126 -19.029 -34.431  0.00  0.00    -0.009 C 
ATOM     23  C   UNL     1      38.743 -18.469 -33.003  0.00  0.00    +0.031 C 
ATOM     24  C   UNL     1      39.409 -19.399 -31.946  0.00  0.00    -0.054 C 
ATOM     25  C   UNL     1      39.259 -17.052 -32.724  0.00  0.00    +0.099 C 
ATOM     26  O   UNL     1      38.492 -16.009 -33.337  0.00  0.00    -0.479 OA
ENDROOT
BRANCH   1  28
ATOM     27  C   UNL     1      37.089 -14.725 -35.613  0.00  0.00    -0.054 C 
ATOM     28  C   UNL     1      36.529 -15.006 -34.220  0.00  0.00    +0.029 C 
ATOM     29  C   UNL     1      36.703 -13.800 -33.305  0.00  0.00    -0.054 C 
ENDBRANCH   1  28
BRANCH  14  30
ATOM     30  C   UNL     1      44.564 -21.007 -39.729  0.00  0.00    +0.014 C 
ATOM     31  C   UNL     1      45.961 -21.329 -39.164  0.00  0.00    -0.049 C 
BRANCH  30  32
ATOM     32  N   UNL     1      44.547 -20.756 -41.186  0.00  0.00    -0.305 N 
ATOM     33  C   UNL     1      43.430 -21.453 -41.836  0.00  0.00    -0.013 C 
ATOM     34  C   UNL     1      45.780 -21.035 -41.919  0.00  0.00    -0.013 C 
ATOM     35  H   UNL     1      44.432 -19.744 -41.236  0.00  0.00    +0.000 HD
ENDBRANCH  30  32
ENDBRANCH  14  30
BRANCH  15  36
ATOM     36  O   UNL     1      44.000 -17.561 -39.198  0.00  0.00    -0.461 OA
BRANCH  36  37
ATOM     37  C   UNL     1      45.268 -17.478 -39.693  0.00  0.00    +0.313 C 
ATOM     38  O   UNL     1      45.583 -17.777 -40.838  0.00  0.00    -0.250 OA
BRANCH  37  39
ATOM     39  C   UNL     1      46.246 -17.012 -38.612  0.00  0.00    +0.059 C 
ATOM     40  C   UNL     1      47.213 -15.959 -39.174  0.00  0.00    -0.050 C 
ATOM     41  C   UNL     1      47.064 -18.214 -38.116  0.00  0.00    -0.050 C 
ATOM     42  C   UNL     1      45.439 -16.425 -37.448  0.00  0.00    -0.050 C 
ENDBRANCH  37  39
ENDBRANCH  36  37
ENDBRANCH  15  36
TORSDOF 6
ENDMDL
MODEL 6
REMARK VINA RESULT:    -6.922     17.156     21.292
REMARK INTER + INTRA:         -11.308
REMARK INTER:                  -9.944
REMARK INTRA:                  -1.364
REMARK UNBOUND:                -1.957
REMARK  Name = cpd100.pdb
REMARK  17 active torsions:
REMARK  status: ('A' for Active; 'I' for Inactive)
REMARK    1  A    between atoms: C_1  and  C_2
REMARK    2  A    between atoms: C_2  and  C_3
REMARK    3  A    between atoms: C_2  and  C_4
REMARK    4  A    between atoms: C_15  and  C_16
REMARK    5  A    between atoms: C_17  and  C_18
REMARK    6  A    between atoms: C_18  and  C_19
REMARK    7  A    between atoms: C_18  and  N_20
REMARK    8  A    between atoms: N_20  and  C_21
REMARK    9  A    between atoms: N_20  and  C_22
REMARK   10  A    between atoms: C_23  and  O_24
REMARK   11  A    between atoms: O_24  and  C_25
REMARK   12  A    between atoms: C_25  and  C_27
REMARK   13  A    between atoms: C_27  and  C_28
REMARK   14  A    between atoms: C_27  and  C_29
REMARK   15  A    between atoms: C_27  and  C_30
REMARK   16  A    between atoms: C_32  and  C_33
REMARK   17  A    between atoms: C_38  and  C_39
REMARK                            x       y       z     vdW  Elec       q    Type
REMARK                         _______ _______ _______ _____ _____    ______ ____
ROOT
ATOM      1  C   UNL     1      27.378 -31.725 -28.468  0.00  0.00    +0.188 C 
ATOM      2  N   UNL     1      27.853 -30.657 -28.994  0.00  0.00    -0.250 NA
ATOM      3  C   UNL     1      28.203 -30.651 -30.415  0.00  0.00    +0.067 C 
ATOM      4  C   UNL     1      29.194 -29.506 -30.684  0.00  0.00    -0.011 C 
ATOM      5  C   UNL     1      30.641 -29.894 -30.729  0.00  0.00    -0.082 C 
ATOM      6  C   UNL     1      31.109 -31.154 -30.662  0.00  0.00    -0.069 C 
ATOM      7  C   UNL     1      32.607 -31.388 -30.799  0.00  0.00    -0.022 C 
ATOM      8  C   UNL     1      33.041 -32.860 -30.834  0.00  0.00    +0.025 C 
ATOM      9  C   UNL     1      34.493 -33.011 -31.295  0.00  0.00    +0.138 C 
ATOM     10  O   UNL     1      35.070 -32.146 -31.953  0.00  0.00    -0.297 OA
ATOM     11  C   UNL     1      35.212 -34.300 -30.904  0.00  0.00    +0.012 C 
ATOM     12  C   UNL     1      34.239 -35.493 -30.735  0.00  0.00    -0.012 C 
ATOM     13  C   UNL     1      33.679 -35.827 -32.147  0.00  0.00    -0.058 C 
ATOM     14  C   UNL     1      34.891 -36.832 -30.185  0.00  0.00    +0.018 C 
ATOM     15  C   UNL     1      34.527 -36.951 -28.693  0.00  0.00    +0.108 C 
ATOM     16  C   UNL     1      33.802 -35.661 -28.335  0.00  0.00    -0.009 C 
ATOM     17  C   UNL     1      33.146 -35.129 -29.639  0.00  0.00    -0.019 C 
ATOM     18  C   UNL     1      31.813 -35.861 -29.885  0.00  0.00    -0.059 C 
ATOM     19  C   UNL     1      32.935 -33.574 -29.476  0.00  0.00    -0.025 C 
ATOM     20  C   UNL     1      31.781 -33.125 -28.552  0.00  0.00    -0.048 C 
ATOM     21  C   UNL     1      30.355 -32.972 -29.098  0.00  0.00    -0.046 C 
ATOM     22  C   UNL     1      30.174 -32.343 -30.492  0.00  0.00    -0.009 C 
ATOM     23  C   UNL     1      28.688 -32.016 -30.921  0.00  0.00    +0.031 C 
ATOM     24  C   UNL     1      28.643 -32.022 -32.478  0.00  0.00    -0.054 C 
ATOM     25  C   UNL     1      27.656 -33.049 -30.451  0.00  0.00    +0.099 C 
ATOM     26  O   UNL     1      27.282 -32.930 -29.073  0.00  0.00    -0.479 OA
ENDROOT
BRANCH   1  28
ATOM     27  C   UNL     1      26.383 -33.173 -26.680  0.00  0.00    -0.054 C 
ATOM     28  C   UNL     1      26.909 -31.783 -27.029  0.00  0.00    +0.029 C 
ATOM     29  C   UNL     1      25.851 -30.716 -26.776  0.00  0.00    -0.054 C 
ENDBRANCH   1  28
BRANCH  14  30
ATOM     30  C   UNL     1      36.375 -37.149 -30.565  0.00  0.00    +0.014 C 
ATOM     31  C   UNL     1      36.503 -38.591 -31.092  0.00  0.00    -0.049 C 
BRANCH  30  32
ATOM     32  N   UNL     1      37.399 -36.780 -29.564  0.00  0.00    -0.305 N 
ATOM     33  C   UNL     1      38.669 -36.418 -30.205  0.00  0.00    -0.013 C 
ATOM     34  C   UNL     1      37.656 -37.745 -28.497  0.00  0.00    -0.013 C 
ATOM     35  H   UNL     1      36.975 -35.977 -29.099  0.00  0.00    +0.000 HD
ENDBRANCH  30  32
ENDBRANCH  14  30
BRANCH  15  36
ATOM     36  O   UNL     1      33.633 -38.077 -28.544  0.00  0.00    -0.461 OA
BRANCH  36  37
ATOM     37  C   UNL     1      34.125 -39.161 -27.879  0.00  0.00    +0.313 C 
ATOM     38  O   UNL     1      34.779 -39.098 -26.846  0.00  0.00    -0.250 OA
BRANCH  37  39
ATOM     39  C   UNL     1      33.793 -40.455 -28.624  0.00  0.00    +0.059 C 
ATOM     40  C   UNL     1      32.875 -41.349 -27.776  0.00  0.00    -0.050 C 
ATOM     41  C   UNL     1      35.094 -41.222 -28.912  0.00  0.00    -0.050 C 
ATOM     42  C   UNL     1      33.108 -40.091 -29.947  0.00  0.00    -0.050 C 
ENDBRANCH  37  39
ENDBRANCH  36  37
ENDBRANCH  15  36
TORSDOF 6
ENDMDL
MODEL 7
REMARK VINA RESULT:    -6.921      4.145      7.372
REMARK INTER + INTRA:         -11.306
REMARK INTER:                  -9.554
REMARK INTRA:                  -1.752
REMARK UNBOUND:                -1.957
REMARK  Name = cpd100.pdb
REMARK  17 active torsions:
REMARK  status: ('A' for Active; 'I' for Inactive)
REMARK    1  A    between atoms: C_1  and  C_2
REMARK    2  A    between atoms: C_2  and  C_3
REMARK    3  A    between atoms: C_2  and  C_4
REMARK    4  A    between atoms: C_15  and  C_16
REMARK    5  A    between atoms: C_17  and  C_18
REMARK    6  A    between atoms: C_18  and  C_19
REMARK    7  A    between atoms: C_18  and  N_20
REMARK    8  A    between atoms: N_20  and  C_21
REMARK    9  A    between atoms: N_20  and  C_22
REMARK   10  A    between atoms: C_23  and  O_24
REMARK   11  A    between atoms: O_24  and  C_25
REMARK   12  A    between atoms: C_25  and  C_27
REMARK   13  A    between atoms: C_27  and  C_28
REMARK   14  A    between atoms: C_27  and  C_29
REMARK   15  A    between atoms: C_27  and  C_30
REMARK   16  A    between atoms: C_32  and  C_33
REMARK   17  A    between atoms: C_38  and  C_39
REMARK                            x       y       z     vdW  Elec       q    Type
REMARK                         _______ _______ _______ _____ _____    ______ ____
ROOT
ATOM      1  C   UNL     1      49.038 -12.707 -43.435  0.00  0.00    +0.188 C 
ATOM      2  N   UNL     1      48.829 -11.688 -42.687  0.00  0.00    -0.250 NA
ATOM      3  C   UNL     1      49.436 -11.639 -41.356  0.00  0.00    +0.067 C 
ATOM      4  C   UNL     1      48.658 -10.637 -40.486  0.00  0.00    -0.011 C 
ATOM      5  C   UNL     1      47.631 -11.231 -39.569  0.00  0.00    -0.082 C 
ATOM      6  C   UNL     1      47.427 -12.547 -39.381  0.00  0.00    -0.069 C 
ATOM      7  C   UNL     1      46.394 -12.990 -38.355  0.00  0.00    -0.022 C 
ATOM      8  C   UNL     1      46.312 -14.504 -38.117  0.00  0.00    +0.025 C 
ATOM      9  C   UNL     1      45.501 -14.836 -36.861  0.00  0.00    +0.138 C 
ATOM     10  O   UNL     1      45.327 -14.024 -35.953  0.00  0.00    -0.297 OA
ATOM     11  C   UNL     1      44.907 -16.240 -36.773  0.00  0.00    +0.012 C 
ATOM     12  C   UNL     1      45.740 -17.285 -37.556  0.00  0.00    -0.012 C 
ATOM     13  C   UNL     1      47.097 -17.439 -36.809  0.00  0.00    -0.058 C 
ATOM     14  C   UNL     1      45.108 -18.739 -37.636  0.00  0.00    +0.018 C 
ATOM     15  C   UNL     1      44.486 -18.902 -39.035  0.00  0.00    +0.108 C 
ATOM     16  C   UNL     1      44.621 -17.547 -39.715  0.00  0.00    -0.009 C 
ATOM     17  C   UNL     1      45.849 -16.838 -39.077  0.00  0.00    -0.019 C 
ATOM     18  C   UNL     1      47.143 -17.347 -39.741  0.00  0.00    -0.059 C 
ATOM     19  C   UNL     1      45.667 -15.283 -39.275  0.00  0.00    -0.025 C 
ATOM     20  C   UNL     1      45.915 -14.732 -40.696  0.00  0.00    -0.048 C 
ATOM     21  C   UNL     1      47.327 -14.334 -41.146  0.00  0.00    -0.046 C 
ATOM     22  C   UNL     1      48.229 -13.594 -40.141  0.00  0.00    -0.009 C 
ATOM     23  C   UNL     1      49.588 -13.024 -40.712  0.00  0.00    +0.031 C 
ATOM     24  C   UNL     1      50.585 -12.919 -39.521  0.00  0.00    -0.054 C 
ATOM     25  C   UNL     1      50.255 -13.922 -41.761  0.00  0.00    +0.099 C 
ATOM     26  O   UNL     1      49.675 -13.842 -43.069  0.00  0.00    -0.479 OA
ENDROOT
BRANCH   1  28
ATOM     27  C   UNL     1      47.002 -12.623 -44.897  0.00  0.00    -0.054 C 
ATOM     28  C   UNL     1      48.520 -12.791 -44.857  0.00  0.00    +0.029 C 
ATOM     29  C   UNL     1      48.944 -14.107 -45.496  0.00  0.00    -0.054 C 
ENDBRANCH   1  28
BRANCH  14  30
ATOM     30  C   UNL     1      44.248 -19.245 -36.430  0.00  0.00    +0.014 C 
ATOM     31  C   UNL     1      45.045 -20.257 -35.585  0.00  0.00    -0.049 C 
BRANCH  30  32
ATOM     32  N   UNL     1      42.870 -19.678 -36.747  0.00  0.00    -0.305 N 
ATOM     33  C   UNL     1      41.881 -18.939 -35.953  0.00  0.00    -0.013 C 
ATOM     34  C   UNL     1      42.590 -21.109 -36.654  0.00  0.00    -0.013 C 
ATOM     35  H   UNL     1      42.791 -19.456 -37.740  0.00  0.00    +0.000 HD
ENDBRANCH  30  32
ENDBRANCH  14  30
BRANCH  15  36
ATOM     36  O   UNL     1      45.260 -19.892 -39.751  0.00  0.00    -0.461 OA
BRANCH  36  37
ATOM     37  C   UNL     1      44.568 -20.718 -40.587  0.00  0.00    +0.313 C 
ATOM     38  O   UNL     1      43.630 -21.424 -40.240  0.00  0.00    -0.250 OA
BRANCH  37  39
ATOM     39  C   UNL     1      45.154 -20.680 -42.000  0.00  0.00    +0.059 C 
ATOM     40  C   UNL     1      46.586 -20.125 -41.977  0.00  0.00    -0.050 C 
ATOM     41  C   UNL     1      44.289 -19.768 -42.884  0.00  0.00    -0.050 C 
ATOM     42  C   UNL     1      45.145 -22.104 -42.567  0.00  0.00    -0.050 C 
ENDBRANCH  37  39
ENDBRANCH  36  37
ENDBRANCH  15  36
TORSDOF 6
ENDMDL
MODEL 8
REMARK VINA RESULT:    -6.863     18.060     20.893
REMARK INTER + INTRA:         -11.227
REMARK INTER:                  -9.192
REMARK INTRA:                  -2.036
REMARK UNBOUND:                -1.957
REMARK  Name = cpd100.pdb
REMARK  17 active torsions:
REMARK  status: ('A' for Active; 'I' for Inactive)
REMARK    1  A    between atoms: C_1  and  C_2
REMARK    2  A    between atoms: C_2  and  C_3
REMARK    3  A    between atoms: C_2  and  C_4
REMARK    4  A    between atoms: C_15  and  C_16
REMARK    5  A    between atoms: C_17  and  C_18
REMARK    6  A    between atoms: C_18  and  C_19
REMARK    7  A    between atoms: C_18  and  N_20
REMARK    8  A    between atoms: N_20  and  C_21
REMARK    9  A    between atoms: N_20  and  C_22
REMARK   10  A    between atoms: C_23  and  O_24
REMARK   11  A    between atoms: O_24  and  C_25
REMARK   12  A    between atoms: C_25  and  C_27
REMARK   13  A    between atoms: C_27  and  C_28
REMARK   14  A    between atoms: C_27  and  C_29
REMARK   15  A    between atoms: C_27  and  C_30
REMARK   16  A    between atoms: C_32  and  C_33
REMARK   17  A    between atoms: C_38  and  C_39
REMARK                            x       y       z     vdW  Elec       q    Type
REMARK                         _______ _______ _______ _____ _____    ______ ____
ROOT
ATOM      1  C   UNL     1      35.110 -40.365 -30.220  0.00  0.00    +0.188 C 
ATOM      2  N   UNL     1      36.202 -39.703 -30.327  0.00  0.00    -0.250 NA
ATOM      3  C   UNL     1      36.634 -38.848 -29.220  0.00  0.00    +0.067 C 
ATOM      4  C   UNL     1      37.627 -37.800 -29.753  0.00  0.00    -0.011 C 
ATOM      5  C   UNL     1      37.050 -36.451 -30.058  0.00  0.00    -0.082 C 
ATOM      6  C   UNL     1      35.785 -36.072 -29.803  0.00  0.00    -0.069 C 
ATOM      7  C   UNL     1      35.373 -34.638 -30.103  0.00  0.00    -0.022 C 
ATOM      8  C   UNL     1      33.951 -34.258 -29.668  0.00  0.00    +0.025 C 
ATOM      9  C   UNL     1      33.735 -32.743 -29.705  0.00  0.00    +0.138 C 
ATOM     10  O   UNL     1      34.667 -31.941 -29.656  0.00  0.00    -0.297 OA
ATOM     11  C   UNL     1      32.291 -32.253 -29.803  0.00  0.00    +0.012 C 
ATOM     12  C   UNL     1      31.285 -33.247 -29.173  0.00  0.00    -0.012 C 
ATOM     13  C   UNL     1      31.544 -33.246 -27.639  0.00  0.00    -0.058 C 
ATOM     14  C   UNL     1      29.753 -32.880 -29.366  0.00  0.00    +0.018 C 
ATOM     15  C   UNL     1      29.195 -33.778 -30.486  0.00  0.00    +0.108 C 
ATOM     16  C   UNL     1      30.385 -34.553 -31.034  0.00  0.00    -0.009 C 
ATOM     17  C   UNL     1      31.426 -34.661 -29.885  0.00  0.00    -0.019 C 
ATOM     18  C   UNL     1      31.045 -35.823 -28.948  0.00  0.00    -0.059 C 
ATOM     19  C   UNL     1      32.846 -34.881 -30.538  0.00  0.00    -0.025 C 
ATOM     20  C   UNL     1      33.133 -36.285 -31.113  0.00  0.00    -0.048 C 
ATOM     21  C   UNL     1      33.690 -37.399 -30.216  0.00  0.00    -0.046 C 
ATOM     22  C   UNL     1      34.775 -37.031 -29.187  0.00  0.00    -0.009 C 
ATOM     23  C   UNL     1      35.462 -38.240 -28.436  0.00  0.00    +0.031 C 
ATOM     24  C   UNL     1      35.992 -37.701 -27.075  0.00  0.00    -0.054 C 
ATOM     25  C   UNL     1      34.512 -39.398 -28.106  0.00  0.00    +0.099 C 
ATOM     26  O   UNL     1      34.214 -40.257 -29.213  0.00  0.00    -0.479 OA
ENDROOT
BRANCH   1  28
ATOM     27  C   UNL     1      34.889 -40.782 -32.682  0.00  0.00    -0.054 C 
ATOM     28  C   UNL     1      34.644 -41.340 -31.282  0.00  0.00    +0.029 C 
ATOM     29  C   UNL     1      33.173 -41.679 -31.076  0.00  0.00    -0.054 C 
ENDBRANCH   1  28
BRANCH  14  30
ATOM     30  C   UNL     1      29.350 -31.369 -29.422  0.00  0.00    +0.014 C 
ATOM     31  C   UNL     1      28.911 -30.874 -28.030  0.00  0.00    -0.049 C 
BRANCH  30  32
ATOM     32  N   UNL     1      28.435 -30.977 -30.516  0.00  0.00    -0.305 N 
ATOM     33  C   UNL     1      29.161 -30.323 -31.612  0.00  0.00    -0.013 C 
ATOM     34  C   UNL     1      27.280 -30.160 -30.150  0.00  0.00    -0.013 C 
ATOM     35  H   UNL     1      28.045 -31.872 -30.811  0.00  0.00    +0.000 HD
ENDBRANCH  30  32
ENDBRANCH  14  30
BRANCH  15  36
ATOM     36  O   UNL     1      28.243 -34.690 -29.891  0.00  0.00    -0.461 OA
BRANCH  36  37
ATOM     37  C   UNL     1      27.025 -34.172 -29.566  0.00  0.00    +0.313 C 
ATOM     38  O   UNL     1      26.346 -33.481 -30.316  0.00  0.00    -0.250 OA
BRANCH  37  39
ATOM     39  C   UNL     1      26.647 -34.526 -28.126  0.00  0.00    +0.059 C 
ATOM     40  C   UNL     1      27.866 -35.067 -27.364  0.00  0.00    -0.050 C 
ATOM     41  C   UNL     1      25.558 -35.609 -28.140  0.00  0.00    -0.050 C 
ATOM     42  C   UNL     1      26.109 -33.264 -27.442  0.00  0.00    -0.050 C 
ENDBRANCH  37  39
ENDBRANCH  36  37
ENDBRANCH  15  36
TORSDOF 6
ENDMDL
MODEL 9
REMARK VINA RESULT:    -6.830      1.733      2.501
REMARK INTER + INTRA:         -11.184
REMARK INTER:                  -9.705
REMARK INTRA:                  -1.479
REMARK UNBOUND:                -1.957
REMARK  Name = cpd100.pdb
REMARK  17 active torsions:
REMARK  status: ('A' for Active; 'I' for Inactive)
REMARK    1  A    between atoms: C_1  and  C_2
REMARK    2  A    between atoms: C_2  and  C_3
REMARK    3  A    between atoms: C_2  and  C_4
REMARK    4  A    between atoms: C_15  and  C_16
REMARK    5  A    between atoms: C_17  and  C_18
REMARK    6  A    between atoms: C_18  and  C_19
REMARK    7  A    between atoms: C_18  and  N_20
REMARK    8  A    between atoms: N_20  and  C_21
REMARK    9  A    between atoms: N_20  and  C_22
REMARK   10  A    between atoms: C_23  and  O_24
REMARK   11  A    between atoms: O_24  and  C_25
REMARK   12  A    between atoms: C_25  and  C_27
REMARK   13  A    between atoms: C_27  and  C_28
REMARK   14  A    between atoms: C_27  and  C_29
REMARK   15  A    between atoms: C_27  and  C_30
REMARK   16  A    between atoms: C_32  and  C_33
REMARK   17  A    between atoms: C_38  and  C_39
REMARK                            x       y       z     vdW  Elec       q    Type
REMARK                         _______ _______ _______ _____ _____    ______ ____
ROOT
ATOM      1  C   UNL     1      44.798 -19.582 -40.731  0.00  0.00    +0.188 C 
ATOM      2  N   UNL     1      44.521 -18.519 -41.390  0.00  0.00    -0.250 NA
ATOM      3  C   UNL     1      44.590 -17.220 -40.719  0.00  0.00    +0.067 C 
ATOM      4  C   UNL     1      43.747 -16.202 -41.506  0.00  0.00    -0.011 C 
ATOM      5  C   UNL     1      42.362 -15.961 -40.985  0.00  0.00    -0.082 C 
ATOM      6  C   UNL     1      41.860 -16.476 -39.849  0.00  0.00    -0.069 C 
ATOM      7  C   UNL     1      40.457 -16.073 -39.418  0.00  0.00    -0.022 C 
ATOM      8  C   UNL     1      40.011 -16.608 -38.050  0.00  0.00    +0.025 C 
ATOM      9  C   UNL     1      38.746 -15.904 -37.552  0.00  0.00    +0.138 C 
ATOM     10  O   UNL     1      38.403 -14.795 -37.961  0.00  0.00    -0.297 OA
ATOM     11  C   UNL     1      37.910 -16.640 -36.508  0.00  0.00    +0.012 C 
ATOM     12  C   UNL     1      38.762 -17.591 -35.631  0.00  0.00    -0.012 C 
ATOM     13  C   UNL     1      39.691 -16.697 -34.759  0.00  0.00    -0.058 C 
ATOM     14  C   UNL     1      37.945 -18.502 -34.621  0.00  0.00    +0.018 C 
ATOM     15  C   UNL     1      37.867 -19.917 -35.225  0.00  0.00    +0.108 C 
ATOM     16  C   UNL     1      38.495 -19.817 -36.608  0.00  0.00    -0.009 C 
ATOM     17  C   UNL     1      39.508 -18.639 -36.564  0.00  0.00    -0.019 C 
ATOM     18  C   UNL     1      40.836 -19.121 -35.949  0.00  0.00    -0.059 C 
ATOM     19  C   UNL     1      39.707 -18.116 -38.039  0.00  0.00    -0.025 C 
ATOM     20  C   UNL     1      40.563 -18.995 -38.977  0.00  0.00    -0.048 C 
ATOM     21  C   UNL     1      42.089 -18.839 -39.021  0.00  0.00    -0.046 C 
ATOM     22  C   UNL     1      42.675 -17.416 -38.971  0.00  0.00    -0.009 C 
ATOM     23  C   UNL     1      44.230 -17.293 -39.228  0.00  0.00    +0.031 C 
ATOM     24  C   UNL     1      44.716 -15.990 -38.528  0.00  0.00    -0.054 C 
ATOM     25  C   UNL     1      45.058 -18.440 -38.635  0.00  0.00    +0.099 C 
ATOM     26  O   UNL     1      45.029 -19.652 -39.400  0.00  0.00    -0.479 OA
ENDROOT
BRANCH   1  28
ATOM     27  C   UNL     1      45.698 -21.916 -40.564  0.00  0.00    -0.054 C 
ATOM     28  C   UNL     1      44.838 -20.952 -41.377  0.00  0.00    +0.029 C 
ATOM     29  C   UNL     1      45.341 -20.843 -42.811  0.00  0.00    -0.054 C 
ENDBRANCH   1  28
BRANCH  14  30
ATOM     30  C   UNL     1      36.621 -17.935 -34.009  0.00  0.00    +0.014 C 
ATOM     31  C   UNL     1      36.889 -17.308 -32.627  0.00  0.00    -0.049 C 
BRANCH  30  32
ATOM     32  N   UNL     1      35.447 -18.833 -34.045  0.00  0.00    -0.305 N 
ATOM     33  C   UNL     1      34.510 -18.447 -35.108  0.00  0.00    -0.013 C 
ATOM     34  C   UNL     1      34.711 -19.009 -32.795  0.00  0.00    -0.013 C 
ATOM     35  H   UNL     1      35.869 -19.743 -34.234  0.00  0.00    +0.000 HD
ENDBRANCH  30  32
ENDBRANCH  14  30
BRANCH  15  36
ATOM     36  O   UNL     1      38.651 -20.800 -34.390  0.00  0.00    -0.461 OA
BRANCH  36  37
ATOM     37  C   UNL     1      38.003 -21.882 -33.873  0.00  0.00    +0.313 C 
ATOM     38  O   UNL     1      36.920 -21.832 -33.304  0.00  0.00    -0.250 OA
BRANCH  37  39
ATOM     39  C   UNL     1      38.836 -23.153 -34.053  0.00  0.00    +0.059 C 
ATOM     40  C   UNL     1      39.348 -23.265 -35.497  0.00  0.00    -0.050 C 
ATOM     41  C   UNL     1      37.962 -24.380 -33.746  0.00  0.00    -0.050 C 
ATOM     42  C   UNL     1      40.014 -23.104 -33.073  0.00  0.00    -0.050 C 
ENDBRANCH  37  39
ENDBRANCH  36  37
ENDBRANCH  15  36
TORSDOF 6
ENDMDL
MODEL 10
REMARK VINA RESULT:    -6.706      2.353      5.057
REMARK INTER + INTRA:         -11.016
REMARK INTER:                  -9.591
REMARK INTRA:                  -1.425
REMARK UNBOUND:                -1.957
REMARK  Name = cpd100.pdb
REMARK  17 active torsions:
REMARK  status: ('A' for Active; 'I' for Inactive)
REMARK    1  A    between atoms: C_1  and  C_2
REMARK    2  A    between atoms: C_2  and  C_3
REMARK    3  A    between atoms: C_2  and  C_4
REMARK    4  A    between atoms: C_15  and  C_16
REMARK    5  A    between atoms: C_17  and  C_18
REMARK    6  A    between atoms: C_18  and  C_19
REMARK    7  A    between atoms: C_18  and  N_20
REMARK    8  A    between atoms: N_20  and  C_21
REMARK    9  A    between atoms: N_20  and  C_22
REMARK   10  A    between atoms: C_23  and  O_24
REMARK   11  A    between atoms: O_24  and  C_25
REMARK   12  A    between atoms: C_25  and  C_27
REMARK   13  A    between atoms: C_27  and  C_28
REMARK   14  A    between atoms: C_27  and  C_29
REMARK   15  A    between atoms: C_27  and  C_30
REMARK   16  A    between atoms: C_32  and  C_33
REMARK   17  A    between atoms: C_38  and  C_39
REMARK                            x       y       z     vdW  Elec       q    Type
REMARK                         _______ _______ _______ _____ _____    ______ ____
ROOT
ATOM      1  C   UNL     1      46.757 -16.059 -39.179  0.00  0.00    +0.188 C 
ATOM      2  N   UNL     1      47.092 -17.069 -39.893  0.00  0.00    -0.250 NA
ATOM      3  C   UNL     1      46.168 -17.563 -40.914  0.00  0.00    +0.067 C 
ATOM      4  C   UNL     1      46.527 -19.019 -41.255  0.00  0.00    -0.011 C 
ATOM      5  C   UNL     1      45.711 -20.070 -40.565  0.00  0.00    -0.082 C 
ATOM      6  C   UNL     1      44.647 -19.833 -39.777  0.00  0.00    -0.069 C 
ATOM      7  C   UNL     1      43.876 -21.016 -39.209  0.00  0.00    -0.022 C 
ATOM      8  C   UNL     1      42.607 -20.658 -38.424  0.00  0.00    +0.025 C 
ATOM      9  C   UNL     1      41.730 -21.887 -38.174  0.00  0.00    +0.138 C 
ATOM     10  O   UNL     1      41.802 -22.902 -38.866  0.00  0.00    -0.297 OA
ATOM     11  C   UNL     1      40.740 -21.806 -37.013  0.00  0.00    +0.012 C 
ATOM     12  C   UNL     1      40.282 -20.355 -36.726  0.00  0.00    -0.012 C 
ATOM     13  C   UNL     1      39.424 -19.899 -37.941  0.00  0.00    -0.058 C 
ATOM     14  C   UNL     1      39.369 -20.171 -35.441  0.00  0.00    +0.018 C 
ATOM     15  C   UNL     1      40.254 -19.598 -34.317  0.00  0.00    +0.108 C 
ATOM     16  C   UNL     1      41.671 -19.573 -34.871  0.00  0.00    -0.009 C 
ATOM     17  C   UNL     1      41.554 -19.454 -36.416  0.00  0.00    -0.019 C 
ATOM     18  C   UNL     1      41.330 -17.980 -36.807  0.00  0.00    -0.059 C 
ATOM     19  C   UNL     1      42.882 -20.027 -37.048  0.00  0.00    -0.025 C 
ATOM     20  C   UNL     1      44.140 -19.139 -36.939  0.00  0.00    -0.048 C 
ATOM     21  C   UNL     1      44.438 -18.069 -37.998  0.00  0.00    -0.046 C 
ATOM     22  C   UNL     1      44.178 -18.416 -39.475  0.00  0.00    -0.009 C 
ATOM     23  C   UNL     1      44.693 -17.365 -40.539  0.00  0.00    +0.031 C 
ATOM     24  C   UNL     1      43.820 -17.534 -41.818  0.00  0.00    -0.054 C 
ATOM     25  C   UNL     1      44.546 -15.903 -40.100  0.00  0.00    +0.099 C 
ATOM     26  O   UNL     1      45.546 -15.456 -39.177  0.00  0.00    -0.479 OA
ENDROOT
BRANCH   1  28
ATOM     27  C   UNL     1      47.338 -15.874 -36.747  0.00  0.00    -0.054 C 
ATOM     28  C   UNL     1      47.694 -15.434 -38.165  0.00  0.00    +0.029 C 
ATOM     29  C   UNL     1      47.670 -13.915 -38.291  0.00  0.00    -0.054 C 
ENDBRANCH   1  28
BRANCH  14  30
ATOM     30  C   UNL     1      38.403 -21.334 -35.039  0.00  0.00    +0.014 C 
ATOM     31  C   UNL     1      37.202 -20.790 -34.243  0.00  0.00    -0.049 C 
BRANCH  30  32
ATOM     32  N   UNL     1      39.034 -22.528 -34.436  0.00  0.00    -0.305 N 
ATOM     33  C   UNL     1      38.351 -23.761 -34.849  0.00  0.00    -0.013 C 
ATOM     34  C   UNL     1      39.191 -22.529 -32.983  0.00  0.00    -0.013 C 
ATOM     35  H   UNL     1      39.984 -22.488 -34.806  0.00  0.00    +0.000 HD
ENDBRANCH  30  32
ENDBRANCH  14  30
BRANCH  15  36
ATOM     36  O   UNL     1      39.807 -18.250 -34.044  0.00  0.00    -0.461 OA
BRANCH  36  37
ATOM     37  C   UNL     1      40.301 -17.662 -32.918  0.00  0.00    +0.313 C 
ATOM     38  O   UNL     1      40.401 -18.221 -31.833  0.00  0.00    -0.250 OA
BRANCH  37  39
ATOM     39  C   UNL     1      40.661 -16.198 -33.181  0.00  0.00    +0.059 C 
ATOM     40  C   UNL     1      42.170 -16.047 -33.425  0.00  0.00    -0.050 C 
ATOM     41  C   UNL     1      40.276 -15.353 -31.957  0.00  0.00    -0.050 C 
ATOM     42  C   UNL     1      39.873 -15.717 -34.405  0.00  0.00    -0.050 C 
ENDBRANCH  37  39
ENDBRANCH  36  37
ENDBRANCH  15  36
TORSDOF 6
ENDMDL
MODEL 11
REMARK VINA RESULT:    -6.619      4.700      9.588
REMARK INTER + INTRA:         -10.898
REMARK INTER:                  -9.168
REMARK INTRA:                  -1.730
REMARK UNBOUND:                -1.957
REMARK  Name = cpd100.pdb
REMARK  17 active torsions:
REMARK  status: ('A' for Active; 'I' for Inactive)
REMARK    1  A    between atoms: C_1  and  C_2
REMARK    2  A    between atoms: C_2  and  C_3
REMARK    3  A    between atoms: C_2  and  C_4
REMARK    4  A    between atoms: C_15  and  C_16
REMARK    5  A    between atoms: C_17  and  C_18
REMARK    6  A    between atoms: C_18  and  C_19
REMARK    7  A    between atoms: C_18  and  N_20
REMARK    8  A    between atoms: N_20  and  C_21
REMARK    9  A    between atoms: N_20  and  C_22
REMARK   10  A    between atoms: C_23  and  O_24
REMARK   11  A    between atoms: O_24  and  C_25
REMARK   12  A    between atoms: C_25  and  C_27
REMARK   13  A    between atoms: C_27  and  C_28
REMARK   14  A    between atoms: C_27  and  C_29
REMARK   15  A    between atoms: C_27  and  C_30
REMARK   16  A    between atoms: C_32  and  C_33
REMARK   17  A    between atoms: C_38  and  C_39
REMARK                            x       y       z     vdW  Elec       q    Type
REMARK                         _______ _______ _______ _____ _____    ______ ____
ROOT
ATOM      1  C   UNL     1      45.654 -21.245 -40.820  0.00  0.00    +0.188 C 
ATOM      2  N   UNL     1      45.129 -21.460 -39.671  0.00  0.00    -0.250 NA
ATOM      3  C   UNL     1      43.919 -20.732 -39.288  0.00  0.00    +0.067 C 
ATOM      4  C   UNL     1      43.786 -20.750 -37.756  0.00  0.00    -0.011 C 
ATOM      5  C   UNL     1      44.278 -19.526 -37.044  0.00  0.00    -0.082 C 
ATOM      6  C   UNL     1      44.715 -18.404 -37.642  0.00  0.00    -0.069 C 
ATOM      7  C   UNL     1      45.111 -17.217 -36.776  0.00  0.00    -0.022 C 
ATOM      8  C   UNL     1      45.478 -15.938 -37.541  0.00  0.00    +0.025 C 
ATOM      9  C   UNL     1      45.544 -14.722 -36.613  0.00  0.00    +0.138 C 
ATOM     10  O   UNL     1      44.965 -14.688 -35.528  0.00  0.00    -0.297 OA
ATOM     11  C   UNL     1      46.367 -13.530 -37.094  0.00  0.00    +0.012 C 
ATOM     12  C   UNL     1      46.423 -13.432 -38.638  0.00  0.00    -0.012 C 
ATOM     13  C   UNL     1      44.988 -13.076 -39.124  0.00  0.00    -0.058 C 
ATOM     14  C   UNL     1      47.381 -12.306 -39.216  0.00  0.00    +0.018 C 
ATOM     15  C   UNL     1      48.672 -12.993 -39.698  0.00  0.00    +0.108 C 
ATOM     16  C   UNL     1      48.544 -14.456 -39.295  0.00  0.00    -0.009 C 
ATOM     17  C   UNL     1      47.025 -14.778 -39.229  0.00  0.00    -0.019 C 
ATOM     18  C   UNL     1      46.497 -15.078 -40.645  0.00  0.00    -0.059 C 
ATOM     19  C   UNL     1      46.834 -16.013 -38.264  0.00  0.00    -0.025 C 
ATOM     20  C   UNL     1      47.242 -17.395 -38.818  0.00  0.00    -0.048 C 
ATOM     21  C   UNL     1      46.248 -18.239 -39.627  0.00  0.00    -0.046 C 
ATOM     22  C   UNL     1      44.782 -18.283 -39.158  0.00  0.00    -0.009 C 
ATOM     23  C   UNL     1      43.846 -19.324 -39.894  0.00  0.00    +0.031 C 
ATOM     24  C   UNL     1      42.385 -18.799 -39.776  0.00  0.00    -0.054 C 
ATOM     25  C   UNL     1      44.134 -19.478 -41.393  0.00  0.00    +0.099 C 
ATOM     26  O   UNL     1      45.274 -20.290 -41.699  0.00  0.00    -0.479 OA
ENDROOT
BRANCH   1  28
ATOM     27  C   UNL     1      47.971 -21.082 -41.765  0.00  0.00    -0.054 C 
ATOM     28  C   UNL     1      46.852 -22.024 -41.325  0.00  0.00    +0.029 C 
ATOM     29  C   UNL     1      46.438 -22.952 -42.459  0.00  0.00    -0.054 C 
ENDBRANCH   1  28
BRANCH  14  30
ATOM     30  C   UNL     1      47.561 -10.987 -38.394  0.00  0.00    +0.014 C 
ATOM     31  C   UNL     1      46.940  -9.793 -39.144  0.00  0.00    -0.049 C 
BRANCH  30  32
ATOM     32  N   UNL     1      48.918 -10.727 -37.867  0.00  0.00    -0.305 N 
ATOM     33  C   UNL     1      48.904 -10.572 -36.406  0.00  0.00    -0.013 C 
ATOM     34  C   UNL     1      49.656  -9.614 -38.461  0.00  0.00    -0.013 C 
ATOM     35  H   UNL     1      49.429 -11.564 -38.147  0.00  0.00    +0.000 HD
ENDBRANCH  30  32
ENDBRANCH  14  30
BRANCH  15  36
ATOM     36  O   UNL     1      48.722 -12.881 -41.139  0.00  0.00    -0.461 OA
BRANCH  36  37
ATOM     37  C   UNL     1      49.857 -13.332 -41.745  0.00  0.00    +0.313 C 
ATOM     38  O   UNL     1      50.974 -13.282 -41.245  0.00  0.00    -0.250 OA
BRANCH  37  39
ATOM     39  C   UNL     1      49.553 -13.859 -43.150  0.00  0.00    +0.059 C 
ATOM     40  C   UNL     1      48.197 -13.332 -43.644  0.00  0.00    -0.050 C 
ATOM     41  C   UNL     1      49.500 -15.394 -43.115  0.00  0.00    -0.050 C 
ATOM     42  C   UNL     1      50.675 -13.405 -44.091  0.00  0.00    -0.050 C 
ENDBRANCH  37  39
ENDBRANCH  36  37
ENDBRANCH  15  36
TORSDOF 6
ENDMDL
MODEL 12
REMARK VINA RESULT:    -6.560      4.013      8.617
REMARK INTER + INTRA:         -10.819
REMARK INTER:                  -9.132
REMARK INTRA:                  -1.686
REMARK UNBOUND:                -1.957
REMARK  Name = cpd100.pdb
REMARK  17 active torsions:
REMARK  status: ('A' for Active; 'I' for Inactive)
REMARK    1  A    between atoms: C_1  and  C_2
REMARK    2  A    between atoms: C_2  and  C_3
REMARK    3  A    between atoms: C_2  and  C_4
REMARK    4  A    between atoms: C_15  and  C_16
REMARK    5  A    between atoms: C_17  and  C_18
REMARK    6  A    between atoms: C_18  and  C_19
REMARK    7  A    between atoms: C_18  and  N_20
REMARK    8  A    between atoms: N_20  and  C_21
REMARK    9  A    between atoms: N_20  and  C_22
REMARK   10  A    between atoms: C_23  and  O_24
REMARK   11  A    between atoms: O_24  and  C_25
REMARK   12  A    between atoms: C_25  and  C_27
REMARK   13  A    between atoms: C_27  and  C_28
REMARK   14  A    between atoms: C_27  and  C_29
REMARK   15  A    between atoms: C_27  and  C_30
REMARK   16  A    between atoms: C_32  and  C_33
REMARK   17  A    between atoms: C_38  and  C_39
REMARK                            x       y       z     vdW  Elec       q    Type
REMARK                         _______ _______ _______ _____ _____    ______ ____
ROOT
ATOM      1  C   UNL     1      44.247 -12.912 -33.473  0.00  0.00    +0.188 C 
ATOM      2  N   UNL     1      45.224 -12.168 -33.842  0.00  0.00    -0.250 NA
ATOM      3  C   UNL     1      45.165 -11.499 -35.142  0.00  0.00    +0.067 C 
ATOM      4  C   UNL     1      46.590 -11.120 -35.577  0.00  0.00    -0.011 C 
ATOM      5  C   UNL     1      47.254 -12.066 -36.532  0.00  0.00    -0.082 C 
ATOM      6  C   UNL     1      46.666 -13.133 -37.101  0.00  0.00    -0.069 C 
ATOM      7  C   UNL     1      47.455 -13.954 -38.111  0.00  0.00    -0.022 C 
ATOM      8  C   UNL     1      46.669 -15.077 -38.802  0.00  0.00    +0.025 C 
ATOM      9  C   UNL     1      47.422 -15.631 -40.015  0.00  0.00    +0.138 C 
ATOM     10  O   UNL     1      48.292 -14.988 -40.602  0.00  0.00    -0.297 OA
ATOM     11  C   UNL     1      47.044 -17.035 -40.481  0.00  0.00    +0.012 C 
ATOM     12  C   UNL     1      45.576 -17.395 -40.147  0.00  0.00    -0.012 C 
ATOM     13  C   UNL     1      44.672 -16.486 -41.030  0.00  0.00    -0.058 C 
ATOM     14  C   UNL     1      45.151 -18.890 -40.467  0.00  0.00    +0.018 C 
ATOM     15  C   UNL     1      45.133 -19.665 -39.136  0.00  0.00    +0.108 C 
ATOM     16  C   UNL     1      45.662 -18.702 -38.083  0.00  0.00    -0.009 C 
ATOM     17  C   UNL     1      45.345 -17.265 -38.580  0.00  0.00    -0.019 C 
ATOM     18  C   UNL     1      43.886 -16.907 -38.236  0.00  0.00    -0.059 C 
ATOM     19  C   UNL     1      46.364 -16.277 -37.889  0.00  0.00    -0.025 C 
ATOM     20  C   UNL     1      46.119 -15.961 -36.398  0.00  0.00    -0.048 C 
ATOM     21  C   UNL     1      45.177 -14.823 -35.983  0.00  0.00    -0.046 C 
ATOM     22  C   UNL     1      45.225 -13.510 -36.787  0.00  0.00    -0.009 C 
ATOM     23  C   UNL     1      44.393 -12.302 -36.199  0.00  0.00    +0.031 C 
ATOM     24  C   UNL     1      44.037 -11.360 -37.386  0.00  0.00    -0.054 C 
ATOM     25  C   UNL     1      43.063 -12.709 -35.552  0.00  0.00    +0.099 C 
ATOM     26  O   UNL     1      43.187 -13.263 -34.236  0.00  0.00    -0.479 OA
ENDROOT
BRANCH   1  28
ATOM     27  C   UNL     1      44.182 -15.086 -32.228  0.00  0.00    -0.054 C 
ATOM     28  C   UNL     1      44.194 -13.564 -32.107  0.00  0.00    +0.029 C 
ATOM     29  C   UNL     1      42.980 -13.066 -31.332  0.00  0.00    -0.054 C 
ENDBRANCH   1  28
BRANCH  14  30
ATOM     30  C   UNL     1      45.821 -19.612 -41.682  0.00  0.00    +0.014 C 
ATOM     31  C   UNL     1      44.793 -19.850 -42.805  0.00  0.00    -0.049 C 
BRANCH  30  32
ATOM     32  N   UNL     1      46.649 -20.795 -41.363  0.00  0.00    -0.305 N 
ATOM     33  C   UNL     1      48.077 -20.519 -41.563  0.00  0.00    -0.013 C 
ATOM     34  C   UNL     1      46.302 -22.045 -42.036  0.00  0.00    -0.013 C 
ATOM     35  H   UNL     1      46.436 -20.956 -40.379  0.00  0.00    +0.000 HD
ENDBRANCH  30  32
ENDBRANCH  14  30
BRANCH  15  36
ATOM     36  O   UNL     1      43.760 -20.012 -38.843  0.00  0.00    -0.461 OA
BRANCH  36  37
ATOM     37  C   UNL     1      43.293 -21.168 -39.394  0.00  0.00    +0.313 C 
ATOM     38  O   UNL     1      44.005 -22.046 -39.863  0.00  0.00    -0.250 OA
BRANCH  37  39
ATOM     39  C   UNL     1      41.763 -21.193 -39.393  0.00  0.00    +0.059 C 
ATOM     40  C   UNL     1      41.197 -19.769 -39.287  0.00  0.00    -0.050 C 
ATOM     41  C   UNL     1      41.270 -22.008 -38.187  0.00  0.00    -0.050 C 
ATOM     42  C   UNL     1      41.288 -21.859 -40.690  0.00  0.00    -0.050 C 
ENDBRANCH  37  39
ENDBRANCH  36  37
ENDBRANCH  15  36
TORSDOF 6
ENDMDL
MODEL 13
REMARK VINA RESULT:    -6.555      2.426      9.324
REMARK INTER + INTRA:         -10.811
REMARK INTER:                  -9.715
REMARK INTRA:                  -1.096
REMARK UNBOUND:                -1.957
REMARK  Name = cpd100.pdb
REMARK  17 active torsions:
REMARK  status: ('A' for Active; 'I' for Inactive)
REMARK    1  A    between atoms: C_1  and  C_2
REMARK    2  A    between atoms: C_2  and  C_3
REMARK    3  A    between atoms: C_2  and  C_4
REMARK    4  A    between atoms: C_15  and  C_16
REMARK    5  A    between atoms: C_17  and  C_18
REMARK    6  A    between atoms: C_18  and  C_19
REMARK    7  A    between atoms: C_18  and  N_20
REMARK    8  A    between atoms: N_20  and  C_21
REMARK    9  A    between atoms: N_20  and  C_22
REMARK   10  A    between atoms: C_23  and  O_24
REMARK   11  A    between atoms: O_24  and  C_25
REMARK   12  A    between atoms: C_25  and  C_27
REMARK   13  A    between atoms: C_27  and  C_28
REMARK   14  A    between atoms: C_27  and  C_29
REMARK   15  A    between atoms: C_27  and  C_30
REMARK   16  A    between atoms: C_32  and  C_33
REMARK   17  A    between atoms: C_38  and  C_39
REMARK                            x       y       z     vdW  Elec       q    Type
REMARK                         _______ _______ _______ _____ _____    ______ ____
ROOT
ATOM      1  C   UNL     1      41.018 -16.695 -32.799  0.00  0.00    +0.188 C 
ATOM      2  N   UNL     1      40.014 -17.460 -33.020  0.00  0.00    -0.250 NA
ATOM      3  C   UNL     1      40.210 -18.910 -33.050  0.00  0.00    +0.067 C 
ATOM      4  C   UNL     1      39.046 -19.559 -33.819  0.00  0.00    -0.011 C 
ATOM      5  C   UNL     1      39.316 -19.884 -35.257  0.00  0.00    -0.082 C 
ATOM      6  C   UNL     1      40.504 -19.752 -35.873  0.00  0.00    -0.069 C 
ATOM      7  C   UNL     1      40.633 -20.198 -37.322  0.00  0.00    -0.022 C 
ATOM      8  C   UNL     1      42.050 -20.128 -37.907  0.00  0.00    +0.025 C 
ATOM      9  C   UNL     1      42.154 -20.887 -39.233  0.00  0.00    +0.138 C 
ATOM     10  O   UNL     1      41.363 -21.776 -39.548  0.00  0.00    -0.297 OA
ATOM     11  C   UNL     1      43.299 -20.498 -40.165  0.00  0.00    +0.012 C 
ATOM     12  C   UNL     1      44.524 -19.943 -39.399  0.00  0.00    -0.012 C 
ATOM     13  C   UNL     1      45.129 -21.126 -38.589  0.00  0.00    -0.058 C 
ATOM     14  C   UNL     1      45.697 -19.378 -40.306  0.00  0.00    +0.018 C 
ATOM     15  C   UNL     1      45.602 -17.841 -40.291  0.00  0.00    +0.108 C 
ATOM     16  C   UNL     1      44.336 -17.507 -39.515  0.00  0.00    -0.009 C 
ATOM     17  C   UNL     1      44.079 -18.685 -38.535  0.00  0.00    -0.019 C 
ATOM     18  C   UNL     1      44.948 -18.510 -37.274  0.00  0.00    -0.059 C 
ATOM     19  C   UNL     1      42.540 -18.696 -38.182  0.00  0.00    -0.025 C 
ATOM     20  C   UNL     1      42.045 -17.602 -37.212  0.00  0.00    -0.048 C 
ATOM     21  C   UNL     1      42.101 -17.818 -35.694  0.00  0.00    -0.046 C 
ATOM     22  C   UNL     1      41.724 -19.206 -35.143  0.00  0.00    -0.009 C 
ATOM     23  C   UNL     1      41.595 -19.320 -33.572  0.00  0.00    +0.031 C 
ATOM     24  C   UNL     1      41.857 -20.807 -33.191  0.00  0.00    -0.054 C 
ATOM     25  C   UNL     1      42.619 -18.484 -32.794  0.00  0.00    +0.099 C 
ATOM     26  O   UNL     1      42.310 -17.087 -32.716  0.00  0.00    -0.479 OA
ENDROOT
BRANCH   1  28
ATOM     27  C   UNL     1      39.415 -14.768 -32.744  0.00  0.00    -0.054 C 
ATOM     28  C   UNL     1      40.880 -15.192 -32.662  0.00  0.00    +0.029 C 
ATOM     29  C   UNL     1      41.715 -14.488 -33.724  0.00  0.00    -0.054 C 
ENDBRANCH   1  28
BRANCH  14  30
ATOM     30  C   UNL     1      45.948 -20.044 -41.700  0.00  0.00    +0.014 C 
ATOM     31  C   UNL     1      44.795 -19.720 -42.670  0.00  0.00    -0.049 C 
BRANCH  30  32
ATOM     32  N   UNL     1      46.337 -21.471 -41.682  0.00  0.00    -0.305 N 
ATOM     33  C   UNL     1      47.791 -21.631 -41.812  0.00  0.00    -0.013 C 
ATOM     34  C   UNL     1      45.668 -22.350 -42.638  0.00  0.00    -0.013 C 
ATOM     35  H   UNL     1      46.010 -21.778 -40.766  0.00  0.00    +0.000 HD
ENDBRANCH  30  32
ENDBRANCH  14  30
BRANCH  15  36
ATOM     36  O   UNL     1      46.760 -17.332 -39.589  0.00  0.00    -0.461 OA
BRANCH  36  37
ATOM     37  C   UNL     1      47.281 -16.158 -40.045  0.00  0.00    +0.313 C 
ATOM     38  O   UNL     1      47.679 -15.978 -41.189  0.00  0.00    -0.250 OA
BRANCH  37  39
ATOM     39  C   UNL     1      47.349 -15.119 -38.924  0.00  0.00    +0.059 C 
ATOM     40  C   UNL     1      47.390 -15.805 -37.551  0.00  0.00    -0.050 C 
ATOM     41  C   UNL     1      46.102 -14.223 -38.987  0.00  0.00    -0.050 C 
ATOM     42  C   UNL     1      48.605 -14.265 -39.130  0.00  0.00    -0.050 C 
ENDBRANCH  37  39
ENDBRANCH  36  37
ENDBRANCH  15  36
TORSDOF 6
ENDMDL
MODEL 14
REMARK VINA RESULT:    -6.510     17.308     21.920
REMARK INTER + INTRA:         -10.750
REMARK INTER:                  -9.029
REMARK INTRA:                  -1.721
REMARK UNBOUND:                -1.957
REMARK  Name = cpd100.pdb
REMARK  17 active torsions:
REMARK  status: ('A' for Active; 'I' for Inactive)
REMARK    1  A    between atoms: C_1  and  C_2
REMARK    2  A    between atoms: C_2  and  C_3
REMARK    3  A    between atoms: C_2  and  C_4
REMARK    4  A    between atoms: C_15  and  C_16
REMARK    5  A    between atoms: C_17  and  C_18
REMARK    6  A    between atoms: C_18  and  C_19
REMARK    7  A    between atoms: C_18  and  N_20
REMARK    8  A    between atoms: N_20  and  C_21
REMARK    9  A    between atoms: N_20  and  C_22
REMARK   10  A    between atoms: C_23  and  O_24
REMARK   11  A    between atoms: O_24  and  C_25
REMARK   12  A    between atoms: C_25  and  C_27
REMARK   13  A    between atoms: C_27  and  C_28
REMARK   14  A    between atoms: C_27  and  C_29
REMARK   15  A    between atoms: C_27  and  C_30
REMARK   16  A    between atoms: C_32  and  C_33
REMARK   17  A    between atoms: C_38  and  C_39
REMARK                            x       y       z     vdW  Elec       q    Type
REMARK                         _______ _______ _______ _____ _____    ______ ____
ROOT
ATOM      1  C   UNL     1      36.762 -35.496 -30.748  0.00  0.00    +0.188 C 
ATOM      2  N   UNL     1      36.274 -34.311 -30.742  0.00  0.00    -0.250 NA
ATOM      3  C   UNL     1      35.079 -34.032 -29.944  0.00  0.00    +0.067 C 
ATOM      4  C   UNL     1      34.402 -32.760 -30.482  0.00  0.00    -0.011 C 
ATOM      5  C   UNL     1      33.251 -32.979 -31.417  0.00  0.00    -0.082 C 
ATOM      6  C   UNL     1      32.717 -34.175 -31.722  0.00  0.00    -0.069 C 
ATOM      7  C   UNL     1      31.498 -34.224 -32.632  0.00  0.00    -0.022 C 
ATOM      8  C   UNL     1      30.879 -35.615 -32.828  0.00  0.00    +0.025 C 
ATOM      9  C   UNL     1      29.494 -35.532 -33.475  0.00  0.00    +0.138 C 
ATOM     10  O   UNL     1      28.805 -34.513 -33.433  0.00  0.00    -0.297 OA
ATOM     11  C   UNL     1      28.987 -36.785 -34.186  0.00  0.00    +0.012 C 
ATOM     12  C   UNL     1      29.575 -38.085 -33.586  0.00  0.00    -0.012 C 
ATOM     13  C   UNL     1      28.979 -38.237 -32.157  0.00  0.00    -0.058 C 
ATOM     14  C   UNL     1      29.213 -39.420 -34.364  0.00  0.00    +0.018 C 
ATOM     15  C   UNL     1      30.443 -39.824 -35.198  0.00  0.00    +0.108 C 
ATOM     16  C   UNL     1      31.452 -38.697 -35.030  0.00  0.00    -0.009 C 
ATOM     17  C   UNL     1      31.162 -38.027 -33.658  0.00  0.00    -0.019 C 
ATOM     18  C   UNL     1      31.824 -38.845 -32.532  0.00  0.00    -0.059 C 
ATOM     19  C   UNL     1      31.721 -36.552 -33.711  0.00  0.00    -0.025 C 
ATOM     20  C   UNL     1      33.253 -36.389 -33.620  0.00  0.00    -0.048 C 
ATOM     21  C   UNL     1      33.952 -36.298 -32.257  0.00  0.00    -0.046 C 
ATOM     22  C   UNL     1      33.278 -35.469 -31.148  0.00  0.00    -0.009 C 
ATOM     23  C   UNL     1      34.131 -35.234 -29.838  0.00  0.00    +0.031 C 
ATOM     24  C   UNL     1      33.130 -34.985 -28.671  0.00  0.00    -0.054 C 
ATOM     25  C   UNL     1      34.992 -36.434 -29.424  0.00  0.00    +0.099 C 
ATOM     26  O   UNL     1      36.200 -36.587 -30.180  0.00  0.00    -0.479 OA
ENDROOT
BRANCH   1  28
ATOM     27  C   UNL     1      38.875 -36.843 -30.672  0.00  0.00    -0.054 C 
ATOM     28  C   UNL     1      38.045 -35.843 -31.474  0.00  0.00    +0.029 C 
ATOM     29  C   UNL     1      38.843 -34.578 -31.768  0.00  0.00    -0.054 C 
ENDBRANCH   1  28
BRANCH  14  30
ATOM     30  C   UNL     1      27.826 -39.510 -35.084  0.00  0.00    +0.014 C 
ATOM     31  C   UNL     1      26.911 -40.525 -34.371  0.00  0.00    -0.049 C 
BRANCH  30  32
ATOM     32  N   UNL     1      27.862 -39.662 -36.554  0.00  0.00    -0.305 N 
ATOM     33  C   UNL     1      27.453 -38.424 -37.230  0.00  0.00    -0.013 C 
ATOM     34  C   UNL     1      27.121 -40.787 -37.121  0.00  0.00    -0.013 C 
ATOM     35  H   UNL     1      28.844 -39.875 -36.732  0.00  0.00    +0.000 HD
ENDBRANCH  30  32
ENDBRANCH  14  30
BRANCH  15  36
ATOM     36  O   UNL     1      30.974 -41.048 -34.640  0.00  0.00    -0.461 OA
BRANCH  36  37
ATOM     37  C   UNL     1      31.920 -41.694 -35.380  0.00  0.00    +0.313 C 
ATOM     38  O   UNL     1      31.895 -41.790 -36.600  0.00  0.00    -0.250 OA
BRANCH  37  39
ATOM     39  C   UNL     1      32.983 -42.324 -34.477  0.00  0.00    +0.059 C 
ATOM     40  C   UNL     1      34.076 -41.301 -34.132  0.00  0.00    -0.050 C 
ATOM     41  C   UNL     1      33.632 -43.508 -35.208  0.00  0.00    -0.050 C 
ATOM     42  C   UNL     1      32.298 -42.822 -33.198  0.00  0.00    -0.050 C 
ENDBRANCH  37  39
ENDBRANCH  36  37
ENDBRANCH  15  36
TORSDOF 6
ENDMDL
MODEL 15
REMARK VINA RESULT:    -6.359      1.863      8.490
REMARK INTER + INTRA:         -10.547
REMARK INTER:                  -9.040
REMARK INTRA:                  -1.507
REMARK UNBOUND:                -1.957
REMARK  Name = cpd100.pdb
REMARK  17 active torsions:
REMARK  status: ('A' for Active; 'I' for Inactive)
REMARK    1  A    between atoms: C_1  and  C_2
REMARK    2  A    between atoms: C_2  and  C_3
REMARK    3  A    between atoms: C_2  and  C_4
REMARK    4  A    between atoms: C_15  and  C_16
REMARK    5  A    between atoms: C_17  and  C_18
REMARK    6  A    between atoms: C_18  and  C_19
REMARK    7  A    between atoms: C_18  and  N_20
REMARK    8  A    between atoms: N_20  and  C_21
REMARK    9  A    between atoms: N_20  and  C_22
REMARK   10  A    between atoms: C_23  and  O_24
REMARK   11  A    between atoms: O_24  and  C_25
REMARK   12  A    between atoms: C_25  and  C_27
REMARK   13  A    between atoms: C_27  and  C_28
REMARK   14  A    between atoms: C_27  and  C_29
REMARK   15  A    between atoms: C_27  and  C_30
REMARK   16  A    between atoms: C_32  and  C_33
REMARK   17  A    between atoms: C_38  and  C_39
REMARK                            x       y       z     vdW  Elec       q    Type
REMARK                         _______ _______ _______ _____ _____    ______ ____
ROOT
ATOM      1  C   UNL     1      39.054 -21.615 -34.434  0.00  0.00    +0.188 C 
ATOM      2  N   UNL     1      38.999 -20.853 -33.405  0.00  0.00    -0.250 NA
ATOM      3  C   UNL     1      38.488 -19.489 -33.550  0.00  0.00    +0.067 C 
ATOM      4  C   UNL     1      38.988 -18.637 -32.371  0.00  0.00    -0.011 C 
ATOM      5  C   UNL     1      40.199 -17.796 -32.642  0.00  0.00    -0.082 C 
ATOM      6  C   UNL     1      40.794 -17.656 -33.840  0.00  0.00    -0.069 C 
ATOM      7  C   UNL     1      41.973 -16.702 -33.966  0.00  0.00    -0.022 C 
ATOM      8  C   UNL     1      42.513 -16.509 -35.390  0.00  0.00    +0.025 C 
ATOM      9  C   UNL     1      43.461 -15.311 -35.478  0.00  0.00    +0.138 C 
ATOM     10  O   UNL     1      43.444 -14.393 -34.659  0.00  0.00    -0.297 OA
ATOM     11  C   UNL     1      44.447 -15.294 -36.645  0.00  0.00    +0.012 C 
ATOM     12  C   UNL     1      43.913 -16.056 -37.882  0.00  0.00    -0.012 C 
ATOM     13  C   UNL     1      42.711 -15.239 -38.437  0.00  0.00    -0.058 C 
ATOM     14  C   UNL     1      44.940 -16.211 -39.083  0.00  0.00    +0.018 C 
ATOM     15  C   UNL     1      45.494 -17.647 -39.043  0.00  0.00    +0.108 C 
ATOM     16  C   UNL     1      44.924 -18.281 -37.782  0.00  0.00    -0.009 C 
ATOM     17  C   UNL     1      43.584 -17.557 -37.474  0.00  0.00    -0.019 C 
ATOM     18  C   UNL     1      42.459 -18.159 -38.338  0.00  0.00    -0.059 C 
ATOM     19  C   UNL     1      43.286 -17.723 -35.933  0.00  0.00    -0.025 C 
ATOM     20  C   UNL     1      42.799 -19.112 -35.468  0.00  0.00    -0.048 C 
ATOM     21  C   UNL     1      41.307 -19.470 -35.502  0.00  0.00    -0.046 C 
ATOM     22  C   UNL     1      40.291 -18.397 -35.071  0.00  0.00    -0.009 C 
ATOM     23  C   UNL     1      38.791 -18.875 -34.924  0.00  0.00    +0.031 C 
ATOM     24  C   UNL     1      37.883 -17.627 -35.129  0.00  0.00    -0.054 C 
ATOM     25  C   UNL     1      38.355 -19.908 -35.970  0.00  0.00    +0.099 C 
ATOM     26  O   UNL     1      38.804 -21.244 -35.710  0.00  0.00    -0.479 OA
ENDROOT
BRANCH   1  28
ATOM     27  C   UNL     1      38.278 -23.985 -34.173  0.00  0.00    -0.054 C 
ATOM     28  C   UNL     1      39.485 -23.065 -34.348  0.00  0.00    +0.029 C 
ATOM     29  C   UNL     1      40.486 -23.252 -33.215  0.00  0.00    -0.054 C 
ENDBRANCH   1  28
BRANCH  14  30
ATOM     30  C   UNL     1      45.983 -15.070 -39.323  0.00  0.00    +0.014 C 
ATOM     31  C   UNL     1      45.671 -14.316 -40.630  0.00  0.00    -0.049 C 
BRANCH  30  32
ATOM     32  N   UNL     1      47.406 -15.443 -39.169  0.00  0.00    -0.305 N 
ATOM     33  C   UNL     1      47.925 -15.044 -37.854  0.00  0.00    -0.013 C 
ATOM     34  C   UNL     1      48.325 -14.985 -40.208  0.00  0.00    -0.013 C 
ATOM     35  H   UNL     1      47.381 -16.458 -39.265  0.00  0.00    +0.000 HD
ENDBRANCH  30  32
ENDBRANCH  14  30
BRANCH  15  36
ATOM     36  O   UNL     1      45.004 -18.344 -40.211  0.00  0.00    -0.461 OA
BRANCH  36  37
ATOM     37  C   UNL     1      45.803 -19.329 -40.711  0.00  0.00    +0.313 C 
ATOM     38  O   UNL     1      47.024 -19.342 -40.618  0.00  0.00    -0.250 OA
BRANCH  37  39
ATOM     39  C   UNL     1      44.973 -20.385 -41.445  0.00  0.00    +0.059 C 
ATOM     40  C   UNL     1      43.763 -20.807 -40.599  0.00  0.00    -0.050 C 
ATOM     41  C   UNL     1      45.844 -21.623 -41.708  0.00  0.00    -0.050 C 
ATOM     42  C   UNL     1      44.507 -19.792 -42.780  0.00  0.00    -0.050 C 
ENDBRANCH  37  39
ENDBRANCH  36  37
ENDBRANCH  15  36
TORSDOF 6
ENDMDL
MODEL 16
REMARK VINA RESULT:    -6.355     20.617     24.842
REMARK INTER + INTRA:         -10.542
REMARK INTER:                  -8.526
REMARK INTRA:                  -2.016
REMARK UNBOUND:                -1.957
REMARK  Name = cpd100.pdb
REMARK  17 active torsions:
REMARK  status: ('A' for Active; 'I' for Inactive)
REMARK    1  A    between atoms: C_1  and  C_2
REMARK    2  A    between atoms: C_2  and  C_3
REMARK    3  A    between atoms: C_2  and  C_4
REMARK    4  A    between atoms: C_15  and  C_16
REMARK    5  A    between atoms: C_17  and  C_18
REMARK    6  A    between atoms: C_18  and  C_19
REMARK    7  A    between atoms: C_18  and  N_20
REMARK    8  A    between atoms: N_20  and  C_21
REMARK    9  A    between atoms: N_20  and  C_22
REMARK   10  A    between atoms: C_23  and  O_24
REMARK   11  A    between atoms: O_24  and  C_25
REMARK   12  A    between atoms: C_25  and  C_27
REMARK   13  A    between atoms: C_27  and  C_28
REMARK   14  A    between atoms: C_27  and  C_29
REMARK   15  A    between atoms: C_27  and  C_30
REMARK   16  A    between atoms: C_32  and  C_33
REMARK   17  A    between atoms: C_38  and  C_39
REMARK                            x       y       z     vdW  Elec       q    Type
REMARK                         _______ _______ _______ _____ _____    ______ ____
ROOT
ATOM      1  C   UNL     1      35.363 -40.230 -30.584  0.00  0.00    +0.188 C 
ATOM      2  N   UNL     1      35.290 -38.994 -30.913  0.00  0.00    -0.250 NA
ATOM      3  C   UNL     1      36.036 -38.000 -30.141  0.00  0.00    +0.067 C 
ATOM      4  C   UNL     1      35.410 -36.614 -30.367  0.00  0.00    -0.011 C 
ATOM      5  C   UNL     1      34.456 -36.149 -29.308  0.00  0.00    -0.082 C 
ATOM      6  C   UNL     1      34.202 -36.794 -28.155  0.00  0.00    -0.069 C 
ATOM      7  C   UNL     1      33.262 -36.150 -27.146  0.00  0.00    -0.022 C 
ATOM      8  C   UNL     1      33.125 -36.892 -25.810  0.00  0.00    +0.025 C 
ATOM      9  C   UNL     1      32.435 -36.028 -24.751  0.00  0.00    +0.138 C 
ATOM     10  O   UNL     1      32.401 -34.800 -24.820  0.00  0.00    -0.297 OA
ATOM     11  C   UNL     1      31.780 -36.759 -23.581  0.00  0.00    +0.012 C 
ATOM     12  C   UNL     1      32.468 -38.111 -23.268  0.00  0.00    -0.012 C 
ATOM     13  C   UNL     1      33.886 -37.783 -22.717  0.00  0.00    -0.058 C 
ATOM     14  C   UNL     1      31.754 -38.999 -22.163  0.00  0.00    +0.018 C 
ATOM     15  C   UNL     1      30.980 -40.115 -22.888  0.00  0.00    +0.108 C 
ATOM     16  C   UNL     1      31.114 -39.820 -24.375  0.00  0.00    -0.009 C 
ATOM     17  C   UNL     1      32.438 -39.029 -24.565  0.00  0.00    -0.019 C 
ATOM     18  C   UNL     1      33.626 -40.010 -24.608  0.00  0.00    -0.059 C 
ATOM     19  C   UNL     1      32.320 -38.200 -25.902  0.00  0.00    -0.025 C 
ATOM     20  C   UNL     1      32.445 -38.992 -27.222  0.00  0.00    -0.048 C 
ATOM     21  C   UNL     1      33.821 -39.259 -27.846  0.00  0.00    -0.046 C 
ATOM     22  C   UNL     1      34.862 -38.125 -27.825  0.00  0.00    -0.009 C 
ATOM     23  C   UNL     1      36.182 -38.375 -28.659  0.00  0.00    +0.031 C 
ATOM     24  C   UNL     1      37.304 -37.500 -28.026  0.00  0.00    -0.054 C 
ATOM     25  C   UNL     1      36.685 -39.823 -28.622  0.00  0.00    +0.099 C 
ATOM     26  O   UNL     1      35.974 -40.722 -29.482  0.00  0.00    -0.479 OA
ENDROOT
BRANCH   1  28
ATOM     27  C   UNL     1      34.649 -40.967 -32.871  0.00  0.00    -0.054 C 
ATOM     28  C   UNL     1      34.694 -41.327 -31.388  0.00  0.00    +0.029 C 
ATOM     29  C   UNL     1      33.296 -41.599 -30.846  0.00  0.00    -0.054 C 
ENDBRANCH   1  28
BRANCH  14  30
ATOM     30  C   UNL     1      31.001 -38.275 -20.997  0.00  0.00    +0.014 C 
ATOM     31  C   UNL     1      31.787 -38.411 -19.679  0.00  0.00    -0.049 C 
BRANCH  30  32
ATOM     32  N   UNL     1      29.558 -38.569 -20.871  0.00  0.00    -0.305 N 
ATOM     33  C   UNL     1      28.743 -37.560 -21.561  0.00  0.00    -0.013 C 
ATOM     34  C   UNL     1      29.039 -38.763 -19.518  0.00  0.00    -0.013 C 
ATOM     35  H   UNL     1      29.477 -39.482 -21.319  0.00  0.00    +0.000 HD
ENDBRANCH  30  32
ENDBRANCH  14  30
BRANCH  15  36
ATOM     36  O   UNL     1      31.619 -41.374 -22.575  0.00  0.00    -0.461 OA
BRANCH  36  37
ATOM     37  C   UNL     1      31.497 -41.815 -21.291  0.00  0.00    +0.313 C 
ATOM     38  O   UNL     1      30.480 -41.707 -20.617  0.00  0.00    -0.250 OA
BRANCH  37  39
ATOM     39  C   UNL     1      32.814 -42.415 -20.793  0.00  0.00    +0.059 C 
ATOM     40  C   UNL     1      32.696 -42.832 -19.319  0.00  0.00    -0.050 C 
ATOM     41  C   UNL     1      33.928 -41.365 -20.917  0.00  0.00    -0.050 C 
ATOM     42  C   UNL     1      33.153 -43.630 -21.664  0.00  0.00    -0.050 C 
ENDBRANCH  37  39
ENDBRANCH  36  37
ENDBRANCH  15  36
TORSDOF 6
ENDMDL
MODEL 17
REMARK VINA RESULT:    -5.909     17.105     22.921
REMARK INTER + INTRA:          -9.939
REMARK INTER:                  -7.873
REMARK INTRA:                  -2.066
REMARK UNBOUND:                -1.957
REMARK  Name = cpd100.pdb
REMARK  17 active torsions:
REMARK  status: ('A' for Active; 'I' for Inactive)
REMARK    1  A    between atoms: C_1  and  C_2
REMARK    2  A    between atoms: C_2  and  C_3
REMARK    3  A    between atoms: C_2  and  C_4
REMARK    4  A    between atoms: C_15  and  C_16
REMARK    5  A    between atoms: C_17  and  C_18
REMARK    6  A    between atoms: C_18  and  C_19
REMARK    7  A    between atoms: C_18  and  N_20
REMARK    8  A    between atoms: N_20  and  C_21
REMARK    9  A    between atoms: N_20  and  C_22
REMARK   10  A    between atoms: C_23  and  O_24
REMARK   11  A    between atoms: O_24  and  C_25
REMARK   12  A    between atoms: C_25  and  C_27
REMARK   13  A    between atoms: C_27  and  C_28
REMARK   14  A    between atoms: C_27  and  C_29
REMARK   15  A    between atoms: C_27  and  C_30
REMARK   16  A    between atoms: C_32  and  C_33
REMARK   17  A    between atoms: C_38  and  C_39
REMARK                            x       y       z     vdW  Elec       q    Type
REMARK                         _______ _______ _______ _____ _____    ______ ____
ROOT
ATOM      1  C   UNL     1      31.444 -31.847 -30.810  0.00  0.00    +0.188 C 
ATOM      2  N   UNL     1      32.706 -31.698 -30.970  0.00  0.00    -0.250 NA
ATOM      3  C   UNL     1      33.449 -32.677 -31.764  0.00  0.00    +0.067 C 
ATOM      4  C   UNL     1      34.939 -32.599 -31.393  0.00  0.00    -0.011 C 
ATOM      5  C   UNL     1      35.419 -33.619 -30.404  0.00  0.00    -0.082 C 
ATOM      6  C   UNL     1      34.683 -34.634 -29.917  0.00  0.00    -0.069 C 
ATOM      7  C   UNL     1      35.341 -35.631 -28.975  0.00  0.00    -0.022 C 
ATOM      8  C   UNL     1      34.466 -36.824 -28.566  0.00  0.00    +0.025 C 
ATOM      9  C   UNL     1      35.290 -37.928 -27.898  0.00  0.00    +0.138 C 
ATOM     10  O   UNL     1      36.505 -38.038 -28.064  0.00  0.00    -0.297 OA
ATOM     11  C   UNL     1      34.536 -38.908 -27.002  0.00  0.00    +0.012 C 
ATOM     12  C   UNL     1      33.058 -39.083 -27.428  0.00  0.00    -0.012 C 
ATOM     13  C   UNL     1      33.064 -39.810 -28.804  0.00  0.00    -0.058 C 
ATOM     14  C   UNL     1      32.169 -39.971 -26.459  0.00  0.00    +0.018 C 
ATOM     15  C   UNL     1      31.305 -39.017 -25.612  0.00  0.00    +0.108 C 
ATOM     16  C   UNL     1      31.764 -37.610 -25.967  0.00  0.00    -0.009 C 
ATOM     17  C   UNL     1      32.335 -37.668 -27.411  0.00  0.00    -0.019 C 
ATOM     18  C   UNL     1      31.180 -37.594 -28.428  0.00  0.00    -0.059 C 
ATOM     19  C   UNL     1      33.339 -36.462 -27.584  0.00  0.00    -0.025 C 
ATOM     20  C   UNL     1      32.715 -35.059 -27.741  0.00  0.00    -0.048 C 
ATOM     21  C   UNL     1      32.300 -34.536 -29.123  0.00  0.00    -0.046 C 
ATOM     22  C   UNL     1      33.227 -34.826 -30.318  0.00  0.00    -0.009 C 
ATOM     23  C   UNL     1      32.866 -34.095 -31.672  0.00  0.00    +0.031 C 
ATOM     24  C   UNL     1      33.447 -34.955 -32.833  0.00  0.00    -0.054 C 
ATOM     25  C   UNL     1      31.361 -33.965 -31.936  0.00  0.00    +0.099 C 
ATOM     26  O   UNL     1      30.716 -32.918 -31.201  0.00  0.00    -0.479 OA
ENDROOT
BRANCH   1  28
ATOM     27  C   UNL     1      30.147 -31.364 -28.719  0.00  0.00    -0.054 C 
ATOM     28  C   UNL     1      30.592 -30.829 -30.079  0.00  0.00    +0.029 C 
ATOM     29  C   UNL     1      29.393 -30.435 -30.932  0.00  0.00    -0.054 C 
ENDBRANCH   1  28
BRANCH  14  30
ATOM     30  C   UNL     1      32.853 -41.153 -25.694  0.00  0.00    +0.014 C 
ATOM     31  C   UNL     1      32.535 -42.496 -26.379  0.00  0.00    -0.049 C 
BRANCH  30  32
ATOM     32  N   UNL     1      32.678 -41.169 -24.226  0.00  0.00    -0.305 N 
ATOM     33  C   UNL     1      33.857 -40.625 -23.540  0.00  0.00    -0.013 C 
ATOM     34  C   UNL     1      32.315 -42.447 -23.618  0.00  0.00    -0.013 C 
ATOM     35  H   UNL     1      31.862 -40.570 -24.093  0.00  0.00    +0.000 HD
ENDBRANCH  30  32
ENDBRANCH  14  30
BRANCH  15  36
ATOM     36  O   UNL     1      29.926 -39.201 -26.005  0.00  0.00    -0.461 OA
BRANCH  36  37
ATOM     37  C   UNL     1      29.293 -40.302 -25.509  0.00  0.00    +0.313 C 
ATOM     38  O   UNL     1      29.413 -40.708 -24.360  0.00  0.00    -0.250 OA
BRANCH  37  39
ATOM     39  C   UNL     1      28.459 -40.987 -26.594  0.00  0.00    +0.059 C 
ATOM     40  C   UNL     1      28.779 -42.488 -26.658  0.00  0.00    -0.050 C 
ATOM     41  C   UNL     1      28.785 -40.357 -27.958  0.00  0.00    -0.050 C 
ATOM     42  C   UNL     1      26.975 -40.772 -26.271  0.00  0.00    -0.050 C 
ENDBRANCH  37  39
ENDBRANCH  36  37
ENDBRANCH  15  36
TORSDOF 6
ENDMDL
MODEL 18
REMARK VINA RESULT:    -5.872      3.993      7.197
REMARK INTER + INTRA:          -9.889
REMARK INTER:                  -8.371
REMARK INTRA:                  -1.517
REMARK UNBOUND:                -1.957
REMARK  Name = cpd100.pdb
REMARK  17 active torsions:
REMARK  status: ('A' for Active; 'I' for Inactive)
REMARK    1  A    between atoms: C_1  and  C_2
REMARK    2  A    between atoms: C_2  and  C_3
REMARK    3  A    between atoms: C_2  and  C_4
REMARK    4  A    between atoms: C_15  and  C_16
REMARK    5  A    between atoms: C_17  and  C_18
REMARK    6  A    between atoms: C_18  and  C_19
REMARK    7  A    between atoms: C_18  and  N_20
REMARK    8  A    between atoms: N_20  and  C_21
REMARK    9  A    between atoms: N_20  and  C_22
REMARK   10  A    between atoms: C_23  and  O_24
REMARK   11  A    between atoms: O_24  and  C_25
REMARK   12  A    between atoms: C_25  and  C_27
REMARK   13  A    between atoms: C_27  and  C_28
REMARK   14  A    between atoms: C_27  and  C_29
REMARK   15  A    between atoms: C_27  and  C_30
REMARK   16  A    between atoms: C_32  and  C_33
REMARK   17  A    between atoms: C_38  and  C_39
REMARK                            x       y       z     vdW  Elec       q    Type
REMARK                         _______ _______ _______ _____ _____    ______ ____
ROOT
ATOM      1  C   UNL     1      46.791 -12.189 -43.547  0.00  0.00    +0.188 C 
ATOM      2  N   UNL     1      45.955 -11.324 -43.107  0.00  0.00    -0.250 NA
ATOM      3  C   UNL     1      45.958 -10.981 -41.684  0.00  0.00    +0.067 C 
ATOM      4  C   UNL     1      44.599 -10.365 -41.312  0.00  0.00    -0.011 C 
ATOM      5  C   UNL     1      43.609 -11.299 -40.685  0.00  0.00    -0.082 C 
ATOM      6  C   UNL     1      43.858 -12.574 -40.336  0.00  0.00    -0.069 C 
ATOM      7  C   UNL     1      42.766 -13.371 -39.638  0.00  0.00    -0.022 C 
ATOM      8  C   UNL     1      43.175 -14.773 -39.166  0.00  0.00    +0.025 C 
ATOM      9  C   UNL     1      42.145 -15.369 -38.204  0.00  0.00    +0.138 C 
ATOM     10  O   UNL     1      41.355 -14.672 -37.566  0.00  0.00    -0.297 OA
ATOM     11  C   UNL     1      42.134 -16.889 -38.057  0.00  0.00    +0.012 C 
ATOM     12  C   UNL     1      43.523 -17.520 -38.322  0.00  0.00    -0.012 C 
ATOM     13  C   UNL     1      44.456 -17.070 -37.161  0.00  0.00    -0.058 C 
ATOM     14  C   UNL     1      43.560 -19.106 -38.335  0.00  0.00    +0.018 C 
ATOM     15  C   UNL     1      43.612 -19.561 -39.805  0.00  0.00    +0.108 C 
ATOM     16  C   UNL     1      43.471 -18.296 -40.640  0.00  0.00    -0.009 C 
ATOM     17  C   UNL     1      44.012 -17.120 -39.780  0.00  0.00    -0.019 C 
ATOM     18  C   UNL     1      45.549 -17.068 -39.883  0.00  0.00    -0.059 C 
ATOM     19  C   UNL     1      43.349 -15.789 -40.308  0.00  0.00    -0.025 C 
ATOM     20  C   UNL     1      43.881 -15.234 -41.647  0.00  0.00    -0.048 C 
ATOM     21  C   UNL     1      45.098 -14.300 -41.679  0.00  0.00    -0.046 C 
ATOM     22  C   UNL     1      45.214 -13.219 -40.589  0.00  0.00    -0.009 C 
ATOM     23  C   UNL     1      46.368 -12.155 -40.783  0.00  0.00    +0.031 C 
ATOM     24  C   UNL     1      46.734 -11.604 -39.373  0.00  0.00    -0.054 C 
ATOM     25  C   UNL     1      47.660 -12.730 -41.375  0.00  0.00    +0.099 C 
ATOM     26  O   UNL     1      47.622 -12.943 -42.792  0.00  0.00    -0.479 OA
ENDROOT
BRANCH   1  28
ATOM     27  C   UNL     1      48.293 -13.090 -45.340  0.00  0.00    -0.054 C 
ATOM     28  C   UNL     1      46.910 -12.529 -45.018  0.00  0.00    +0.029 C 
ATOM     29  C   UNL     1      46.604 -11.302 -45.869  0.00  0.00    -0.054 C 
ENDBRANCH   1  28
BRANCH  14  30
ATOM     30  C   UNL     1      42.572 -19.883 -37.402  0.00  0.00    +0.014 C 
ATOM     31  C   UNL     1      43.341 -20.602 -36.277  0.00  0.00    -0.049 C 
BRANCH  30  32
ATOM     32  N   UNL     1      41.564 -20.728 -38.078  0.00  0.00    -0.305 N 
ATOM     33  C   UNL     1      40.219 -20.150 -37.966  0.00  0.00    -0.013 C 
ATOM     34  C   UNL     1      41.517 -22.136 -37.691  0.00  0.00    -0.013 C 
ATOM     35  H   UNL     1      41.889 -20.730 -39.045  0.00  0.00    +0.000 HD
ENDBRANCH  30  32
ENDBRANCH  14  30
BRANCH  15  36
ATOM     36  O   UNL     1      44.906 -20.164 -40.037  0.00  0.00    -0.461 OA
BRANCH  36  37
ATOM     37  C   UNL     1      44.906 -21.436 -40.528  0.00  0.00    +0.313 C 
ATOM     38  O   UNL     1      44.068 -22.284 -40.248  0.00  0.00    -0.250 OA
BRANCH  37  39
ATOM     39  C   UNL     1      46.118 -21.672 -41.431  0.00  0.00    +0.059 C 
ATOM     40  C   UNL     1      46.811 -20.343 -41.768  0.00  0.00    -0.050 C 
ATOM     41  C   UNL     1      45.654 -22.329 -42.741  0.00  0.00    -0.050 C 
ATOM     42  C   UNL     1      47.089 -22.609 -40.703  0.00  0.00    -0.050 C 
ENDBRANCH  37  39
ENDBRANCH  36  37
ENDBRANCH  15  36
TORSDOF 6
ENDMDL
MODEL 19
REMARK VINA RESULT:    -5.860      2.570      5.271
REMARK INTER + INTRA:          -9.872
REMARK INTER:                  -7.908
REMARK INTRA:                  -1.964
REMARK UNBOUND:                -1.957
REMARK  Name = cpd100.pdb
REMARK  17 active torsions:
REMARK  status: ('A' for Active; 'I' for Inactive)
REMARK    1  A    between atoms: C_1  and  C_2
REMARK    2  A    between atoms: C_2  and  C_3
REMARK    3  A    between atoms: C_2  and  C_4
REMARK    4  A    between atoms: C_15  and  C_16
REMARK    5  A    between atoms: C_17  and  C_18
REMARK    6  A    between atoms: C_18  and  C_19
REMARK    7  A    between atoms: C_18  and  N_20
REMARK    8  A    between atoms: N_20  and  C_21
REMARK    9  A    between atoms: N_20  and  C_22
REMARK   10  A    between atoms: C_23  and  O_24
REMARK   11  A    between atoms: O_24  and  C_25
REMARK   12  A    between atoms: C_25  and  C_27
REMARK   13  A    between atoms: C_27  and  C_28
REMARK   14  A    between atoms: C_27  and  C_29
REMARK   15  A    between atoms: C_27  and  C_30
REMARK   16  A    between atoms: C_32  and  C_33
REMARK   17  A    between atoms: C_38  and  C_39
REMARK                            x       y       z     vdW  Elec       q    Type
REMARK                         _______ _______ _______ _____ _____    ______ ____
ROOT
ATOM      1  C   UNL     1      47.167 -17.896 -36.458  0.00  0.00    +0.188 C 
ATOM      2  N   UNL     1      47.152 -18.944 -37.196  0.00  0.00    -0.250 NA
ATOM      3  C   UNL     1      46.337 -18.954 -38.411  0.00  0.00    +0.067 C 
ATOM      4  C   UNL     1      46.068 -20.411 -38.824  0.00  0.00    -0.011 C 
ATOM      5  C   UNL     1      44.745 -20.974 -38.400  0.00  0.00    -0.082 C 
ATOM      6  C   UNL     1      43.763 -20.280 -37.797  0.00  0.00    -0.069 C 
ATOM      7  C   UNL     1      42.446 -20.981 -37.498  0.00  0.00    -0.022 C 
ATOM      8  C   UNL     1      41.340 -20.084 -36.924  0.00  0.00    +0.025 C 
ATOM      9  C   UNL     1      39.975 -20.776 -36.959  0.00  0.00    +0.138 C 
ATOM     10  O   UNL     1      39.726 -21.707 -37.724  0.00  0.00    -0.297 OA
ATOM     11  C   UNL     1      38.912 -20.257 -35.994  0.00  0.00    +0.012 C 
ATOM     12  C   UNL     1      39.104 -18.759 -35.651  0.00  0.00    -0.012 C 
ATOM     13  C   UNL     1      38.811 -17.954 -36.950  0.00  0.00    -0.058 C 
ATOM     14  C   UNL     1      38.128 -18.183 -34.540  0.00  0.00    +0.018 C 
ATOM     15  C   UNL     1      38.922 -18.086 -33.224  0.00  0.00    +0.108 C 
ATOM     16  C   UNL     1      40.281 -18.711 -33.508  0.00  0.00    -0.009 C 
ATOM     17  C   UNL     1      40.550 -18.543 -35.029  0.00  0.00    -0.019 C 
ATOM     18  C   UNL     1      41.095 -17.128 -35.306  0.00  0.00    -0.059 C 
ATOM     19  C   UNL     1      41.579 -19.658 -35.465  0.00  0.00    -0.025 C 
ATOM     20  C   UNL     1      43.049 -19.446 -35.043  0.00  0.00    -0.048 C 
ATOM     21  C   UNL     1      44.005 -18.626 -35.919  0.00  0.00    -0.046 C 
ATOM     22  C   UNL     1      43.928 -18.807 -37.447  0.00  0.00    -0.009 C 
ATOM     23  C   UNL     1      45.065 -18.104 -38.290  0.00  0.00    +0.031 C 
ATOM     24  C   UNL     1      44.494 -17.846 -39.716  0.00  0.00    -0.054 C 
ATOM     25  C   UNL     1      45.502 -16.739 -37.743  0.00  0.00    +0.099 C 
ATOM     26  O   UNL     1      46.383 -16.806 -36.615  0.00  0.00    -0.479 OA
ENDROOT
BRANCH   1  28
ATOM     27  C   UNL     1      49.056 -18.926 -35.171  0.00  0.00    -0.054 C 
ATOM     28  C   UNL     1      48.053 -17.776 -35.235  0.00  0.00    +0.029 C 
ATOM     29  C   UNL     1      47.204 -17.718 -33.971  0.00  0.00    -0.054 C 
ENDBRANCH   1  28
BRANCH  14  30
ATOM     30  C   UNL     1      36.683 -18.776 -34.437  0.00  0.00    +0.014 C 
ATOM     31  C   UNL     1      35.673 -17.871 -35.167  0.00  0.00    -0.049 C 
BRANCH  30  32
ATOM     32  N   UNL     1      36.246 -19.202 -33.090  0.00  0.00    -0.305 N 
ATOM     33  C   UNL     1      36.572 -20.612 -32.842  0.00  0.00    -0.013 C 
ATOM     34  C   UNL     1      34.847 -18.963 -32.743  0.00  0.00    -0.013 C 
ATOM     35  H   UNL     1      36.781 -18.584 -32.478  0.00  0.00    +0.000 HD
ENDBRANCH  30  32
ENDBRANCH  14  30
BRANCH  15  36
ATOM     36  O   UNL     1      39.081 -16.685 -32.904  0.00  0.00    -0.461 OA
BRANCH  36  37
ATOM     37  C   UNL     1      37.962 -16.025 -32.489  0.00  0.00    +0.313 C 
ATOM     38  O   UNL     1      37.100 -16.514 -31.770  0.00  0.00    -0.250 OA
BRANCH  37  39
ATOM     39  C   UNL     1      37.907 -14.617 -33.084  0.00  0.00    +0.059 C 
ATOM     40  C   UNL     1      37.314 -13.624 -32.073  0.00  0.00    -0.050 C 
ATOM     41  C   UNL     1      37.017 -14.630 -34.337  0.00  0.00    -0.050 C 
ATOM     42  C   UNL     1      39.330 -14.197 -33.470  0.00  0.00    -0.050 C 
ENDBRANCH  37  39
ENDBRANCH  36  37
ENDBRANCH  15  36
TORSDOF 6
ENDMDL
MODEL 20
REMARK VINA RESULT:    -5.841     22.342     25.490
REMARK INTER + INTRA:          -9.847
REMARK INTER:                  -7.856
REMARK INTRA:                  -1.991
REMARK UNBOUND:                -1.957
REMARK  Name = cpd100.pdb
REMARK  17 active torsions:
REMARK  status: ('A' for Active; 'I' for Inactive)
REMARK    1  A    between atoms: C_1  and  C_2
REMARK    2  A    between atoms: C_2  and  C_3
REMARK    3  A    between atoms: C_2  and  C_4
REMARK    4  A    between atoms: C_15  and  C_16
REMARK    5  A    between atoms: C_17  and  C_18
REMARK    6  A    between atoms: C_18  and  C_19
REMARK    7  A    between atoms: C_18  and  N_20
REMARK    8  A    between atoms: N_20  and  C_21
REMARK    9  A    between atoms: N_20  and  C_22
REMARK   10  A    between atoms: C_23  and  O_24
REMARK   11  A    between atoms: O_24  and  C_25
REMARK   12  A    between atoms: C_25  and  C_27
REMARK   13  A    between atoms: C_27  and  C_28
REMARK   14  A    between atoms: C_27  and  C_29
REMARK   15  A    between atoms: C_27  and  C_30
REMARK   16  A    between atoms: C_32  and  C_33
REMARK   17  A    between atoms: C_38  and  C_39
REMARK                            x       y       z     vdW  Elec       q    Type
REMARK                         _______ _______ _______ _____ _____    ______ ____
ROOT
ATOM      1  C   UNL     1      45.627 -35.332 -54.864  0.00  0.00    +0.188 C 
ATOM      2  N   UNL     1      45.318 -34.652 -55.905  0.00  0.00    -0.250 NA
ATOM      3  C   UNL     1      46.016 -34.913 -57.165  0.00  0.00    +0.067 C 
ATOM      4  C   UNL     1      45.869 -33.688 -58.084  0.00  0.00    -0.011 C 
ATOM      5  C   UNL     1      47.027 -32.735 -58.090  0.00  0.00    -0.082 C 
ATOM      6  C   UNL     1      48.194 -32.928 -57.450  0.00  0.00    -0.069 C 
ATOM      7  C   UNL     1      49.302 -31.898 -57.618  0.00  0.00    -0.022 C 
ATOM      8  C   UNL     1      50.639 -32.257 -56.956  0.00  0.00    +0.025 C 
ATOM      9  C   UNL     1      51.772 -31.348 -57.438  0.00  0.00    +0.138 C 
ATOM     10  O   UNL     1      51.717 -30.733 -58.503  0.00  0.00    -0.297 OA
ATOM     11  C   UNL     1      52.998 -31.232 -56.535  0.00  0.00    +0.012 C 
ATOM     12  C   UNL     1      53.225 -32.502 -55.679  0.00  0.00    -0.012 C 
ATOM     13  C   UNL     1      53.627 -33.644 -56.657  0.00  0.00    -0.058 C 
ATOM     14  C   UNL     1      54.391 -32.403 -54.607  0.00  0.00    +0.018 C 
ATOM     15  C   UNL     1      53.742 -32.180 -53.229  0.00  0.00    +0.108 C 
ATOM     16  C   UNL     1      52.251 -32.015 -53.489  0.00  0.00    -0.009 C 
ATOM     17  C   UNL     1      51.931 -32.784 -54.801  0.00  0.00    -0.019 C 
ATOM     18  C   UNL     1      51.754 -34.283 -54.492  0.00  0.00    -0.059 C 
ATOM     19  C   UNL     1      50.620 -32.160 -55.421  0.00  0.00    -0.025 C 
ATOM     20  C   UNL     1      49.288 -32.515 -54.726  0.00  0.00    -0.048 C 
ATOM     21  C   UNL     1      48.520 -33.787 -55.110  0.00  0.00    -0.046 C 
ATOM     22  C   UNL     1      48.442 -34.167 -56.600  0.00  0.00    -0.009 C 
ATOM     23  C   UNL     1      47.471 -35.360 -56.965  0.00  0.00    +0.031 C 
ATOM     24  C   UNL     1      47.990 -35.992 -58.290  0.00  0.00    -0.054 C 
ATOM     25  C   UNL     1      47.442 -36.488 -55.926  0.00  0.00    +0.099 C 
ATOM     26  O   UNL     1      46.654 -36.205 -54.764  0.00  0.00    -0.479 OA
ENDROOT
BRANCH   1  28
ATOM     27  C   UNL     1      45.214 -33.848 -52.885  0.00  0.00    -0.054 C 
ATOM     28  C   UNL     1      44.888 -35.184 -53.549  0.00  0.00    +0.029 C 
ATOM     29  C   UNL     1      45.217 -36.350 -52.626  0.00  0.00    -0.054 C 
ENDBRANCH   1  28
BRANCH  14  30
ATOM     30  C   UNL     1      55.636 -31.515 -54.940  0.00  0.00    +0.014 C 
ATOM     31  C   UNL     1      56.900 -32.385 -55.080  0.00  0.00    -0.049 C 
BRANCH  30  32
ATOM     32  N   UNL     1      55.823 -30.312 -54.101  0.00  0.00    -0.305 N 
ATOM     33  C   UNL     1      55.436 -29.091 -54.821  0.00  0.00    -0.013 C 
ATOM     34  C   UNL     1      57.143 -30.121 -53.505  0.00  0.00    -0.013 C 
ATOM     35  H   UNL     1      55.200 -30.491 -53.314  0.00  0.00    +0.000 HD
ENDBRANCH  30  32
ENDBRANCH  14  30
BRANCH  15  36
ATOM     36  O   UNL     1      53.975 -33.364 -52.432  0.00  0.00    -0.461 OA
BRANCH  36  37
ATOM     37  C   UNL     1      55.212 -33.488 -51.874  0.00  0.00    +0.313 C 
ATOM     38  O   UNL     1      55.879 -32.550 -51.456  0.00  0.00    -0.250 OA
BRANCH  37  39
ATOM     39  C   UNL     1      55.674 -34.947 -51.888  0.00  0.00    +0.059 C 
ATOM     40  C   UNL     1      57.146 -35.046 -52.313  0.00  0.00    -0.050 C 
ATOM     41  C   UNL     1      54.820 -35.739 -52.891  0.00  0.00    -0.050 C 
ATOM     42  C   UNL     1      55.486 -35.529 -50.482  0.00  0.00    -0.050 C 
ENDBRANCH  37  39
ENDBRANCH  36  37
ENDBRANCH  15  36
TORSDOF 6
ENDMDL
