@<TRIPOS>MOLECULE
*****
 41 45 0 0 0
SMALL
GASTEIGER

@<TRIPOS>ATOM
      1 C           2.5981   -0.5000    0.0000 C.3     1  UNL1        0.0097
      2 C           1.7321   -0.0000    0.0000 C.3     1  UNL1        0.0758
      3 C           1.7321    1.0000    0.0000 C.3     1  UNL1        0.0097
      4 C           0.8660   -0.5000    0.0000 C.2     1  UNL1        0.1951
      5 N           0.8660   -1.5000    0.0000 N.2     1  UNL1       -0.2432
      6 C           0.0000   -2.0000    0.0000 C.3     1  UNL1        0.1140
      7 C           0.0000   -3.0000    0.0000 C.3     1  UNL1        0.0499
      8 C          -0.8660   -3.5000    0.0000 C.2     1  UNL1       -0.0326
      9 C          -1.7321   -3.0000    0.0000 C.2     1  UNL1       -0.0481
     10 C          -2.5139   -3.6235    0.0000 C.3     1  UNL1        0.0290
     11 C          -3.4888   -3.4010    0.0000 C.3     1  UNL1        0.0616
     12 C          -4.0521   -4.2272    0.0000 C.2     1  UNL1        0.1506
     13 O          -3.6182   -5.1282    0.0000 O.2     1  UNL1       -0.2961
     14 C          -5.0493   -4.1525    0.0000 C.3     1  UNL1        0.0646
     15 C          -5.4832   -3.2515    0.0000 C.3     1  UNL1        0.0117
     16 C          -5.6618   -4.2354    0.0000 C.3     1  UNL1        0.0006
     17 C          -6.4431   -2.9711    0.0000 C.3     1  UNL1        0.0552
     18 C          -7.2342   -3.5828    0.0000 C.3     1  UNL1        0.0611
     19 C          -8.1595   -3.2036    0.0000 C.3     1  UNL1        0.0175
     20 N          -7.0999   -4.5738    0.0000 N.3     1  UNL1       -0.2715
     21 C          -7.8910   -5.1855    0.0000 C.3     1  UNL1        0.0896
     22 C          -6.1746   -4.9530    0.0000 C.3     1  UNL1        0.0896
     23 C          -6.4730   -1.9715    0.0000 C.3     1  UNL1        0.1700
     24 O          -7.2992   -1.4082    0.0000 O.3     1  UNL1       -0.4522
     25 C          -7.2245   -0.4110    0.0000 C.2     1  UNL1        0.3158
     26 O          -8.0508    0.1523    0.0000 O.2     1  UNL1       -0.2501
     27 C          -6.3235    0.0229    0.0000 C.3     1  UNL1        0.0896
     28 C          -5.3263   -0.0519    0.0000 C.3     1  UNL1        0.0111
     29 C          -5.8897   -0.8781    0.0000 C.3     1  UNL1        0.0111
     30 C          -6.2488    1.0201    0.0000 C.3     1  UNL1        0.0111
     31 C          -5.5316   -1.6342    0.0000 C.3     1  UNL1        0.0437
     32 C          -4.9199   -2.4253    0.0000 C.3     1  UNL1        0.0044
     33 C          -4.0692   -1.8996    0.0000 C.3     1  UNL1        0.0001
     34 C          -3.9227   -2.5000    0.0000 C.3     1  UNL1        0.0074
     35 C          -3.4888   -1.5990    0.0000 C.3     1  UNL1        0.0008
     36 C          -2.5139   -1.3765    0.0000 C.3     1  UNL1        0.0042
     37 C          -1.7321   -2.0000    0.0000 C.3     1  UNL1        0.0233
     38 C          -0.8660   -1.5000    0.0000 C.3     1  UNL1        0.0649
     39 C          -1.7321   -1.0000    0.0000 C.3     1  UNL1        0.0060
     40 C          -0.8660   -0.5000    0.0000 C.3     1  UNL1        0.2087
     41 O          -0.0000   -0.0000    0.0000 O.2     1  UNL1       -0.4635
@<TRIPOS>BOND
     1     1     2    1
     2     2     3    1
     3     2     4    1
     4     4     5    2
     5     5     6    1
     6     6     7    1
     7     7     8    1
     8     8     9    2
     9     9    10    1
    10    10    11    1
    11    11    12    1
    12    12    13    2
    13    12    14    1
    14    14    15    1
    15    15    16    1
    16    15    17    1
    17    17    18    1
    18    18    19    1
    19    18    20    1
    20    20    21    1
    21    20    22    1
    22    17    23    1
    23    23    24    1
    24    24    25    1
    25    25    26    2
    26    25    27    1
    27    27    28    1
    28    27    29    1
    29    27    30    1
    30    23    31    1
    31    31    32    1
    32    15    32    1
    33    32    33    1
    34    32    34    1
    35    11    34    1
    36    34    35    1
    37    35    36    1
    38    36    37    1
    39     9    37    1
    40    37    38    1
    41     6    38    1
    42    38    39    1
    43    38    40    1
    44    40    41    1
    45     4    41    1
