REMARK  Name = cpd100.pdb
REMARK  17 active torsions:
REMARK  status: ('A' for Active; 'I' for Inactive)
REMARK    1  A    between atoms: C_1  and  C_2
REMARK    2  A    between atoms: C_2  and  C_3
REMARK    3  A    between atoms: C_2  and  C_4
REMARK    4  A    between atoms: C_15  and  C_16
REMARK    5  A    between atoms: C_17  and  C_18
REMARK    6  A    between atoms: C_18  and  C_19
REMARK    7  A    between atoms: C_18  and  N_20
REMARK    8  A    between atoms: N_20  and  C_21
REMARK    9  A    between atoms: N_20  and  C_22
REMARK   10  A    between atoms: C_23  and  O_24
REMARK   11  A    between atoms: O_24  and  C_25
REMARK   12  A    between atoms: C_25  and  C_27
REMARK   13  A    between atoms: C_27  and  C_28
REMARK   14  A    between atoms: C_27  and  C_29
REMARK   15  A    between atoms: C_27  and  C_30
REMARK   16  A    between atoms: C_32  and  C_33
REMARK   17  A    between atoms: C_38  and  C_39
REMARK                            x       y       z     vdW  Elec       q    Type
REMARK                         _______ _______ _______ _____ _____    ______ ____
ROOT
ATOM      1  C   UNL     1       1.730  -0.212  -0.162  0.00  0.00    +0.188 C 
ATOM      2  N   UNL     1       2.222  -1.395  -0.135  0.00  0.00    -0.250 NA
ATOM      3  C   UNL     1       1.953  -2.309  -1.246  0.00  0.00    +0.067 C 
ATOM      4  C   UNL     1       2.179  -3.755  -0.773  0.00  0.00    -0.011 C 
ATOM      5  C   UNL     1       0.948  -4.508  -0.367  0.00  0.00    -0.082 C 
ATOM      6  C   UNL     1      -0.313  -4.056  -0.488  0.00  0.00    -0.069 C 
ATOM      7  C   UNL     1      -1.462  -4.975  -0.099  0.00  0.00    -0.022 C 
ATOM      8  C   UNL     1      -2.867  -4.427  -0.384  0.00  0.00    +0.025 C 
ATOM      9  C   UNL     1      -3.934  -5.519  -0.273  0.00  0.00    +0.138 C 
ATOM     10  O   UNL     1      -3.668  -6.716  -0.381  0.00  0.00    -0.297 OA
ATOM     11  C   UNL     1      -5.369  -5.061  -0.022  0.00  0.00    +0.012 C 
ATOM     12  C   UNL     1      -5.647  -3.647  -0.589  0.00  0.00    -0.012 C 
ATOM     13  C   UNL     1      -5.589  -3.759  -2.140  0.00  0.00    -0.058 C 
ATOM     14  C   UNL     1      -7.071  -3.040  -0.239  0.00  0.00    +0.018 C 
ATOM     15  C   UNL     1      -6.877  -2.017   0.896  0.00  0.00    +0.108 C 
ATOM     16  C   UNL     1      -5.413  -2.113   1.301  0.00  0.00    -0.009 C 
ATOM     17  C   UNL     1      -4.628  -2.612   0.056  0.00  0.00    -0.019 C 
ATOM     18  C   UNL     1      -4.335  -1.425  -0.882  0.00  0.00    -0.059 C 
ATOM     19  C   UNL     1      -3.298  -3.294   0.563  0.00  0.00    -0.025 C 
ATOM     20  C   UNL     1      -2.181  -2.350   1.058  0.00  0.00    -0.048 C 
ATOM     21  C   UNL     1      -1.163  -1.758   0.074  0.00  0.00    -0.046 C 
ATOM     22  C   UNL     1      -0.613  -2.669  -1.039  0.00  0.00    -0.009 C 
ATOM     23  C   UNL     1       0.580  -2.082  -1.894  0.00  0.00    +0.031 C 
ATOM     24  C   UNL     1       0.553  -2.793  -3.279  0.00  0.00    -0.054 C 
ATOM     25  C   UNL     1       0.473  -0.578  -2.174  0.00  0.00    +0.099 C 
ATOM     26  O   UNL     1       0.851   0.260  -1.075  0.00  0.00    -0.479 OA
ENDROOT
BRANCH   1  28
ATOM     27  C   UNL     1       3.504   0.754   1.323  0.00  0.00    -0.054 C 
ATOM     28  C   UNL     1       2.037   0.820   0.904  0.00  0.00    +0.029 C 
ATOM     29  C   UNL     1       1.115   0.631   2.102  0.00  0.00    -0.054 C 
ENDBRANCH   1  28
BRANCH  14  30
ATOM     30  C   UNL     1      -8.283  -4.019  -0.092  0.00  0.00    +0.014 C 
ATOM     31  C   UNL     1      -9.605  -3.233   0.003  0.00  0.00    -0.049 C 
BRANCH  30  32
ATOM     32  N   UNL     1      -8.142  -5.085   0.923  0.00  0.00    -0.305 N 
ATOM     33  C   UNL     1      -8.894  -6.288   0.544  0.00  0.00    -0.013 C 
ATOM     34  C   UNL     1      -8.466  -4.730   2.303  0.00  0.00    -0.013 C 
ATOM     35  H   UNL     1      -7.137  -5.260   0.923  0.00  0.00    +0.000 HD
ENDBRANCH  30  32
ENDBRANCH  14  30
BRANCH  15  36
ATOM     36  O   UNL     1      -7.156  -0.703   0.361  0.00  0.00    -0.461 OA
BRANCH  36  37
ATOM     37  C   UNL     1      -7.375   0.290   1.269  0.00  0.00    +0.313 C 
ATOM     38  O   UNL     1      -7.370   0.129   2.483  0.00  0.00    -0.250 OA
BRANCH  37  39
ATOM     39  C   UNL     1      -7.678   1.615   0.566  0.00  0.00    +0.059 C 
ATOM     40  C   UNL     1      -6.682   1.862  -0.577  0.00  0.00    -0.050 C 
ATOM     41  C   UNL     1      -7.558   2.765   1.578  0.00  0.00    -0.050 C 
ATOM     42  C   UNL     1      -9.110   1.558   0.021  0.00  0.00    -0.050 C 
ENDBRANCH  37  39
ENDBRANCH  36  37
ENDBRANCH  15  36
TORSDOF 6
