REMARK  Name = cpd89.pdb
REMARK  8 active torsions:
REMARK  status: ('A' for Active; 'I' for Inactive)
REMARK    1  A    between atoms: C_1  and  N_2
REMARK    2  A    between atoms: N_2  and  C_3
REMARK    3  A    between atoms: C_4  and  O_6
REMARK    4  A    between atoms: O_6  and  C_7
REMARK    5  A    between atoms: C_11  and  N_12
REMARK    6  A    between atoms: N_12  and  C_13
REMARK    7  A    between atoms: N_12  and  C_14
REMARK    8  A    between atoms: N_12  and  C_15
REMARK                            x       y       z     vdW  Elec       q    Type
REMARK                         _______ _______ _______ _____ _____    ______ ____
ROOT
ATOM      1  C   UNL A   1      -3.276  -1.019   1.144  0.00  0.00    +0.135 A 
ATOM      2  C   UNL A   1      -3.952  -0.973  -0.074  0.00  0.00    -0.019 A 
ATOM      3  C   UNL A   1      -3.246  -0.963  -1.271  0.00  0.00    -0.057 A 
ATOM      4  C   UNL A   1      -1.846  -0.984  -1.259  0.00  0.00    -0.042 A 
ATOM      5  C   UNL A   1      -1.000  -1.000   0.000  0.00  0.00    +0.019 A 
ATOM      6  C   UNL A   1      -1.877  -1.011   1.223  0.00  0.00    +0.001 A 
ENDROOT
BRANCH   5   7
ATOM      7  N   UNL A   1       0.000  -1.000   0.000  0.00  0.00    -0.390 NA
ATOM      8  C   UNL A   1       0.000  -2.000   0.000  0.00  0.00    -0.015 C 
ATOM      9  C   UNL A   1       1.000  -1.000   0.000  0.00  0.00    -0.015 C 
ATOM     10  C   UNL A   1       0.000   0.000   0.000  0.00  0.00    -0.015 C 
ENDBRANCH   5   7
BRANCH   1  11
ATOM     11  O   UNL A   1      -4.035  -1.045   2.316  0.00  0.00    -0.411 OA
BRANCH  11  15
ATOM     12  C   UNL A   1      -6.029  -1.220   4.145  0.00  0.00    +0.006 C 
ATOM     13  N   UNL A   1      -5.275  -2.393   3.732  0.00  0.00    -0.273 N 
ATOM     14  C   UNL A   1      -5.823  -3.683   4.110  0.00  0.00    +0.006 C 
ATOM     15  C   UNL A   1      -4.308  -2.346   2.739  0.00  0.00    +0.408 C 
ATOM     16  O   UNL A   1      -3.751  -3.336   2.272  0.00  0.00    -0.226 OA
ENDBRANCH  11  15
ENDBRANCH   1  11
TORSDOF 3
