@<TRIPOS>MOLECULE
*****
 16 16 0 0 0
SMALL
GASTEIGER

@<TRIPOS>ATOM
      1 C          -4.0000   -1.0000    0.0000 C.3     1  UNL1        0.1184
      2 N          -4.5000   -1.8660    0.0000 N.am    1  UNL1       -0.2422
      3 C          -5.5000   -1.8660    0.0000 C.3     1  UNL1        0.1184
      4 C          -4.0000   -2.7321    0.0000 C.2     1  UNL1        0.4095
      5 O          -4.5000   -3.5981    0.0000 O.2     1  UNL1       -0.2258
      6 O          -3.0000   -2.7321    0.0000 O.3     1  UNL1       -0.4099
      7 C          -2.5000   -1.8660    0.0000 C.ar    1  UNL1        0.1558
      8 C          -3.0000   -1.0000    0.0000 C.ar    1  UNL1        0.0381
      9 C          -2.5000   -0.1340    0.0000 C.ar    1  UNL1        0.0090
     10 C          -1.5000   -0.1340    0.0000 C.ar    1  UNL1        0.0632
     11 C          -1.0000   -1.0000    0.0000 C.ar    1  UNL1        0.1690
     12 N           0.0000   -1.0000    0.0000 N.pl3   1  UNL1       -0.3099
     13 C          -0.0000   -2.0000    0.0000 C.3     1  UNL1        0.3353
     14 C           1.0000   -1.0000    0.0000 C.3     1  UNL1        0.3353
     15 C           0.0000   -0.0000    0.0000 C.3     1  UNL1        0.3353
     16 C          -1.5000   -1.8660    0.0000 C.ar    1  UNL1        0.1005
@<TRIPOS>UNITY_ATOM_ATTR
12 1
charge 1
@<TRIPOS>BOND
     1     1     2    1
     2     2     3    1
     3     2     4   am
     4     4     5    2
     5     4     6    1
     6     6     7    1
     7     7     8   ar
     8     8     9   ar
     9     9    10   ar
    10    10    11   ar
    11    11    12    1
    12    12    13    1
    13    12    14    1
    14    12    15    1
    15    11    16   ar
    16     7    16   ar
