MODEL 1
REMARK VINA RESULT:    -8.750      0.000      0.000
REMARK INTER + INTRA:         -12.664
REMARK INTER:                 -10.796
REMARK INTRA:                  -1.868
REMARK UNBOUND:                -1.868
REMARK  Name = cpd352.pdb
REMARK  4 active torsions:
REMARK  status: ('A' for Active; 'I' for Inactive)
REMARK    1  A    between atoms: C_5  and  C_6
REMARK    2  A    between atoms: C_6  and  N_7
REMARK    3  A    between atoms: C_11  and  C_12
REMARK    4  A    between atoms: C_12  and  N_13
REMARK                            x       y       z     vdW  Elec       q    Type
REMARK                         _______ _______ _______ _____ _____    ______ ____
ROOT
ATOM      1  N   UNL A   1      33.315 -37.344 -32.518  0.00  0.00    -0.349 N 
ATOM      2  C   UNL A   1      32.199 -36.682 -32.903  0.00  0.00    +0.005 A 
ATOM      3  C   UNL A   1      32.101 -35.308 -32.733  0.00  0.00    -0.045 A 
ATOM      4  C   UNL A   1      33.166 -34.612 -32.172  0.00  0.00    -0.054 A 
ATOM      5  C   UNL A   1      34.326 -35.292 -31.796  0.00  0.00    -0.012 A 
ATOM      6  C   UNL A   1      34.362 -36.680 -31.976  0.00  0.00    +0.010 A 
ENDROOT
BRANCH   1   7
ATOM      7  C   UNL A   1      33.397 -38.816 -32.707  0.00  0.00    +0.048 C 
BRANCH   7  12
ATOM      8  F   UNL A   1      35.767 -41.323 -28.241  0.00  0.00    -0.205 F 
ATOM      9  C   UNL A   1      35.205 -40.724 -29.298  0.00  0.00    +0.123 A 
ATOM     10  C   UNL A   1      33.914 -40.225 -29.196  0.00  0.00    -0.026 A 
ATOM     11  C   UNL A   1      33.324 -39.600 -30.295  0.00  0.00    -0.054 A 
ATOM     12  C   UNL A   1      34.027 -39.484 -31.509  0.00  0.00    -0.028 A 
ATOM     13  C   UNL A   1      35.337 -39.986 -31.586  0.00  0.00    -0.054 A 
ATOM     14  C   UNL A   1      35.923 -40.608 -30.481  0.00  0.00    -0.026 A 
ENDBRANCH   7  12
ENDBRANCH   1   7
BRANCH   5  15
ATOM     15  C   UNL A   1      35.471 -34.529 -31.161  0.00  0.00    +0.050 C 
BRANCH  15  16
ATOM     16  N   UNL A   1      36.445 -35.418 -30.535  0.00  0.00    -0.339 N 
ATOM     17  C   UNL A   1      37.693 -35.700 -31.030  0.00  0.00    +0.023 A 
ATOM     18  C   UNL A   1      38.277 -36.648 -30.213  0.00  0.00    -0.019 A 
ATOM     19  C   UNL A   1      37.346 -36.966 -29.187  0.00  0.00    +0.003 A 
ATOM     20  C   UNL A   1      37.367 -37.854 -28.094  0.00  0.00    -0.052 A 
ATOM     21  C   UNL A   1      36.266 -37.922 -27.236  0.00  0.00    -0.061 A 
ATOM     22  C   UNL A   1      35.153 -37.116 -27.449  0.00  0.00    -0.060 A 
ATOM     23  C   UNL A   1      35.106 -36.224 -28.526  0.00  0.00    -0.038 A 
ATOM     24  C   UNL A   1      36.214 -36.167 -29.390  0.00  0.00    +0.050 A 
ATOM     25  C   UNL A   1      39.649 -37.188 -30.450  0.00  0.00    -0.025 C 
ATOM     26  C   UNL A   1      40.443 -36.283 -31.409  0.00  0.00    -0.049 C 
ATOM     27  C   UNL A   1      39.600 -35.853 -32.621  0.00  0.00    -0.047 C 
ATOM     28  C   UNL A   1      38.350 -35.056 -32.208  0.00  0.00    -0.012 C 
ENDBRANCH  15  16
ENDBRANCH   5  15
TORSDOF 4
ENDMDL
MODEL 2
REMARK VINA RESULT:    -7.806      2.509      4.689
REMARK INTER + INTRA:         -11.499
REMARK INTER:                 -10.222
REMARK INTRA:                  -1.277
REMARK UNBOUND:                -1.868
REMARK  Name = cpd352.pdb
REMARK  4 active torsions:
REMARK  status: ('A' for Active; 'I' for Inactive)
REMARK    1  A    between atoms: C_5  and  C_6
REMARK    2  A    between atoms: C_6  and  N_7
REMARK    3  A    between atoms: C_11  and  C_12
REMARK    4  A    between atoms: C_12  and  N_13
REMARK                            x       y       z     vdW  Elec       q    Type
REMARK                         _______ _______ _______ _____ _____    ______ ____
ROOT
ATOM      1  N   UNL A   1      33.529 -34.659 -29.818  0.00  0.00    -0.349 N 
ATOM      2  C   UNL A   1      33.924 -33.391 -29.562  0.00  0.00    +0.005 A 
ATOM      3  C   UNL A   1      35.128 -32.912 -30.061  0.00  0.00    -0.045 A 
ATOM      4  C   UNL A   1      35.924 -33.746 -30.838  0.00  0.00    -0.054 A 
ATOM      5  C   UNL A   1      35.505 -35.048 -31.120  0.00  0.00    -0.012 A 
ATOM      6  C   UNL A   1      34.290 -35.481 -30.578  0.00  0.00    +0.010 A 
ENDROOT
BRANCH   1   7
ATOM      7  C   UNL A   1      32.237 -35.150 -29.273  0.00  0.00    +0.048 C 
BRANCH   7  12
ATOM      8  F   UNL A   1      32.930 -37.467 -24.174  0.00  0.00    -0.205 F 
ATOM      9  C   UNL A   1      32.769 -36.914 -25.382  0.00  0.00    +0.123 A 
ATOM     10  C   UNL A   1      32.151 -35.675 -25.491  0.00  0.00    -0.026 A 
ATOM     11  C   UNL A   1      31.981 -35.095 -26.750  0.00  0.00    -0.054 A 
ATOM     12  C   UNL A   1      32.422 -35.764 -27.907  0.00  0.00    -0.028 A 
ATOM     13  C   UNL A   1      33.054 -37.011 -27.771  0.00  0.00    -0.054 A 
ATOM     14  C   UNL A   1      33.224 -37.585 -26.509  0.00  0.00    -0.026 A 
ENDBRANCH   7  12
ENDBRANCH   1   7
BRANCH   5  15
ATOM     15  C   UNL A   1      36.392 -35.959 -31.946  0.00  0.00    +0.050 C 
BRANCH  15  16
ATOM     16  N   UNL A   1      37.510 -36.489 -31.171  0.00  0.00    -0.339 N 
ATOM     17  C   UNL A   1      37.413 -37.449 -30.195  0.00  0.00    +0.023 A 
ATOM     18  C   UNL A   1      38.663 -37.617 -29.631  0.00  0.00    -0.019 A 
ATOM     19  C   UNL A   1      39.553 -36.718 -30.278  0.00  0.00    +0.003 A 
ATOM     20  C   UNL A   1      40.923 -36.429 -30.128  0.00  0.00    -0.052 A 
ATOM     21  C   UNL A   1      41.524 -35.475 -30.953  0.00  0.00    -0.061 A 
ATOM     22  C   UNL A   1      40.781 -34.814 -31.926  0.00  0.00    -0.060 A 
ATOM     23  C   UNL A   1      39.419 -35.082 -32.098  0.00  0.00    -0.038 A 
ATOM     24  C   UNL A   1      38.819 -36.038 -31.257  0.00  0.00    +0.050 A 
ATOM     25  C   UNL A   1      38.930 -38.594 -28.533  0.00  0.00    -0.025 C 
ATOM     26  C   UNL A   1      37.799 -39.631 -28.426  0.00  0.00    -0.049 C 
ATOM     27  C   UNL A   1      36.409 -38.975 -28.506  0.00  0.00    -0.047 C 
ATOM     28  C   UNL A   1      36.193 -38.233 -29.837  0.00  0.00    -0.012 C 
ENDBRANCH  15  16
ENDBRANCH   5  15
TORSDOF 4
ENDMDL
MODEL 3
REMARK VINA RESULT:    -7.702      2.001      4.786
REMARK INTER + INTRA:         -11.372
REMARK INTER:                 -10.579
REMARK INTRA:                  -0.792
REMARK UNBOUND:                -1.868
REMARK  Name = cpd352.pdb
REMARK  4 active torsions:
REMARK  status: ('A' for Active; 'I' for Inactive)
REMARK    1  A    between atoms: C_5  and  C_6
REMARK    2  A    between atoms: C_6  and  N_7
REMARK    3  A    between atoms: C_11  and  C_12
REMARK    4  A    between atoms: C_12  and  N_13
REMARK                            x       y       z     vdW  Elec       q    Type
REMARK                         _______ _______ _______ _____ _____    ______ ____
ROOT
ATOM      1  N   UNL A   1      36.880 -34.978 -31.400  0.00  0.00    -0.349 N 
ATOM      2  C   UNL A   1      36.606 -33.672 -31.177  0.00  0.00    +0.005 A 
ATOM      3  C   UNL A   1      35.360 -33.284 -30.704  0.00  0.00    -0.045 A 
ATOM      4  C   UNL A   1      34.395 -34.251 -30.449  0.00  0.00    -0.054 A 
ATOM      5  C   UNL A   1      34.686 -35.601 -30.658  0.00  0.00    -0.012 A 
ATOM      6  C   UNL A   1      35.953 -35.932 -31.151  0.00  0.00    +0.010 A 
ENDROOT
BRANCH   1   7
ATOM      7  C   UNL A   1      38.220 -35.371 -31.908  0.00  0.00    +0.048 C 
BRANCH   7  12
ATOM      8  F   UNL A   1      40.911 -38.713 -28.243  0.00  0.00    -0.205 F 
ATOM      9  C   UNL A   1      40.272 -37.917 -29.109  0.00  0.00    +0.123 A 
ATOM     10  C   UNL A   1      38.889 -37.814 -29.051  0.00  0.00    -0.026 A 
ATOM     11  C   UNL A   1      38.218 -36.986 -29.952  0.00  0.00    -0.054 A 
ATOM     12  C   UNL A   1      38.935 -36.265 -30.924  0.00  0.00    -0.028 A 
ATOM     13  C   UNL A   1      40.335 -36.375 -30.957  0.00  0.00    -0.054 A 
ATOM     14  C   UNL A   1      41.001 -37.204 -30.051  0.00  0.00    -0.026 A 
ENDBRANCH   7  12
ENDBRANCH   1   7
BRANCH   5  15
ATOM     15  C   UNL A   1      33.618 -36.647 -30.403  0.00  0.00    +0.050 C 
BRANCH  15  16
ATOM     16  N   UNL A   1      34.026 -37.612 -29.386  0.00  0.00    -0.339 N 
ATOM     17  C   UNL A   1      34.618 -38.825 -29.637  0.00  0.00    +0.023 A 
ATOM     18  C   UNL A   1      34.767 -39.488 -28.435  0.00  0.00    -0.019 A 
ATOM     19  C   UNL A   1      34.236 -38.656 -27.414  0.00  0.00    +0.003 A 
ATOM     20  C   UNL A   1      34.096 -38.795 -26.019  0.00  0.00    -0.052 A 
ATOM     21  C   UNL A   1      33.529 -37.759 -25.273  0.00  0.00    -0.061 A 
ATOM     22  C   UNL A   1      33.108 -36.589 -25.896  0.00  0.00    -0.060 A 
ATOM     23  C   UNL A   1      33.235 -36.423 -27.279  0.00  0.00    -0.038 A 
ATOM     24  C   UNL A   1      33.799 -37.475 -28.025  0.00  0.00    +0.050 A 
ATOM     25  C   UNL A   1      35.386 -40.844 -28.331  0.00  0.00    -0.025 C 
ATOM     26  C   UNL A   1      36.183 -41.190 -29.601  0.00  0.00    -0.049 C 
ATOM     27  C   UNL A   1      35.407 -40.831 -30.880  0.00  0.00    -0.047 C 
ATOM     28  C   UNL A   1      35.088 -39.328 -30.964  0.00  0.00    -0.012 C 
ENDBRANCH  15  16
ENDBRANCH   5  15
TORSDOF 4
ENDMDL
MODEL 4
REMARK VINA RESULT:    -7.613      2.292      6.013
REMARK INTER + INTRA:         -11.262
REMARK INTER:                 -10.023
REMARK INTRA:                  -1.238
REMARK UNBOUND:                -1.868
REMARK  Name = cpd352.pdb
REMARK  4 active torsions:
REMARK  status: ('A' for Active; 'I' for Inactive)
REMARK    1  A    between atoms: C_5  and  C_6
REMARK    2  A    between atoms: C_6  and  N_7
REMARK    3  A    between atoms: C_11  and  C_12
REMARK    4  A    between atoms: C_12  and  N_13
REMARK                            x       y       z     vdW  Elec       q    Type
REMARK                         _______ _______ _______ _____ _____    ______ ____
ROOT
ATOM      1  N   UNL A   1      36.581 -38.686 -28.524  0.00  0.00    -0.349 N 
ATOM      2  C   UNL A   1      36.597 -39.949 -29.007  0.00  0.00    +0.005 A 
ATOM      3  C   UNL A   1      35.468 -40.489 -29.608  0.00  0.00    -0.045 A 
ATOM      4  C   UNL A   1      34.318 -39.715 -29.719  0.00  0.00    -0.054 A 
ATOM      5  C   UNL A   1      34.309 -38.403 -29.239  0.00  0.00    -0.012 A 
ATOM      6  C   UNL A   1      35.471 -37.918 -28.629  0.00  0.00    +0.010 A 
ENDROOT
BRANCH   1   7
ATOM      7  C   UNL A   1      37.801 -38.129 -27.883  0.00  0.00    +0.048 C 
BRANCH   7  12
ATOM      8  F   UNL A   1      41.792 -36.992 -31.708  0.00  0.00    -0.205 F 
ATOM      9  C   UNL A   1      40.843 -37.264 -30.804  0.00  0.00    +0.123 A 
ATOM     10  C   UNL A   1      39.562 -36.759 -30.982  0.00  0.00    -0.026 A 
ATOM     11  C   UNL A   1      38.570 -37.041 -30.042  0.00  0.00    -0.054 A 
ATOM     12  C   UNL A   1      38.864 -37.823 -28.910  0.00  0.00    -0.028 A 
ATOM     13  C   UNL A   1      40.164 -38.334 -28.756  0.00  0.00    -0.054 A 
ATOM     14  C   UNL A   1      41.152 -38.051 -29.702  0.00  0.00    -0.026 A 
ENDBRANCH   7  12
ENDBRANCH   1   7
BRANCH   5  15
ATOM     15  C   UNL A   1      33.043 -37.576 -29.341  0.00  0.00    +0.050 C 
BRANCH  15  16
ATOM     16  N   UNL A   1      33.096 -36.622 -30.445  0.00  0.00    -0.339 N 
ATOM     17  C   UNL A   1      32.783 -36.903 -31.751  0.00  0.00    +0.023 A 
ATOM     18  C   UNL A   1      33.044 -35.779 -32.509  0.00  0.00    -0.019 A 
ATOM     19  C   UNL A   1      33.548 -34.777 -31.635  0.00  0.00    +0.003 A 
ATOM     20  C   UNL A   1      33.992 -33.455 -31.825  0.00  0.00    -0.052 A 
ATOM     21  C   UNL A   1      34.424 -32.705 -30.728  0.00  0.00    -0.061 A 
ATOM     22  C   UNL A   1      34.412 -33.253 -29.450  0.00  0.00    -0.060 A 
ATOM     23  C   UNL A   1      33.975 -34.563 -29.232  0.00  0.00    -0.038 A 
ATOM     24  C   UNL A   1      33.549 -35.315 -30.343  0.00  0.00    +0.050 A 
ATOM     25  C   UNL A   1      32.812 -35.725 -33.983  0.00  0.00    -0.025 C 
ATOM     26  C   UNL A   1      31.888 -36.866 -34.441  0.00  0.00    -0.049 C 
ATOM     27  C   UNL A   1      32.280 -38.212 -33.807  0.00  0.00    -0.047 C 
ATOM     28  C   UNL A   1      32.196 -38.176 -32.271  0.00  0.00    -0.012 C 
ENDBRANCH  15  16
ENDBRANCH   5  15
TORSDOF 4
ENDMDL
MODEL 5
REMARK VINA RESULT:    -7.526     16.885     20.480
REMARK INTER + INTRA:         -11.154
REMARK INTER:                  -9.575
REMARK INTRA:                  -1.579
REMARK UNBOUND:                -1.868
REMARK  Name = cpd352.pdb
REMARK  4 active torsions:
REMARK  status: ('A' for Active; 'I' for Inactive)
REMARK    1  A    between atoms: C_5  and  C_6
REMARK    2  A    between atoms: C_6  and  N_7
REMARK    3  A    between atoms: C_11  and  C_12
REMARK    4  A    between atoms: C_12  and  N_13
REMARK                            x       y       z     vdW  Elec       q    Type
REMARK                         _______ _______ _______ _____ _____    ______ ____
ROOT
ATOM      1  N   UNL A   1      46.157 -19.744 -37.250  0.00  0.00    -0.349 N 
ATOM      2  C   UNL A   1      46.566 -20.205 -36.046  0.00  0.00    +0.005 A 
ATOM      3  C   UNL A   1      45.663 -20.350 -35.002  0.00  0.00    -0.045 A 
ATOM      4  C   UNL A   1      44.326 -20.027 -35.206  0.00  0.00    -0.054 A 
ATOM      5  C   UNL A   1      43.900 -19.572 -36.456  0.00  0.00    -0.012 A 
ATOM      6  C   UNL A   1      44.858 -19.430 -37.466  0.00  0.00    +0.010 A 
ENDROOT
BRANCH   1   7
ATOM      7  C   UNL A   1      47.141 -19.594 -38.353  0.00  0.00    +0.048 C 
BRANCH   7  12
ATOM      8  F   UNL A   1      45.560 -22.540 -42.900  0.00  0.00    -0.205 F 
ATOM      9  C   UNL A   1      45.931 -21.839 -41.821  0.00  0.00    +0.123 A 
ATOM     10  C   UNL A   1      46.082 -20.463 -41.918  0.00  0.00    -0.026 A 
ATOM     11  C   UNL A   1      46.469 -19.728 -40.795  0.00  0.00    -0.054 A 
ATOM     12  C   UNL A   1      46.716 -20.377 -39.571  0.00  0.00    -0.028 A 
ATOM     13  C   UNL A   1      46.545 -21.769 -39.493  0.00  0.00    -0.054 A 
ATOM     14  C   UNL A   1      46.156 -22.498 -40.620  0.00  0.00    -0.026 A 
ENDBRANCH   7  12
ENDBRANCH   1   7
BRANCH   5  15
ATOM     15  C   UNL A   1      42.445 -19.198 -36.662  0.00  0.00    +0.050 C 
BRANCH  15  16
ATOM     16  N   UNL A   1      41.624 -20.353 -37.011  0.00  0.00    -0.339 N 
ATOM     17  C   UNL A   1      40.835 -21.058 -36.137  0.00  0.00    +0.023 A 
ATOM     18  C   UNL A   1      40.290 -22.129 -36.817  0.00  0.00    -0.019 A 
ATOM     19  C   UNL A   1      40.773 -22.084 -38.152  0.00  0.00    +0.003 A 
ATOM     20  C   UNL A   1      40.583 -22.900 -39.284  0.00  0.00    -0.052 A 
ATOM     21  C   UNL A   1      41.204 -22.567 -40.491  0.00  0.00    -0.061 A 
ATOM     22  C   UNL A   1      42.003 -21.432 -40.584  0.00  0.00    -0.060 A 
ATOM     23  C   UNL A   1      42.209 -20.604 -39.476  0.00  0.00    -0.038 A 
ATOM     24  C   UNL A   1      41.587 -20.951 -38.262  0.00  0.00    +0.050 A 
ATOM     25  C   UNL A   1      39.369 -23.113 -36.172  0.00  0.00    -0.025 C 
ATOM     26  C   UNL A   1      38.798 -22.557 -34.856  0.00  0.00    -0.049 C 
ATOM     27  C   UNL A   1      39.885 -21.892 -33.994  0.00  0.00    -0.047 C 
ATOM     28  C   UNL A   1      40.550 -20.705 -34.713  0.00  0.00    -0.012 C 
ENDBRANCH  15  16
ENDBRANCH   5  15
TORSDOF 4
ENDMDL
MODEL 6
REMARK VINA RESULT:    -7.511      2.031      5.409
REMARK INTER + INTRA:         -11.136
REMARK INTER:                 -10.160
REMARK INTRA:                  -0.976
REMARK UNBOUND:                -1.868
REMARK  Name = cpd352.pdb
REMARK  4 active torsions:
REMARK  status: ('A' for Active; 'I' for Inactive)
REMARK    1  A    between atoms: C_5  and  C_6
REMARK    2  A    between atoms: C_6  and  N_7
REMARK    3  A    between atoms: C_11  and  C_12
REMARK    4  A    between atoms: C_12  and  N_13
REMARK                            x       y       z     vdW  Elec       q    Type
REMARK                         _______ _______ _______ _____ _____    ______ ____
ROOT
ATOM      1  N   UNL A   1      36.648 -35.130 -31.319  0.00  0.00    -0.349 N 
ATOM      2  C   UNL A   1      36.409 -33.840 -30.991  0.00  0.00    +0.005 A 
ATOM      3  C   UNL A   1      35.188 -33.465 -30.446  0.00  0.00    -0.045 A 
ATOM      4  C   UNL A   1      34.213 -34.432 -30.228  0.00  0.00    -0.054 A 
ATOM      5  C   UNL A   1      34.469 -35.768 -30.545  0.00  0.00    -0.012 A 
ATOM      6  C   UNL A   1      35.712 -36.084 -31.107  0.00  0.00    +0.010 A 
ENDROOT
BRANCH   1   7
ATOM      7  C   UNL A   1      37.962 -35.508 -31.903  0.00  0.00    +0.048 C 
BRANCH   7  12
ATOM      8  F   UNL A   1      40.991 -38.629 -28.308  0.00  0.00    -0.205 F 
ATOM      9  C   UNL A   1      40.271 -37.886 -29.157  0.00  0.00    +0.123 A 
ATOM     10  C   UNL A   1      38.891 -37.829 -29.017  0.00  0.00    -0.026 A 
ATOM     11  C   UNL A   1      38.137 -37.055 -29.901  0.00  0.00    -0.054 A 
ATOM     12  C   UNL A   1      38.767 -36.343 -30.938  0.00  0.00    -0.028 A 
ATOM     13  C   UNL A   1      40.166 -36.405 -31.053  0.00  0.00    -0.054 A 
ATOM     14  C   UNL A   1      40.916 -37.179 -30.164  0.00  0.00    -0.026 A 
ENDBRANCH   7  12
ENDBRANCH   1   7
BRANCH   5  15
ATOM     15  C   UNL A   1      33.391 -36.811 -30.328  0.00  0.00    +0.050 C 
BRANCH  15  16
ATOM     16  N   UNL A   1      33.762 -37.780 -29.301  0.00  0.00    -0.339 N 
ATOM     17  C   UNL A   1      33.565 -37.619 -27.953  0.00  0.00    +0.023 A 
ATOM     18  C   UNL A   1      34.128 -38.700 -27.303  0.00  0.00    -0.019 A 
ATOM     19  C   UNL A   1      34.700 -39.547 -28.291  0.00  0.00    +0.003 A 
ATOM     20  C   UNL A   1      35.409 -40.763 -28.238  0.00  0.00    -0.052 A 
ATOM     21  C   UNL A   1      35.836 -41.367 -29.424  0.00  0.00    -0.061 A 
ATOM     22  C   UNL A   1      35.560 -40.781 -30.654  0.00  0.00    -0.060 A 
ATOM     23  C   UNL A   1      34.858 -39.574 -30.736  0.00  0.00    -0.038 A 
ATOM     24  C   UNL A   1      34.439 -38.967 -29.538  0.00  0.00    +0.050 A 
ATOM     25  C   UNL A   1      34.096 -38.859 -25.818  0.00  0.00    -0.025 C 
ATOM     26  C   UNL A   1      33.035 -37.941 -25.185  0.00  0.00    -0.049 C 
ATOM     27  C   UNL A   1      33.082 -36.520 -25.773  0.00  0.00    -0.047 C 
ATOM     28  C   UNL A   1      32.816 -36.509 -27.288  0.00  0.00    -0.012 C 
ENDBRANCH  15  16
ENDBRANCH   5  15
TORSDOF 4
ENDMDL
MODEL 7
REMARK VINA RESULT:    -7.483     19.038     22.301
REMARK INTER + INTRA:         -11.101
REMARK INTER:                  -9.201
REMARK INTRA:                  -1.900
REMARK UNBOUND:                -1.868
REMARK  Name = cpd352.pdb
REMARK  4 active torsions:
REMARK  status: ('A' for Active; 'I' for Inactive)
REMARK    1  A    between atoms: C_5  and  C_6
REMARK    2  A    between atoms: C_6  and  N_7
REMARK    3  A    between atoms: C_11  and  C_12
REMARK    4  A    between atoms: C_12  and  N_13
REMARK                            x       y       z     vdW  Elec       q    Type
REMARK                         _______ _______ _______ _____ _____    ______ ____
ROOT
ATOM      1  N   UNL A   1      42.799 -21.074 -38.126  0.00  0.00    -0.349 N 
ATOM      2  C   UNL A   1      41.531 -21.539 -38.051  0.00  0.00    +0.005 A 
ATOM      3  C   UNL A   1      40.823 -21.847 -39.205  0.00  0.00    -0.045 A 
ATOM      4  C   UNL A   1      41.433 -21.684 -40.443  0.00  0.00    -0.054 A 
ATOM      5  C   UNL A   1      42.750 -21.225 -40.519  0.00  0.00    -0.012 A 
ATOM      6  C   UNL A   1      43.409 -20.916 -39.324  0.00  0.00    +0.010 A 
ENDROOT
BRANCH   1   7
ATOM      7  C   UNL A   1      43.538 -20.749 -36.878  0.00  0.00    +0.048 C 
BRANCH   7  12
ATOM      8  F   UNL A   1      47.551 -16.900 -37.843  0.00  0.00    -0.205 F 
ATOM      9  C   UNL A   1      46.601 -17.815 -37.610  0.00  0.00    +0.123 A 
ATOM     10  C   UNL A   1      46.927 -19.164 -37.642  0.00  0.00    -0.026 A 
ATOM     11  C   UNL A   1      45.940 -20.120 -37.400  0.00  0.00    -0.054 A 
ATOM     12  C   UNL A   1      44.615 -19.724 -37.135  0.00  0.00    -0.028 A 
ATOM     13  C   UNL A   1      44.311 -18.353 -37.096  0.00  0.00    -0.054 A 
ATOM     14  C   UNL A   1      45.304 -17.401 -37.337  0.00  0.00    -0.026 A 
ENDBRANCH   7  12
ENDBRANCH   1   7
BRANCH   5  15
ATOM     15  C   UNL A   1      43.398 -21.026 -41.875  0.00  0.00    +0.050 C 
BRANCH  15  16
ATOM     16  N   UNL A   1      44.770 -20.540 -41.763  0.00  0.00    -0.339 N 
ATOM     17  C   UNL A   1      45.894 -21.327 -41.800  0.00  0.00    +0.023 A 
ATOM     18  C   UNL A   1      46.992 -20.521 -41.569  0.00  0.00    -0.019 A 
ATOM     19  C   UNL A   1      46.520 -19.195 -41.372  0.00  0.00    +0.003 A 
ATOM     20  C   UNL A   1      47.153 -17.969 -41.090  0.00  0.00    -0.052 A 
ATOM     21  C   UNL A   1      46.386 -16.807 -40.966  0.00  0.00    -0.061 A 
ATOM     22  C   UNL A   1      45.006 -16.851 -41.125  0.00  0.00    -0.060 A 
ATOM     23  C   UNL A   1      44.351 -18.055 -41.407  0.00  0.00    -0.038 A 
ATOM     24  C   UNL A   1      45.129 -19.222 -41.522  0.00  0.00    +0.050 A 
ATOM     25  C   UNL A   1      48.390 -21.045 -41.545  0.00  0.00    -0.025 C 
ATOM     26  C   UNL A   1      48.474 -22.432 -42.206  0.00  0.00    -0.049 C 
ATOM     27  C   UNL A   1      47.333 -23.356 -41.747  0.00  0.00    -0.047 C 
ATOM     28  C   UNL A   1      45.947 -22.789 -42.104  0.00  0.00    -0.012 C 
ENDBRANCH  15  16
ENDBRANCH   5  15
TORSDOF 4
ENDMDL
MODEL 8
REMARK VINA RESULT:    -7.342      1.296      3.646
REMARK INTER + INTRA:         -10.927
REMARK INTER:                  -9.260
REMARK INTRA:                  -1.667
REMARK UNBOUND:                -1.868
REMARK  Name = cpd352.pdb
REMARK  4 active torsions:
REMARK  status: ('A' for Active; 'I' for Inactive)
REMARK    1  A    between atoms: C_5  and  C_6
REMARK    2  A    between atoms: C_6  and  N_7
REMARK    3  A    between atoms: C_11  and  C_12
REMARK    4  A    between atoms: C_12  and  N_13
REMARK                            x       y       z     vdW  Elec       q    Type
REMARK                         _______ _______ _______ _____ _____    ______ ____
ROOT
ATOM      1  N   UNL A   1      33.180 -37.956 -32.619  0.00  0.00    -0.349 N 
ATOM      2  C   UNL A   1      32.567 -37.282 -33.619  0.00  0.00    +0.005 A 
ATOM      3  C   UNL A   1      32.589 -35.895 -33.652  0.00  0.00    -0.045 A 
ATOM      4  C   UNL A   1      33.258 -35.199 -32.651  0.00  0.00    -0.054 A 
ATOM      5  C   UNL A   1      33.910 -35.896 -31.631  0.00  0.00    -0.012 A 
ATOM      6  C   UNL A   1      33.840 -37.293 -31.641  0.00  0.00    +0.010 A 
ENDROOT
BRANCH   1   7
ATOM      7  C   UNL A   1      33.142 -39.442 -32.602  0.00  0.00    +0.048 C 
BRANCH   7  12
ATOM      8  F   UNL A   1      36.407 -41.504 -28.487  0.00  0.00    -0.205 F 
ATOM      9  C   UNL A   1      35.632 -41.020 -29.465  0.00  0.00    +0.123 A 
ATOM     10  C   UNL A   1      36.130 -40.944 -30.759  0.00  0.00    -0.026 A 
ATOM     11  C   UNL A   1      35.326 -40.439 -31.782  0.00  0.00    -0.054 A 
ATOM     12  C   UNL A   1      34.019 -39.996 -31.506  0.00  0.00    -0.028 A 
ATOM     13  C   UNL A   1      33.532 -40.092 -30.192  0.00  0.00    -0.054 A 
ATOM     14  C   UNL A   1      34.341 -40.601 -29.173  0.00  0.00    -0.026 A 
ENDBRANCH   7  12
ENDBRANCH   1   7
BRANCH   5  15
ATOM     15  C   UNL A   1      34.615 -35.128 -30.530  0.00  0.00    +0.050 C 
BRANCH  15  16
ATOM     16  N   UNL A   1      35.025 -35.996 -29.430  0.00  0.00    -0.339 N 
ATOM     17  C   UNL A   1      34.298 -36.227 -28.290  0.00  0.00    +0.023 A 
ATOM     18  C   UNL A   1      35.052 -37.023 -27.451  0.00  0.00    -0.019 A 
ATOM     19  C   UNL A   1      36.292 -37.279 -28.098  0.00  0.00    +0.003 A 
ATOM     20  C   UNL A   1      37.446 -38.001 -27.739  0.00  0.00    -0.052 A 
ATOM     21  C   UNL A   1      38.520 -38.077 -28.630  0.00  0.00    -0.061 A 
ATOM     22  C   UNL A   1      38.455 -37.451 -29.870  0.00  0.00    -0.060 A 
ATOM     23  C   UNL A   1      37.320 -36.728 -30.253  0.00  0.00    -0.038 A 
ATOM     24  C   UNL A   1      36.246 -36.649 -29.347  0.00  0.00    +0.050 A 
ATOM     25  C   UNL A   1      34.567 -37.479 -26.114  0.00  0.00    -0.025 C 
ATOM     26  C   UNL A   1      33.042 -37.319 -25.994  0.00  0.00    -0.049 C 
ATOM     27  C   UNL A   1      32.564 -35.956 -26.525  0.00  0.00    -0.047 C 
ATOM     28  C   UNL A   1      32.904 -35.761 -28.013  0.00  0.00    -0.012 C 
ENDBRANCH  15  16
ENDBRANCH   5  15
TORSDOF 4
ENDMDL
MODEL 9
REMARK VINA RESULT:    -7.177     18.204     20.821
REMARK INTER + INTRA:         -10.724
REMARK INTER:                  -9.476
REMARK INTRA:                  -1.248
REMARK UNBOUND:                -1.868
REMARK  Name = cpd352.pdb
REMARK  4 active torsions:
REMARK  status: ('A' for Active; 'I' for Inactive)
REMARK    1  A    between atoms: C_5  and  C_6
REMARK    2  A    between atoms: C_6  and  N_7
REMARK    3  A    between atoms: C_11  and  C_12
REMARK    4  A    between atoms: C_12  and  N_13
REMARK                            x       y       z     vdW  Elec       q    Type
REMARK                         _______ _______ _______ _____ _____    ______ ____
ROOT
ATOM      1  N   UNL A   1      43.406 -20.858 -41.480  0.00  0.00    -0.349 N 
ATOM      2  C   UNL A   1      42.460 -21.825 -41.491  0.00  0.00    +0.005 A 
ATOM      3  C   UNL A   1      41.493 -21.877 -40.496  0.00  0.00    -0.045 A 
ATOM      4  C   UNL A   1      41.499 -20.918 -39.490  0.00  0.00    -0.054 A 
ATOM      5  C   UNL A   1      42.462 -19.907 -39.491  0.00  0.00    -0.012 A 
ATOM      6  C   UNL A   1      43.421 -19.914 -40.511  0.00  0.00    +0.010 A 
ENDROOT
BRANCH   1   7
ATOM      7  C   UNL A   1      44.433 -20.823 -42.555  0.00  0.00    +0.048 C 
BRANCH   7  12
ATOM      8  F   UNL A   1      49.265 -23.173 -40.829  0.00  0.00    -0.205 F 
ATOM      9  C   UNL A   1      48.116 -22.619 -41.237  0.00  0.00    +0.123 A 
ATOM     10  C   UNL A   1      47.367 -23.244 -42.224  0.00  0.00    -0.026 A 
ATOM     11  C   UNL A   1      46.169 -22.670 -42.652  0.00  0.00    -0.054 A 
ATOM     12  C   UNL A   1      45.723 -21.457 -42.096  0.00  0.00    -0.028 A 
ATOM     13  C   UNL A   1      46.492 -20.847 -41.089  0.00  0.00    -0.054 A 
ATOM     14  C   UNL A   1      47.688 -21.429 -40.664  0.00  0.00    -0.026 A 
ENDBRANCH   7  12
ENDBRANCH   1   7
BRANCH   5  15
ATOM     15  C   UNL A   1      42.475 -18.881 -38.375  0.00  0.00    +0.050 C 
BRANCH  15  16
ATOM     16  N   UNL A   1      42.906 -19.456 -37.105  0.00  0.00    -0.339 N 
ATOM     17  C   UNL A   1      42.078 -19.771 -36.056  0.00  0.00    +0.023 A 
ATOM     18  C   UNL A   1      42.861 -20.202 -35.003  0.00  0.00    -0.019 A 
ATOM     19  C   UNL A   1      44.218 -20.137 -35.420  0.00  0.00    +0.003 A 
ATOM     20  C   UNL A   1      45.444 -20.428 -34.790  0.00  0.00    -0.052 A 
ATOM     21  C   UNL A   1      46.640 -20.270 -35.497  0.00  0.00    -0.061 A 
ATOM     22  C   UNL A   1      46.627 -19.834 -36.817  0.00  0.00    -0.060 A 
ATOM     23  C   UNL A   1      45.425 -19.538 -37.467  0.00  0.00    -0.038 A 
ATOM     24  C   UNL A   1      44.226 -19.692 -36.747  0.00  0.00    +0.050 A 
ATOM     25  C   UNL A   1      42.289 -20.634 -33.693  0.00  0.00    -0.025 C 
ATOM     26  C   UNL A   1      40.785 -20.934 -33.817  0.00  0.00    -0.049 C 
ATOM     27  C   UNL A   1      40.047 -19.850 -34.621  0.00  0.00    -0.047 C 
ATOM     28  C   UNL A   1      40.584 -19.725 -36.058  0.00  0.00    -0.012 C 
ENDBRANCH  15  16
ENDBRANCH   5  15
TORSDOF 4
ENDMDL
MODEL 10
REMARK VINA RESULT:    -7.068     18.809     22.173
REMARK INTER + INTRA:         -10.588
REMARK INTER:                  -8.954
REMARK INTRA:                  -1.635
REMARK UNBOUND:                -1.868
REMARK  Name = cpd352.pdb
REMARK  4 active torsions:
REMARK  status: ('A' for Active; 'I' for Inactive)
REMARK    1  A    between atoms: C_5  and  C_6
REMARK    2  A    between atoms: C_6  and  N_7
REMARK    3  A    between atoms: C_11  and  C_12
REMARK    4  A    between atoms: C_12  and  N_13
REMARK                            x       y       z     vdW  Elec       q    Type
REMARK                         _______ _______ _______ _____ _____    ______ ____
ROOT
ATOM      1  N   UNL A   1      42.877 -21.014 -37.504  0.00  0.00    -0.349 N 
ATOM      2  C   UNL A   1      41.615 -21.483 -37.377  0.00  0.00    +0.005 A 
ATOM      3  C   UNL A   1      40.885 -21.855 -38.498  0.00  0.00    -0.045 A 
ATOM      4  C   UNL A   1      41.467 -21.752 -39.756  0.00  0.00    -0.054 A 
ATOM      5  C   UNL A   1      42.778 -21.288 -39.884  0.00  0.00    -0.012 A 
ATOM      6  C   UNL A   1      43.460 -20.912 -38.721  0.00  0.00    +0.010 A 
ENDROOT
BRANCH   1   7
ATOM      7  C   UNL A   1      43.640 -20.619 -36.290  0.00  0.00    +0.048 C 
BRANCH   7  12
ATOM      8  F   UNL A   1      47.742 -16.963 -37.576  0.00  0.00    -0.205 F 
ATOM      9  C   UNL A   1      46.772 -17.832 -37.267  0.00  0.00    +0.123 A 
ATOM     10  C   UNL A   1      47.060 -19.188 -37.205  0.00  0.00    -0.026 A 
ATOM     11  C   UNL A   1      46.051 -20.097 -36.884  0.00  0.00    -0.054 A 
ATOM     12  C   UNL A   1      44.741 -19.646 -36.632  0.00  0.00    -0.028 A 
ATOM     13  C   UNL A   1      44.475 -18.267 -36.689  0.00  0.00    -0.054 A 
ATOM     14  C   UNL A   1      45.490 -17.363 -37.009  0.00  0.00    -0.026 A 
ENDBRANCH   7  12
ENDBRANCH   1   7
BRANCH   5  15
ATOM     15  C   UNL A   1      43.395 -21.154 -41.262  0.00  0.00    +0.050 C 
BRANCH  15  16
ATOM     16  N   UNL A   1      44.760 -20.640 -41.206  0.00  0.00    -0.339 N 
ATOM     17  C   UNL A   1      45.105 -19.314 -41.132  0.00  0.00    +0.023 A 
ATOM     18  C   UNL A   1      46.482 -19.223 -41.192  0.00  0.00    -0.019 A 
ATOM     19  C   UNL A   1      46.997 -20.541 -41.319  0.00  0.00    +0.003 A 
ATOM     20  C   UNL A   1      48.296 -21.071 -41.437  0.00  0.00    -0.052 A 
ATOM     21  C   UNL A   1      48.474 -22.454 -41.533  0.00  0.00    -0.061 A 
ATOM     22  C   UNL A   1      47.378 -23.310 -41.506  0.00  0.00    -0.060 A 
ATOM     23  C   UNL A   1      46.077 -22.811 -41.389  0.00  0.00    -0.038 A 
ATOM     24  C   UNL A   1      45.906 -21.418 -41.301  0.00  0.00    +0.050 A 
ATOM     25  C   UNL A   1      47.210 -17.920 -41.131  0.00  0.00    -0.025 C 
ATOM     26  C   UNL A   1      46.304 -16.803 -40.585  0.00  0.00    -0.049 C 
ATOM     27  C   UNL A   1      44.905 -16.836 -41.223  0.00  0.00    -0.047 C 
ATOM     28  C   UNL A   1      44.172 -18.161 -40.950  0.00  0.00    -0.012 C 
ENDBRANCH  15  16
ENDBRANCH   5  15
TORSDOF 4
ENDMDL
MODEL 11
REMARK VINA RESULT:    -6.996     16.917     19.654
REMARK INTER + INTRA:         -10.500
REMARK INTER:                  -9.394
REMARK INTRA:                  -1.106
REMARK UNBOUND:                -1.868
REMARK  Name = cpd352.pdb
REMARK  4 active torsions:
REMARK  status: ('A' for Active; 'I' for Inactive)
REMARK    1  A    between atoms: C_5  and  C_6
REMARK    2  A    between atoms: C_6  and  N_7
REMARK    3  A    between atoms: C_11  and  C_12
REMARK    4  A    between atoms: C_12  and  N_13
REMARK                            x       y       z     vdW  Elec       q    Type
REMARK                         _______ _______ _______ _____ _____    ______ ____
ROOT
ATOM      1  N   UNL A   1      42.322 -20.547 -39.052  0.00  0.00    -0.349 N 
ATOM      2  C   UNL A   1      41.154 -20.685 -39.719  0.00  0.00    +0.005 A 
ATOM      3  C   UNL A   1      40.082 -21.346 -39.135  0.00  0.00    -0.045 A 
ATOM      4  C   UNL A   1      40.215 -21.859 -37.850  0.00  0.00    -0.054 A 
ATOM      5  C   UNL A   1      41.414 -21.697 -37.153  0.00  0.00    -0.012 A 
ATOM      6  C   UNL A   1      42.466 -21.036 -37.798  0.00  0.00    +0.010 A 
ENDROOT
BRANCH   1   7
ATOM      7  C   UNL A   1      43.457 -19.837 -39.697  0.00  0.00    +0.048 C 
BRANCH   7  12
ATOM      8  F   UNL A   1      46.547 -23.373 -42.826  0.00  0.00    -0.205 F 
ATOM      9  C   UNL A   1      45.818 -22.532 -42.083  0.00  0.00    +0.123 A 
ATOM     10  C   UNL A   1      46.082 -22.412 -40.726  0.00  0.00    -0.026 A 
ATOM     11  C   UNL A   1      45.324 -21.536 -39.948  0.00  0.00    -0.054 A 
ATOM     12  C   UNL A   1      44.288 -20.782 -40.529  0.00  0.00    -0.028 A 
ATOM     13  C   UNL A   1      44.046 -20.911 -41.908  0.00  0.00    -0.054 A 
ATOM     14  C   UNL A   1      44.810 -21.787 -42.682  0.00  0.00    -0.026 A 
ENDBRANCH   7  12
ENDBRANCH   1   7
BRANCH   5  15
ATOM     15  C   UNL A   1      41.560 -22.283 -35.762  0.00  0.00    +0.050 C 
BRANCH  15  16
ATOM     16  N   UNL A   1      41.278 -21.301 -34.720  0.00  0.00    -0.339 N 
ATOM     17  C   UNL A   1      40.046 -21.071 -34.160  0.00  0.00    +0.023 A 
ATOM     18  C   UNL A   1      40.162 -20.010 -33.283  0.00  0.00    -0.019 A 
ATOM     19  C   UNL A   1      41.512 -19.568 -33.317  0.00  0.00    +0.003 A 
ATOM     20  C   UNL A   1      42.215 -18.537 -32.664  0.00  0.00    -0.052 A 
ATOM     21  C   UNL A   1      43.581 -18.368 -32.909  0.00  0.00    -0.061 A 
ATOM     22  C   UNL A   1      44.251 -19.213 -33.787  0.00  0.00    -0.060 A 
ATOM     23  C   UNL A   1      43.578 -20.245 -34.448  0.00  0.00    -0.038 A 
ATOM     24  C   UNL A   1      42.202 -20.404 -34.203  0.00  0.00    +0.050 A 
ATOM     25  C   UNL A   1      39.011 -19.488 -32.488  0.00  0.00    -0.025 C 
ATOM     26  C   UNL A   1      37.857 -20.504 -32.449  0.00  0.00    -0.049 C 
ATOM     27  C   UNL A   1      37.579 -21.111 -33.835  0.00  0.00    -0.047 C 
ATOM     28  C   UNL A   1      38.800 -21.862 -34.396  0.00  0.00    -0.012 C 
ENDBRANCH  15  16
ENDBRANCH   5  15
TORSDOF 4
ENDMDL
MODEL 12
REMARK VINA RESULT:    -6.943     16.769     20.146
REMARK INTER + INTRA:         -10.434
REMARK INTER:                  -9.013
REMARK INTRA:                  -1.422
REMARK UNBOUND:                -1.868
REMARK  Name = cpd352.pdb
REMARK  4 active torsions:
REMARK  status: ('A' for Active; 'I' for Inactive)
REMARK    1  A    between atoms: C_5  and  C_6
REMARK    2  A    between atoms: C_6  and  N_7
REMARK    3  A    between atoms: C_11  and  C_12
REMARK    4  A    between atoms: C_12  and  N_13
REMARK                            x       y       z     vdW  Elec       q    Type
REMARK                         _______ _______ _______ _____ _____    ______ ____
ROOT
ATOM      1  N   UNL A   1      46.244 -19.561 -37.136  0.00  0.00    -0.349 N 
ATOM      2  C   UNL A   1      46.943 -20.021 -36.072  0.00  0.00    +0.005 A 
ATOM      3  C   UNL A   1      46.305 -20.272 -34.865  0.00  0.00    -0.045 A 
ATOM      4  C   UNL A   1      44.935 -20.057 -34.760  0.00  0.00    -0.054 A 
ATOM      5  C   UNL A   1      44.211 -19.604 -35.864  0.00  0.00    -0.012 A 
ATOM      6  C   UNL A   1      44.910 -19.352 -37.050  0.00  0.00    +0.010 A 
ENDROOT
BRANCH   1   7
ATOM      7  C   UNL A   1      46.948 -19.297 -38.418  0.00  0.00    +0.048 C 
BRANCH   7  12
ATOM      8  F   UNL A   1      44.525 -22.087 -42.684  0.00  0.00    -0.205 F 
ATOM      9  C   UNL A   1      45.104 -21.427 -41.673  0.00  0.00    +0.123 A 
ATOM     10  C   UNL A   1      45.669 -22.139 -40.624  0.00  0.00    -0.026 A 
ATOM     11  C   UNL A   1      46.273 -21.455 -39.569  0.00  0.00    -0.054 A 
ATOM     12  C   UNL A   1      46.303 -20.048 -39.557  0.00  0.00    -0.028 A 
ATOM     13  C   UNL A   1      45.736 -19.348 -40.635  0.00  0.00    -0.054 A 
ATOM     14  C   UNL A   1      45.135 -20.038 -41.690  0.00  0.00    -0.026 A 
ENDBRANCH   7  12
ENDBRANCH   1   7
BRANCH   5  15
ATOM     15  C   UNL A   1      42.723 -19.347 -35.732  0.00  0.00    +0.050 C 
BRANCH  15  16
ATOM     16  N   UNL A   1      41.930 -20.526 -36.066  0.00  0.00    -0.339 N 
ATOM     17  C   UNL A   1      41.633 -20.947 -37.338  0.00  0.00    +0.023 A 
ATOM     18  C   UNL A   1      40.790 -22.037 -37.246  0.00  0.00    -0.019 A 
ATOM     19  C   UNL A   1      40.554 -22.285 -35.867  0.00  0.00    +0.003 A 
ATOM     20  C   UNL A   1      39.784 -23.233 -35.166  0.00  0.00    -0.052 A 
ATOM     21  C   UNL A   1      39.773 -23.220 -33.769  0.00  0.00    -0.061 A 
ATOM     22  C   UNL A   1      40.523 -22.283 -33.065  0.00  0.00    -0.060 A 
ATOM     23  C   UNL A   1      41.297 -21.331 -33.735  0.00  0.00    -0.038 A 
ATOM     24  C   UNL A   1      41.296 -21.344 -35.142  0.00  0.00    +0.050 A 
ATOM     25  C   UNL A   1      40.266 -22.759 -38.444  0.00  0.00    -0.025 C 
ATOM     26  C   UNL A   1      41.090 -22.421 -39.699  0.00  0.00    -0.049 C 
ATOM     27  C   UNL A   1      41.370 -20.913 -39.812  0.00  0.00    -0.047 C 
ATOM     28  C   UNL A   1      42.171 -20.378 -38.612  0.00  0.00    -0.012 C 
ENDBRANCH  15  16
ENDBRANCH   5  15
TORSDOF 4
ENDMDL
MODEL 13
REMARK VINA RESULT:    -6.913     16.319     19.528
REMARK INTER + INTRA:         -10.398
REMARK INTER:                  -9.349
REMARK INTRA:                  -1.049
REMARK UNBOUND:                -1.868
REMARK  Name = cpd352.pdb
REMARK  4 active torsions:
REMARK  status: ('A' for Active; 'I' for Inactive)
REMARK    1  A    between atoms: C_5  and  C_6
REMARK    2  A    between atoms: C_6  and  N_7
REMARK    3  A    between atoms: C_11  and  C_12
REMARK    4  A    between atoms: C_12  and  N_13
REMARK                            x       y       z     vdW  Elec       q    Type
REMARK                         _______ _______ _______ _____ _____    ______ ____
ROOT
ATOM      1  N   UNL A   1      42.626 -20.766 -39.271  0.00  0.00    -0.349 N 
ATOM      2  C   UNL A   1      41.649 -21.475 -39.881  0.00  0.00    +0.005 A 
ATOM      3  C   UNL A   1      40.709 -22.170 -39.132  0.00  0.00    -0.045 A 
ATOM      4  C   UNL A   1      40.773 -22.123 -37.744  0.00  0.00    -0.054 A 
ATOM      5  C   UNL A   1      41.769 -21.373 -37.115  0.00  0.00    -0.012 A 
ATOM      6  C   UNL A   1      42.699 -20.707 -37.921  0.00  0.00    +0.010 A 
ENDROOT
BRANCH   1   7
ATOM      7  C   UNL A   1      43.623 -20.032 -40.093  0.00  0.00    +0.048 C 
BRANCH   7  12
ATOM      8  F   UNL A   1      47.123 -23.598 -42.717  0.00  0.00    -0.205 F 
ATOM      9  C   UNL A   1      46.289 -22.755 -42.095  0.00  0.00    +0.123 A 
ATOM     10  C   UNL A   1      45.330 -22.073 -42.832  0.00  0.00    -0.026 A 
ATOM     11  C   UNL A   1      44.459 -21.193 -42.188  0.00  0.00    -0.054 A 
ATOM     12  C   UNL A   1      44.555 -20.986 -40.799  0.00  0.00    -0.028 A 
ATOM     13  C   UNL A   1      45.526 -21.695 -40.072  0.00  0.00    -0.054 A 
ATOM     14  C   UNL A   1      46.393 -22.576 -40.722  0.00  0.00    -0.026 A 
ENDBRANCH   7  12
ENDBRANCH   1   7
BRANCH   5  15
ATOM     15  C   UNL A   1      41.848 -21.350 -35.601  0.00  0.00    +0.050 C 
BRANCH  15  16
ATOM     16  N   UNL A   1      40.592 -20.923 -34.992  0.00  0.00    -0.339 N 
ATOM     17  C   UNL A   1      39.603 -21.762 -34.544  0.00  0.00    +0.023 A 
ATOM     18  C   UNL A   1      38.540 -20.988 -34.122  0.00  0.00    -0.019 A 
ATOM     19  C   UNL A   1      38.887 -19.626 -34.331  0.00  0.00    +0.003 A 
ATOM     20  C   UNL A   1      38.218 -18.406 -34.112  0.00  0.00    -0.052 A 
ATOM     21  C   UNL A   1      38.857 -17.201 -34.417  0.00  0.00    -0.061 A 
ATOM     22  C   UNL A   1      40.150 -17.198 -34.928  0.00  0.00    -0.060 A 
ATOM     23  C   UNL A   1      40.839 -18.394 -35.154  0.00  0.00    -0.038 A 
ATOM     24  C   UNL A   1      40.185 -19.603 -34.853  0.00  0.00    +0.050 A 
ATOM     25  C   UNL A   1      37.284 -21.573 -33.564  0.00  0.00    -0.025 C 
ATOM     26  C   UNL A   1      37.495 -23.037 -33.139  0.00  0.00    -0.049 C 
ATOM     27  C   UNL A   1      38.271 -23.836 -34.200  0.00  0.00    -0.047 C 
ATOM     28  C   UNL A   1      39.672 -23.252 -34.457  0.00  0.00    -0.012 C 
ENDBRANCH  15  16
ENDBRANCH   5  15
TORSDOF 4
ENDMDL
MODEL 14
REMARK VINA RESULT:    -6.884      2.312      5.469
REMARK INTER + INTRA:         -10.361
REMARK INTER:                  -8.417
REMARK INTRA:                  -1.944
REMARK UNBOUND:                -1.868
REMARK  Name = cpd352.pdb
REMARK  4 active torsions:
REMARK  status: ('A' for Active; 'I' for Inactive)
REMARK    1  A    between atoms: C_5  and  C_6
REMARK    2  A    between atoms: C_6  and  N_7
REMARK    3  A    between atoms: C_11  and  C_12
REMARK    4  A    between atoms: C_12  and  N_13
REMARK                            x       y       z     vdW  Elec       q    Type
REMARK                         _______ _______ _______ _____ _____    ______ ____
ROOT
ATOM      1  N   UNL A   1      36.594 -35.001 -30.769  0.00  0.00    -0.349 N 
ATOM      2  C   UNL A   1      37.723 -34.908 -31.508  0.00  0.00    +0.005 A 
ATOM      3  C   UNL A   1      38.728 -35.858 -31.384  0.00  0.00    -0.045 A 
ATOM      4  C   UNL A   1      38.561 -36.915 -30.497  0.00  0.00    -0.054 A 
ATOM      5  C   UNL A   1      37.386 -37.023 -29.750  0.00  0.00    -0.012 A 
ATOM      6  C   UNL A   1      36.414 -36.028 -29.905  0.00  0.00    +0.010 A 
ENDROOT
BRANCH   1   7
ATOM      7  C   UNL A   1      35.532 -33.972 -30.917  0.00  0.00    +0.048 C 
BRANCH   7  12
ATOM      8  F   UNL A   1      30.747 -35.612 -28.414  0.00  0.00    -0.205 F 
ATOM      9  C   UNL A   1      31.880 -35.222 -29.012  0.00  0.00    +0.123 A 
ATOM     10  C   UNL A   1      32.294 -35.856 -30.175  0.00  0.00    -0.026 A 
ATOM     11  C   UNL A   1      33.475 -35.451 -30.801  0.00  0.00    -0.054 A 
ATOM     12  C   UNL A   1      34.251 -34.413 -30.253  0.00  0.00    -0.028 A 
ATOM     13  C   UNL A   1      33.806 -33.778 -29.082  0.00  0.00    -0.054 A 
ATOM     14  C   UNL A   1      32.622 -34.185 -28.461  0.00  0.00    -0.026 A 
ENDBRANCH   7  12
ENDBRANCH   1   7
BRANCH   5  15
ATOM     15  C   UNL A   1      37.224 -38.165 -28.766  0.00  0.00    +0.050 C 
BRANCH  15  16
ATOM     16  N   UNL A   1      35.855 -38.672 -28.733  0.00  0.00    -0.339 N 
ATOM     17  C   UNL A   1      35.328 -39.587 -29.608  0.00  0.00    +0.023 A 
ATOM     18  C   UNL A   1      33.988 -39.743 -29.313  0.00  0.00    -0.019 A 
ATOM     19  C   UNL A   1      33.682 -38.883 -28.224  0.00  0.00    +0.003 A 
ATOM     20  C   UNL A   1      32.503 -38.601 -27.507  0.00  0.00    -0.052 A 
ATOM     21  C   UNL A   1      32.538 -37.690 -26.448  0.00  0.00    -0.061 A 
ATOM     22  C   UNL A   1      33.728 -37.065 -26.093  0.00  0.00    -0.060 A 
ATOM     23  C   UNL A   1      34.914 -37.327 -26.787  0.00  0.00    -0.038 A 
ATOM     24  C   UNL A   1      34.870 -38.239 -27.857  0.00  0.00    +0.050 A 
ATOM     25  C   UNL A   1      33.096 -40.674 -30.068  0.00  0.00    -0.025 C 
ATOM     26  C   UNL A   1      33.915 -41.694 -30.877  0.00  0.00    -0.049 C 
ATOM     27  C   UNL A   1      35.085 -41.028 -31.622  0.00  0.00    -0.047 C 
ATOM     28  C   UNL A   1      36.072 -40.343 -30.661  0.00  0.00    -0.012 C 
ENDBRANCH  15  16
ENDBRANCH   5  15
TORSDOF 4
ENDMDL
MODEL 15
REMARK VINA RESULT:    -6.878     18.062     20.450
REMARK INTER + INTRA:         -10.354
REMARK INTER:                  -9.059
REMARK INTRA:                  -1.295
REMARK UNBOUND:                -1.868
REMARK  Name = cpd352.pdb
REMARK  4 active torsions:
REMARK  status: ('A' for Active; 'I' for Inactive)
REMARK    1  A    between atoms: C_5  and  C_6
REMARK    2  A    between atoms: C_6  and  N_7
REMARK    3  A    between atoms: C_11  and  C_12
REMARK    4  A    between atoms: C_12  and  N_13
REMARK                            x       y       z     vdW  Elec       q    Type
REMARK                         _______ _______ _______ _____ _____    ______ ____
ROOT
ATOM      1  N   UNL A   1      43.255 -20.830 -41.302  0.00  0.00    -0.349 N 
ATOM      2  C   UNL A   1      42.348 -21.833 -41.333  0.00  0.00    +0.005 A 
ATOM      3  C   UNL A   1      41.354 -21.915 -40.367  0.00  0.00    -0.045 A 
ATOM      4  C   UNL A   1      41.291 -20.950 -39.369  0.00  0.00    -0.054 A 
ATOM      5  C   UNL A   1      42.215 -19.902 -39.350  0.00  0.00    -0.012 A 
ATOM      6  C   UNL A   1      43.204 -19.880 -40.339  0.00  0.00    +0.010 A 
ENDROOT
BRANCH   1   7
ATOM      7  C   UNL A   1      44.312 -20.762 -42.345  0.00  0.00    +0.048 C 
BRANCH   7  12
ATOM      8  F   UNL A   1      49.017 -23.374 -40.645  0.00  0.00    -0.205 F 
ATOM      9  C   UNL A   1      47.898 -22.758 -41.046  0.00  0.00    +0.123 A 
ATOM     10  C   UNL A   1      47.186 -23.266 -42.125  0.00  0.00    -0.026 A 
ATOM     11  C   UNL A   1      46.020 -22.627 -42.547  0.00  0.00    -0.054 A 
ATOM     12  C   UNL A   1      45.568 -21.466 -41.893  0.00  0.00    -0.028 A 
ATOM     13  C   UNL A   1      46.298 -20.976 -40.797  0.00  0.00    -0.054 A 
ATOM     14  C   UNL A   1      47.464 -21.622 -40.377  0.00  0.00    -0.026 A 
ENDBRANCH   7  12
ENDBRANCH   1   7
BRANCH   5  15
ATOM     15  C   UNL A   1      42.155 -18.869 -38.242  0.00  0.00    +0.050 C 
BRANCH  15  16
ATOM     16  N   UNL A   1      42.610 -19.406 -36.963  0.00  0.00    -0.339 N 
ATOM     17  C   UNL A   1      43.921 -19.600 -36.607  0.00  0.00    +0.023 A 
ATOM     18  C   UNL A   1      43.945 -20.208 -35.367  0.00  0.00    -0.019 A 
ATOM     19  C   UNL A   1      42.599 -20.403 -34.956  0.00  0.00    +0.003 A 
ATOM     20  C   UNL A   1      42.004 -20.975 -33.815  0.00  0.00    -0.052 A 
ATOM     21  C   UNL A   1      40.611 -21.002 -33.701  0.00  0.00    -0.061 A 
ATOM     22  C   UNL A   1      39.810 -20.463 -34.702  0.00  0.00    -0.060 A 
ATOM     23  C   UNL A   1      40.374 -19.888 -35.845  0.00  0.00    -0.038 A 
ATOM     24  C   UNL A   1      41.777 -19.873 -35.956  0.00  0.00    +0.050 A 
ATOM     25  C   UNL A   1      45.214 -20.563 -34.665  0.00  0.00    -0.025 C 
ATOM     26  C   UNL A   1      46.413 -19.812 -35.270  0.00  0.00    -0.049 C 
ATOM     27  C   UNL A   1      46.390 -19.838 -36.808  0.00  0.00    -0.047 C 
ATOM     28  C   UNL A   1      45.126 -19.173 -37.382  0.00  0.00    -0.012 C 
ENDBRANCH  15  16
ENDBRANCH   5  15
TORSDOF 4
ENDMDL
MODEL 16
REMARK VINA RESULT:    -6.765     16.774     20.160
REMARK INTER + INTRA:         -10.214
REMARK INTER:                  -9.270
REMARK INTRA:                  -0.944
REMARK UNBOUND:                -1.868
REMARK  Name = cpd352.pdb
REMARK  4 active torsions:
REMARK  status: ('A' for Active; 'I' for Inactive)
REMARK    1  A    between atoms: C_5  and  C_6
REMARK    2  A    between atoms: C_6  and  N_7
REMARK    3  A    between atoms: C_11  and  C_12
REMARK    4  A    between atoms: C_12  and  N_13
REMARK                            x       y       z     vdW  Elec       q    Type
REMARK                         _______ _______ _______ _____ _____    ______ ____
ROOT
ATOM      1  N   UNL A   1      44.034 -20.355 -39.620  0.00  0.00    -0.349 N 
ATOM      2  C   UNL A   1      44.626 -19.943 -38.476  0.00  0.00    +0.005 A 
ATOM      3  C   UNL A   1      44.027 -20.183 -37.246  0.00  0.00    -0.045 A 
ATOM      4  C   UNL A   1      42.815 -20.862 -37.199  0.00  0.00    -0.054 A 
ATOM      5  C   UNL A   1      42.216 -21.306 -38.379  0.00  0.00    -0.012 A 
ATOM      6  C   UNL A   1      42.857 -21.022 -39.590  0.00  0.00    +0.010 A 
ENDROOT
BRANCH   1   7
ATOM      7  C   UNL A   1      44.692 -20.086 -40.926  0.00  0.00    +0.048 C 
BRANCH   7  12
ATOM      8  F   UNL A   1      48.169 -24.294 -42.358  0.00  0.00    -0.205 F 
ATOM      9  C   UNL A   1      47.341 -23.299 -42.017  0.00  0.00    +0.123 A 
ATOM     10  C   UNL A   1      46.181 -23.091 -42.751  0.00  0.00    -0.026 A 
ATOM     11  C   UNL A   1      45.316 -22.054 -42.399  0.00  0.00    -0.054 A 
ATOM     12  C   UNL A   1      45.617 -21.214 -41.312  0.00  0.00    -0.028 A 
ATOM     13  C   UNL A   1      46.790 -21.450 -40.575  0.00  0.00    -0.054 A 
ATOM     14  C   UNL A   1      47.651 -22.491 -40.931  0.00  0.00    -0.026 A 
ENDBRANCH   7  12
ENDBRANCH   1   7
BRANCH   5  15
ATOM     15  C   UNL A   1      40.881 -22.023 -38.320  0.00  0.00    +0.050 C 
BRANCH  15  16
ATOM     16  N   UNL A   1      39.924 -21.332 -37.461  0.00  0.00    -0.339 N 
ATOM     17  C   UNL A   1      39.521 -21.758 -36.220  0.00  0.00    +0.023 A 
ATOM     18  C   UNL A   1      38.545 -20.895 -35.764  0.00  0.00    -0.019 A 
ATOM     19  C   UNL A   1      38.333 -19.912 -36.769  0.00  0.00    +0.003 A 
ATOM     20  C   UNL A   1      37.472 -18.804 -36.880  0.00  0.00    -0.052 A 
ATOM     21  C   UNL A   1      37.520 -18.001 -38.023  0.00  0.00    -0.061 A 
ATOM     22  C   UNL A   1      38.416 -18.285 -39.048  0.00  0.00    -0.060 A 
ATOM     23  C   UNL A   1      39.284 -19.379 -38.963  0.00  0.00    -0.038 A 
ATOM     24  C   UNL A   1      39.224 -20.187 -37.813  0.00  0.00    +0.050 A 
ATOM     25  C   UNL A   1      37.881 -21.053 -34.435  0.00  0.00    -0.025 C 
ATOM     26  C   UNL A   1      38.691 -21.986 -33.518  0.00  0.00    -0.049 C 
ATOM     27  C   UNL A   1      39.166 -23.248 -34.259  0.00  0.00    -0.047 C 
ATOM     28  C   UNL A   1      40.079 -22.912 -35.452  0.00  0.00    -0.012 C 
ENDBRANCH  15  16
ENDBRANCH   5  15
TORSDOF 4
ENDMDL
MODEL 17
REMARK VINA RESULT:    -6.753     16.903     20.153
REMARK INTER + INTRA:         -10.200
REMARK INTER:                  -9.285
REMARK INTRA:                  -0.916
REMARK UNBOUND:                -1.868
REMARK  Name = cpd352.pdb
REMARK  4 active torsions:
REMARK  status: ('A' for Active; 'I' for Inactive)
REMARK    1  A    between atoms: C_5  and  C_6
REMARK    2  A    between atoms: C_6  and  N_7
REMARK    3  A    between atoms: C_11  and  C_12
REMARK    4  A    between atoms: C_12  and  N_13
REMARK                            x       y       z     vdW  Elec       q    Type
REMARK                         _______ _______ _______ _____ _____    ______ ____
ROOT
ATOM      1  N   UNL A   1      43.985 -20.246 -39.697  0.00  0.00    -0.349 N 
ATOM      2  C   UNL A   1      44.511 -19.807 -38.530  0.00  0.00    +0.005 A 
ATOM      3  C   UNL A   1      43.857 -20.045 -37.329  0.00  0.00    -0.045 A 
ATOM      4  C   UNL A   1      42.659 -20.749 -37.332  0.00  0.00    -0.054 A 
ATOM      5  C   UNL A   1      42.128 -21.222 -38.534  0.00  0.00    -0.012 A 
ATOM      6  C   UNL A   1      42.822 -20.938 -39.716  0.00  0.00    +0.010 A 
ENDROOT
BRANCH   1   7
ATOM      7  C   UNL A   1      44.701 -19.979 -40.972  0.00  0.00    +0.048 C 
BRANCH   7  12
ATOM      8  F   UNL A   1      48.238 -24.190 -42.239  0.00  0.00    -0.205 F 
ATOM      9  C   UNL A   1      47.396 -23.194 -41.938  0.00  0.00    +0.123 A 
ATOM     10  C   UNL A   1      46.274 -22.984 -42.727  0.00  0.00    -0.026 A 
ATOM     11  C   UNL A   1      45.393 -21.947 -42.416  0.00  0.00    -0.054 A 
ATOM     12  C   UNL A   1      45.642 -21.108 -41.314  0.00  0.00    -0.028 A 
ATOM     13  C   UNL A   1      46.778 -21.347 -40.522  0.00  0.00    -0.054 A 
ATOM     14  C   UNL A   1      47.655 -22.388 -40.837  0.00  0.00    -0.026 A 
ENDBRANCH   7  12
ENDBRANCH   1   7
BRANCH   5  15
ATOM     15  C   UNL A   1      40.807 -21.966 -38.530  0.00  0.00    +0.050 C 
BRANCH  15  16
ATOM     16  N   UNL A   1      39.798 -21.293 -37.719  0.00  0.00    -0.339 N 
ATOM     17  C   UNL A   1      39.201 -20.097 -38.029  0.00  0.00    +0.023 A 
ATOM     18  C   UNL A   1      38.377 -19.743 -36.979  0.00  0.00    -0.019 A 
ATOM     19  C   UNL A   1      38.484 -20.753 -35.985  0.00  0.00    +0.003 A 
ATOM     20  C   UNL A   1      37.905 -20.932 -34.714  0.00  0.00    -0.052 A 
ATOM     21  C   UNL A   1      38.212 -22.074 -33.969  0.00  0.00    -0.061 A 
ATOM     22  C   UNL A   1      39.078 -23.037 -34.476  0.00  0.00    -0.060 A 
ATOM     23  C   UNL A   1      39.666 -22.884 -35.736  0.00  0.00    -0.038 A 
ATOM     24  C   UNL A   1      39.359 -21.728 -36.477  0.00  0.00    +0.050 A 
ATOM     25  C   UNL A   1      37.559 -18.492 -36.979  0.00  0.00    -0.025 C 
ATOM     26  C   UNL A   1      37.429 -17.914 -38.399  0.00  0.00    -0.049 C 
ATOM     27  C   UNL A   1      38.775 -17.914 -39.144  0.00  0.00    -0.047 C 
ATOM     28  C   UNL A   1      39.351 -19.332 -39.304  0.00  0.00    -0.012 C 
ENDBRANCH  15  16
ENDBRANCH   5  15
TORSDOF 4
ENDMDL
MODEL 18
REMARK VINA RESULT:    -6.729     16.472     19.523
REMARK INTER + INTRA:         -10.171
REMARK INTER:                  -9.168
REMARK INTRA:                  -1.003
REMARK UNBOUND:                -1.868
REMARK  Name = cpd352.pdb
REMARK  4 active torsions:
REMARK  status: ('A' for Active; 'I' for Inactive)
REMARK    1  A    between atoms: C_5  and  C_6
REMARK    2  A    between atoms: C_6  and  N_7
REMARK    3  A    between atoms: C_11  and  C_12
REMARK    4  A    between atoms: C_12  and  N_13
REMARK                            x       y       z     vdW  Elec       q    Type
REMARK                         _______ _______ _______ _____ _____    ______ ____
ROOT
ATOM      1  N   UNL A   1      42.471 -20.407 -38.952  0.00  0.00    -0.349 N 
ATOM      2  C   UNL A   1      41.432 -20.995 -39.588  0.00  0.00    +0.005 A 
ATOM      3  C   UNL A   1      40.480 -21.709 -38.873  0.00  0.00    -0.045 A 
ATOM      4  C   UNL A   1      40.597 -21.806 -37.491  0.00  0.00    -0.054 A 
ATOM      5  C   UNL A   1      41.657 -21.180 -36.833  0.00  0.00    -0.012 A 
ATOM      6  C   UNL A   1      42.595 -20.488 -37.607  0.00  0.00    +0.010 A 
ENDROOT
BRANCH   1   7
ATOM      7  C   UNL A   1      43.479 -19.649 -39.738  0.00  0.00    +0.048 C 
BRANCH   7  12
ATOM      8  F   UNL A   1      46.528 -23.100 -43.000  0.00  0.00    -0.205 F 
ATOM      9  C   UNL A   1      45.809 -22.279 -42.225  0.00  0.00    +0.123 A 
ATOM     10  C   UNL A   1      45.965 -22.327 -40.847  0.00  0.00    -0.026 A 
ATOM     11  C   UNL A   1      45.217 -21.473 -40.035  0.00  0.00    -0.054 A 
ATOM     12  C   UNL A   1      44.299 -20.573 -40.606  0.00  0.00    -0.028 A 
ATOM     13  C   UNL A   1      44.165 -20.533 -42.004  0.00  0.00    -0.054 A 
ATOM     14  C   UNL A   1      44.919 -21.389 -42.811  0.00  0.00    -0.026 A 
ENDBRANCH   7  12
ENDBRANCH   1   7
BRANCH   5  15
ATOM     15  C   UNL A   1      41.791 -21.313 -35.328  0.00  0.00    +0.050 C 
BRANCH  15  16
ATOM     16  N   UNL A   1      40.617 -20.807 -34.625  0.00  0.00    -0.339 N 
ATOM     17  C   UNL A   1      40.444 -19.512 -34.203  0.00  0.00    +0.023 A 
ATOM     18  C   UNL A   1      39.257 -19.444 -33.499  0.00  0.00    -0.019 A 
ATOM     19  C   UNL A   1      38.691 -20.747 -33.480  0.00  0.00    +0.003 A 
ATOM     20  C   UNL A   1      37.521 -21.291 -32.916  0.00  0.00    -0.052 A 
ATOM     21  C   UNL A   1      37.232 -22.647 -33.094  0.00  0.00    -0.061 A 
ATOM     22  C   UNL A   1      38.087 -23.460 -33.830  0.00  0.00    -0.060 A 
ATOM     23  C   UNL A   1      39.255 -22.946 -34.403  0.00  0.00    -0.038 A 
ATOM     24  C   UNL A   1      39.543 -21.582 -34.211  0.00  0.00    +0.050 A 
ATOM     25  C   UNL A   1      38.746 -18.177 -32.896  0.00  0.00    -0.025 C 
ATOM     26  C   UNL A   1      39.451 -16.950 -33.501  0.00  0.00    -0.049 C 
ATOM     27  C   UNL A   1      40.972 -17.156 -33.604  0.00  0.00    -0.047 C 
ATOM     28  C   UNL A   1      41.338 -18.352 -34.500  0.00  0.00    -0.012 C 
ENDBRANCH  15  16
ENDBRANCH   5  15
TORSDOF 4
ENDMDL
MODEL 19
REMARK VINA RESULT:    -6.532     17.013     19.985
REMARK INTER + INTRA:          -9.927
REMARK INTER:                  -8.621
REMARK INTRA:                  -1.306
REMARK UNBOUND:                -1.868
REMARK  Name = cpd352.pdb
REMARK  4 active torsions:
REMARK  status: ('A' for Active; 'I' for Inactive)
REMARK    1  A    between atoms: C_5  and  C_6
REMARK    2  A    between atoms: C_6  and  N_7
REMARK    3  A    between atoms: C_11  and  C_12
REMARK    4  A    between atoms: C_12  and  N_13
REMARK                            x       y       z     vdW  Elec       q    Type
REMARK                         _______ _______ _______ _____ _____    ______ ____
ROOT
ATOM      1  N   UNL A   1      40.500 -20.794 -38.056  0.00  0.00    -0.349 N 
ATOM      2  C   UNL A   1      40.298 -22.081 -38.419  0.00  0.00    +0.005 A 
ATOM      3  C   UNL A   1      41.039 -22.650 -39.446  0.00  0.00    -0.045 A 
ATOM      4  C   UNL A   1      42.003 -21.886 -40.095  0.00  0.00    -0.054 A 
ATOM      5  C   UNL A   1      42.227 -20.564 -39.705  0.00  0.00    -0.012 A 
ATOM      6  C   UNL A   1      41.438 -20.039 -38.675  0.00  0.00    +0.010 A 
ENDROOT
BRANCH   1   7
ATOM      7  C   UNL A   1      39.694 -20.205 -36.955  0.00  0.00    +0.048 C 
BRANCH   7  12
ATOM      8  F   UNL A   1      41.364 -22.187 -31.942  0.00  0.00    -0.205 F 
ATOM      9  C   UNL A   1      40.964 -21.715 -33.129  0.00  0.00    +0.123 A 
ATOM     10  C   UNL A   1      39.769 -22.161 -33.676  0.00  0.00    -0.026 A 
ATOM     11  C   UNL A   1      39.348 -21.671 -34.914  0.00  0.00    -0.054 A 
ATOM     12  C   UNL A   1      40.134 -20.737 -35.613  0.00  0.00    -0.028 A 
ATOM     13  C   UNL A   1      41.335 -20.291 -35.036  0.00  0.00    -0.054 A 
ATOM     14  C   UNL A   1      41.749 -20.783 -33.796  0.00  0.00    -0.026 A 
ENDBRANCH   7  12
ENDBRANCH   1   7
BRANCH   5  15
ATOM     15  C   UNL A   1      43.261 -19.731 -40.436  0.00  0.00    +0.050 C 
BRANCH  15  16
ATOM     16  N   UNL A   1      44.615 -19.989 -39.955  0.00  0.00    -0.339 N 
ATOM     17  C   UNL A   1      45.505 -20.864 -40.524  0.00  0.00    +0.023 A 
ATOM     18  C   UNL A   1      46.637 -20.901 -39.735  0.00  0.00    -0.019 A 
ATOM     19  C   UNL A   1      46.427 -20.025 -38.636  0.00  0.00    +0.003 A 
ATOM     20  C   UNL A   1      47.202 -19.663 -37.518  0.00  0.00    -0.052 A 
ATOM     21  C   UNL A   1      46.702 -18.735 -36.600  0.00  0.00    -0.061 A 
ATOM     22  C   UNL A   1      45.449 -18.161 -36.787  0.00  0.00    -0.060 A 
ATOM     23  C   UNL A   1      44.659 -18.501 -37.889  0.00  0.00    -0.038 A 
ATOM     24  C   UNL A   1      45.165 -19.443 -38.804  0.00  0.00    +0.050 A 
ATOM     25  C   UNL A   1      47.823 -21.750 -40.059  0.00  0.00    -0.025 C 
ATOM     26  C   UNL A   1      47.790 -22.210 -41.527  0.00  0.00    -0.049 C 
ATOM     27  C   UNL A   1      46.394 -22.705 -41.943  0.00  0.00    -0.047 C 
ATOM     28  C   UNL A   1      45.325 -21.607 -41.809  0.00  0.00    -0.012 C 
ENDBRANCH  15  16
ENDBRANCH   5  15
TORSDOF 4
ENDMDL
MODEL 20
REMARK VINA RESULT:    -6.260     16.945     19.948
REMARK INTER + INTRA:          -9.592
REMARK INTER:                  -8.873
REMARK INTRA:                  -0.719
REMARK UNBOUND:                -1.868
REMARK  Name = cpd352.pdb
REMARK  4 active torsions:
REMARK  status: ('A' for Active; 'I' for Inactive)
REMARK    1  A    between atoms: C_5  and  C_6
REMARK    2  A    between atoms: C_6  and  N_7
REMARK    3  A    between atoms: C_11  and  C_12
REMARK    4  A    between atoms: C_12  and  N_13
REMARK                            x       y       z     vdW  Elec       q    Type
REMARK                         _______ _______ _______ _____ _____    ______ ____
ROOT
ATOM      1  N   UNL A   1      42.974 -20.248 -39.439  0.00  0.00    -0.349 N 
ATOM      2  C   UNL A   1      42.450 -21.375 -39.971  0.00  0.00    +0.005 A 
ATOM      3  C   UNL A   1      41.224 -21.859 -39.532  0.00  0.00    -0.045 A 
ATOM      4  C   UNL A   1      40.533 -21.168 -38.544  0.00  0.00    -0.054 A 
ATOM      5  C   UNL A   1      41.064 -19.992 -38.011  0.00  0.00    -0.012 A 
ATOM      6  C   UNL A   1      42.310 -19.561 -38.480  0.00  0.00    +0.010 A 
ENDROOT
BRANCH   1   7
ATOM      7  C   UNL A   1      44.288 -19.749 -39.922  0.00  0.00    +0.048 C 
BRANCH   7  12
ATOM      8  F   UNL A   1      47.105 -23.797 -42.666  0.00  0.00    -0.205 F 
ATOM      9  C   UNL A   1      46.441 -22.834 -42.015  0.00  0.00    +0.123 A 
ATOM     10  C   UNL A   1      46.712 -22.603 -40.673  0.00  0.00    -0.026 A 
ATOM     11  C   UNL A   1      46.021 -21.600 -39.991  0.00  0.00    -0.054 A 
ATOM     12  C   UNL A   1      45.046 -20.831 -40.652  0.00  0.00    -0.028 A 
ATOM     13  C   UNL A   1      44.796 -21.075 -42.013  0.00  0.00    -0.054 A 
ATOM     14  C   UNL A   1      45.492 -22.078 -42.692  0.00  0.00    -0.026 A 
ENDBRANCH   7  12
ENDBRANCH   1   7
BRANCH   5  15
ATOM     15  C   UNL A   1      40.315 -19.259 -36.915  0.00  0.00    +0.050 C 
BRANCH  15  16
ATOM     16  N   UNL A   1      40.845 -19.561 -35.589  0.00  0.00    -0.339 N 
ATOM     17  C   UNL A   1      41.808 -18.832 -34.937  0.00  0.00    +0.023 A 
ATOM     18  C   UNL A   1      42.111 -19.480 -33.755  0.00  0.00    -0.019 A 
ATOM     19  C   UNL A   1      41.313 -20.653 -33.689  0.00  0.00    +0.003 A 
ATOM     20  C   UNL A   1      41.193 -21.697 -32.751  0.00  0.00    -0.052 A 
ATOM     21  C   UNL A   1      40.278 -22.729 -32.977  0.00  0.00    -0.061 A 
ATOM     22  C   UNL A   1      39.481 -22.729 -34.116  0.00  0.00    -0.060 A 
ATOM     23  C   UNL A   1      39.579 -21.705 -35.064  0.00  0.00    -0.038 A 
ATOM     24  C   UNL A   1      40.508 -20.674 -34.834  0.00  0.00    +0.050 A 
ATOM     25  C   UNL A   1      43.121 -18.961 -32.784  0.00  0.00    -0.025 C 
ATOM     26  C   UNL A   1      43.436 -17.479 -33.050  0.00  0.00    -0.049 C 
ATOM     27  C   UNL A   1      43.641 -17.195 -34.548  0.00  0.00    -0.047 C 
ATOM     28  C   UNL A   1      42.390 -17.528 -35.380  0.00  0.00    -0.012 C 
ENDBRANCH  15  16
ENDBRANCH   5  15
TORSDOF 4
ENDMDL
