REMARK  Name = cpd352.pdb
REMARK  4 active torsions:
REMARK  status: ('A' for Active; 'I' for Inactive)
REMARK    1  A    between atoms: C_5  and  C_6
REMARK    2  A    between atoms: C_6  and  N_7
REMARK    3  A    between atoms: C_11  and  C_12
REMARK    4  A    between atoms: C_12  and  N_13
REMARK                            x       y       z     vdW  Elec       q    Type
REMARK                         _______ _______ _______ _____ _____    ______ ____
ROOT
ATOM      1  N   UNL A   1      -4.279   2.485  -0.939  0.00  0.00    -0.349 N 
ATOM      2  C   UNL A   1      -3.987   3.788  -1.154  0.00  0.00    +0.005 A 
ATOM      3  C   UNL A   1      -2.934   4.395  -0.483  0.00  0.00    -0.045 A 
ATOM      4  C   UNL A   1      -2.172   3.648   0.408  0.00  0.00    -0.054 A 
ATOM      5  C   UNL A   1      -2.460   2.297   0.613  0.00  0.00    -0.012 A 
ATOM      6  C   UNL A   1      -3.543   1.743  -0.079  0.00  0.00    +0.010 A 
ENDROOT
BRANCH   1   7
ATOM      7  C   UNL A   1      -5.412   1.856  -1.667  0.00  0.00    +0.048 C 
BRANCH   7  12
ATOM      8  F   UNL A   1     -10.364   3.882   0.128  0.00  0.00    -0.205 F 
ATOM      9  C   UNL A   1      -9.191   3.397  -0.297  0.00  0.00    +0.123 A 
ATOM     10  C   UNL A   1      -8.348   2.758   0.602  0.00  0.00    -0.026 A 
ATOM     11  C   UNL A   1      -7.124   2.251   0.163  0.00  0.00    -0.054 A 
ATOM     12  C   UNL A   1      -6.736   2.394  -1.182  0.00  0.00    -0.028 A 
ATOM     13  C   UNL A   1      -7.610   3.034  -2.077  0.00  0.00    -0.054 A 
ATOM     14  C   UNL A   1      -8.835   3.537  -1.632  0.00  0.00    -0.026 A 
ENDBRANCH   7  12
ENDBRANCH   1   7
BRANCH   5  15
ATOM     15  C   UNL A   1      -1.640   1.497   1.606  0.00  0.00    +0.050 C 
BRANCH  15  16
ATOM     16  N   UNL A   1      -1.545   0.089   1.233  0.00  0.00    -0.339 N 
ATOM     17  C   UNL A   1      -0.666  -0.430   0.316  0.00  0.00    +0.023 A 
ATOM     18  C   UNL A   1      -0.942  -1.775   0.168  0.00  0.00    -0.019 A 
ATOM     19  C   UNL A   1      -2.038  -2.087   1.017  0.00  0.00    +0.003 A 
ATOM     20  C   UNL A   1      -2.760  -3.267   1.280  0.00  0.00    -0.052 A 
ATOM     21  C   UNL A   1      -3.805  -3.247   2.208  0.00  0.00    -0.061 A 
ATOM     22  C   UNL A   1      -4.132  -2.073   2.878  0.00  0.00    -0.060 A 
ATOM     23  C   UNL A   1      -3.431  -0.887   2.637  0.00  0.00    -0.038 A 
ATOM     24  C   UNL A   1      -2.386  -0.913   1.695  0.00  0.00    +0.050 A 
ATOM     25  C   UNL A   1      -0.171  -2.663  -0.753  0.00  0.00    -0.025 C 
ATOM     26  C   UNL A   1       1.166  -2.017  -1.156  0.00  0.00    -0.049 C 
ATOM     27  C   UNL A   1       0.997  -0.535  -1.532  0.00  0.00    -0.047 C 
ATOM     28  C   UNL A   1       0.446   0.302  -0.364  0.00  0.00    -0.012 C 
ENDBRANCH  15  16
ENDBRANCH   5  15
TORSDOF 4
