REMARK  Name = cpd280.pdb
REMARK  10 active torsions:
REMARK  status: ('A' for Active; 'I' for Inactive)
REMARK    1  A    between atoms: C_1  and  C_2
REMARK    2  A    between atoms: C_2  and  C_3
REMARK    3  A    between atoms: C_4  and  O_5
REMARK    4  A    between atoms: C_8  and  C_9
REMARK    5  A    between atoms: C_15  and  C_16
REMARK    6  A    between atoms: C_16  and  C_17
REMARK    7  A    between atoms: C_22  and  C_23
REMARK    8  A    between atoms: C_24  and  O_25
REMARK    9  A    between atoms: C_27  and  C_28
REMARK   10  A    between atoms: C_29  and  C_30
REMARK                            x       y       z     vdW  Elec       q    Type
REMARK                         _______ _______ _______ _____ _____    ______ ____
ROOT
ATOM      1  C   UNL A   1       3.048  -0.451  -1.568  0.00  0.00    -0.057 C 
ATOM      2  C   UNL A   1       2.119  -1.216  -0.581  0.00  0.00    -0.006 C 
ATOM      3  C   UNL A   1       3.013  -1.601   0.612  0.00  0.00    -0.057 C 
ATOM      4  C   UNL A   1       1.572  -2.461  -1.347  0.00  0.00    +0.061 C 
ATOM      5  C   UNL A   1       0.371  -3.150  -0.691  0.00  0.00    -0.026 C 
ATOM      6  C   UNL A   1      -0.761  -2.194  -0.280  0.00  0.00    -0.045 C 
ATOM      7  C   UNL A   1      -0.268  -1.014   0.594  0.00  0.00    -0.025 C 
ATOM      8  C   UNL A   1       0.187  -1.605   1.964  0.00  0.00    -0.059 C 
ATOM      9  C   UNL A   1      -1.377   0.070   0.984  0.00  0.00    -0.029 C 
ATOM     10  C   UNL A   1      -2.748  -0.492   1.422  0.00  0.00    -0.049 C 
ATOM     11  C   UNL A   1      -3.992   0.254   0.949  0.00  0.00    -0.049 C 
ATOM     12  C   UNL A   1      -3.948   1.799   0.939  0.00  0.00    -0.031 C 
ATOM     13  C   UNL A   1      -4.956   2.364  -0.119  0.00  0.00    -0.024 C 
ATOM     14  C   UNL A   1      -6.439   1.972   0.207  0.00  0.00    -0.006 C 
ATOM     15  C   UNL A   1      -7.261   3.260   0.085  0.00  0.00    -0.047 C 
ATOM     16  C   UNL A   1      -6.273   4.353   0.447  0.00  0.00    -0.045 C 
ATOM     17  C   UNL A   1      -4.963   3.922  -0.239  0.00  0.00    -0.003 C 
ATOM     18  C   UNL A   1      -5.027   4.319  -1.737  0.00  0.00    -0.057 C 
ATOM     19  C   UNL A   1      -3.758   4.585   0.455  0.00  0.00    +0.061 C 
ATOM     20  C   UNL A   1      -2.476   3.798   0.185  0.00  0.00    -0.020 C 
ATOM     21  C   UNL A   1      -2.488   2.393   0.857  0.00  0.00    -0.021 C 
ATOM     22  C   UNL A   1      -2.063   2.649   2.352  0.00  0.00    -0.059 C 
ATOM     23  C   UNL A   1      -1.456   1.380   0.134  0.00  0.00    -0.023 C 
ATOM     24  C   UNL A   1      -1.925   1.082  -1.322  0.00  0.00    -0.059 C 
ATOM     25  C   UNL A   1      -0.017   2.019   0.045  0.00  0.00    -0.047 C 
ATOM     26  C   UNL A   1       1.164   1.074   0.351  0.00  0.00    -0.049 C 
ATOM     27  C   UNL A   1       0.889  -0.321  -0.213  0.00  0.00    -0.028 C 
ENDROOT
BRANCH  14  28
ATOM     28  C   UNL A   1      -7.017   0.847  -0.633  0.00  0.00    +0.093 C 
ATOM     29  C   UNL A   1      -6.882   0.890  -2.127  0.00  0.00    -0.033 C 
ATOM     30  C   UNL A   1      -7.323  -0.489   0.021  0.00  0.00    +0.077 C 
ATOM     31  O   UNL A   1      -8.348   0.479  -0.216  0.00  0.00    -0.368 OA
ENDBRANCH  14  28
BRANCH   4  32
ATOM     32  O   UNL A   1       2.611  -3.420  -1.537  0.00  0.00    -0.391 OA
ATOM     33  H   UNL A   1       2.908  -3.751  -0.675  0.00  0.00    +0.000 HD
ENDBRANCH   4  32
BRANCH  19  34
ATOM     34  O   UNL A   1      -3.600   5.928   0.007  0.00  0.00    -0.391 OA
ATOM     35  H   UNL A   1      -3.430   5.932  -0.948  0.00  0.00    +0.000 HD
ENDBRANCH  19  34
TORSDOF 3
