MODEL 1
REMARK VINA RESULT:    -8.770      0.000      0.000
REMARK INTER + INTRA:         -10.359
REMARK INTER:                  -9.796
REMARK INTRA:                  -0.563
REMARK UNBOUND:                -0.563
REMARK  Name = cpd280.pdb
REMARK  10 active torsions:
REMARK  status: ('A' for Active; 'I' for Inactive)
REMARK    1  A    between atoms: C_1  and  C_2
REMARK    2  A    between atoms: C_2  and  C_3
REMARK    3  A    between atoms: C_4  and  O_5
REMARK    4  A    between atoms: C_8  and  C_9
REMARK    5  A    between atoms: C_15  and  C_16
REMARK    6  A    between atoms: C_16  and  C_17
REMARK    7  A    between atoms: C_22  and  C_23
REMARK    8  A    between atoms: C_24  and  O_25
REMARK    9  A    between atoms: C_27  and  C_28
REMARK   10  A    between atoms: C_29  and  C_30
REMARK                            x       y       z     vdW  Elec       q    Type
REMARK                         _______ _______ _______ _____ _____    ______ ____
ROOT
ATOM      1  C   UNL A   1      45.989 -21.683 -41.103  0.00  0.00    -0.057 C 
ATOM      2  C   UNL A   1      45.337 -20.291 -40.856  0.00  0.00    -0.006 C 
ATOM      3  C   UNL A   1      45.031 -19.726 -42.255  0.00  0.00    -0.057 C 
ATOM      4  C   UNL A   1      46.383 -19.433 -40.078  0.00  0.00    +0.061 C 
ATOM      5  C   UNL A   1      45.824 -18.165 -39.425  0.00  0.00    -0.026 C 
ATOM      6  C   UNL A   1      44.546 -18.388 -38.599  0.00  0.00    -0.045 C 
ATOM      7  C   UNL A   1      43.437 -19.126 -39.390  0.00  0.00    -0.025 C 
ATOM      8  C   UNL A   1      42.946 -18.163 -40.515  0.00  0.00    -0.059 C 
ATOM      9  C   UNL A   1      42.112 -19.472 -38.565  0.00  0.00    -0.029 C 
ATOM     10  C   UNL A   1      41.574 -18.352 -37.646  0.00  0.00    -0.049 C 
ATOM     11  C   UNL A   1      41.016 -18.769 -36.289  0.00  0.00    -0.049 C 
ATOM     12  C   UNL A   1      40.173 -20.062 -36.221  0.00  0.00    -0.031 C 
ATOM     13  C   UNL A   1      40.235 -20.677 -34.781  0.00  0.00    -0.024 C 
ATOM     14  C   UNL A   1      39.640 -19.710 -33.699  0.00  0.00    -0.006 C 
ATOM     15  C   UNL A   1      38.686 -20.555 -32.847  0.00  0.00    -0.047 C 
ATOM     16  C   UNL A   1      38.192 -21.619 -33.808  0.00  0.00    -0.045 C 
ATOM     17  C   UNL A   1      39.444 -22.014 -34.613  0.00  0.00    -0.003 C 
ATOM     18  C   UNL A   1      40.290 -23.005 -33.771  0.00  0.00    -0.057 C 
ATOM     19  C   UNL A   1      39.034 -22.644 -35.957  0.00  0.00    +0.061 C 
ATOM     20  C   UNL A   1      40.172 -22.546 -36.972  0.00  0.00    -0.020 C 
ATOM     21  C   UNL A   1      40.467 -21.076 -37.395  0.00  0.00    -0.021 C 
ATOM     22  C   UNL A   1      39.397 -20.745 -38.503  0.00  0.00    -0.059 C 
ATOM     23  C   UNL A   1      41.965 -20.915 -37.980  0.00  0.00    -0.023 C 
ATOM     24  C   UNL A   1      43.013 -21.179 -36.857  0.00  0.00    -0.059 C 
ATOM     25  C   UNL A   1      42.231 -21.961 -39.129  0.00  0.00    -0.047 C 
ATOM     26  C   UNL A   1      42.998 -21.436 -40.360  0.00  0.00    -0.049 C 
ATOM     27  C   UNL A   1      44.087 -20.452 -39.929  0.00  0.00    -0.028 C 
ENDROOT
BRANCH  14  28
ATOM     28  C   UNL A   1      40.661 -18.974 -32.849  0.00  0.00    +0.093 C 
ATOM     29  C   UNL A   1      42.028 -19.562 -32.654  0.00  0.00    -0.033 C 
ATOM     30  C   UNL A   1      40.471 -17.493 -32.573  0.00  0.00    +0.077 C 
ATOM     31  O   UNL A   1      40.096 -18.485 -31.615  0.00  0.00    -0.368 OA
ENDBRANCH  14  28
BRANCH   4  32
ATOM     32  O   UNL A   1      47.465 -19.075 -40.937  0.00  0.00    -0.391 OA
ATOM     33  H   UNL A   1      48.203 -18.740 -40.405  0.00  0.00    +0.000 HD
ENDBRANCH   4  32
BRANCH  19  34
ATOM     34  O   UNL A   1      38.668 -24.009 -35.778  0.00  0.00    -0.391 OA
ATOM     35  H   UNL A   1      39.468 -24.555 -35.734  0.00  0.00    +0.000 HD
ENDBRANCH  19  34
TORSDOF 3
ENDMDL
MODEL 2
REMARK VINA RESULT:    -8.043      1.119      1.297
REMARK INTER + INTRA:          -9.546
REMARK INTER:                  -8.966
REMARK INTRA:                  -0.581
REMARK UNBOUND:                -0.563
REMARK  Name = cpd280.pdb
REMARK  10 active torsions:
REMARK  status: ('A' for Active; 'I' for Inactive)
REMARK    1  A    between atoms: C_1  and  C_2
REMARK    2  A    between atoms: C_2  and  C_3
REMARK    3  A    between atoms: C_4  and  O_5
REMARK    4  A    between atoms: C_8  and  C_9
REMARK    5  A    between atoms: C_15  and  C_16
REMARK    6  A    between atoms: C_16  and  C_17
REMARK    7  A    between atoms: C_22  and  C_23
REMARK    8  A    between atoms: C_24  and  O_25
REMARK    9  A    between atoms: C_27  and  C_28
REMARK   10  A    between atoms: C_29  and  C_30
REMARK                            x       y       z     vdW  Elec       q    Type
REMARK                         _______ _______ _______ _____ _____    ______ ____
ROOT
ATOM      1  C   UNL A   1      46.151 -22.340 -41.265  0.00  0.00    -0.057 C 
ATOM      2  C   UNL A   1      45.777 -20.831 -41.189  0.00  0.00    -0.006 C 
ATOM      3  C   UNL A   1      45.516 -20.396 -42.643  0.00  0.00    -0.057 C 
ATOM      4  C   UNL A   1      46.997 -20.094 -40.553  0.00  0.00    +0.061 C 
ATOM      5  C   UNL A   1      46.710 -18.672 -40.059  0.00  0.00    -0.026 C 
ATOM      6  C   UNL A   1      45.452 -18.547 -39.184  0.00  0.00    -0.045 C 
ATOM      7  C   UNL A   1      44.192 -19.156 -39.847  0.00  0.00    -0.025 C 
ATOM      8  C   UNL A   1      43.835 -18.266 -41.078  0.00  0.00    -0.059 C 
ATOM      9  C   UNL A   1      42.864 -19.142 -38.956  0.00  0.00    -0.029 C 
ATOM     10  C   UNL A   1      42.584 -17.835 -38.180  0.00  0.00    -0.049 C 
ATOM     11  C   UNL A   1      42.021 -17.968 -36.768  0.00  0.00    -0.049 C 
ATOM     12  C   UNL A   1      40.958 -19.061 -36.514  0.00  0.00    -0.031 C 
ATOM     13  C   UNL A   1      40.972 -19.492 -35.008  0.00  0.00    -0.024 C 
ATOM     14  C   UNL A   1      40.615 -18.304 -34.048  0.00  0.00    -0.006 C 
ATOM     15  C   UNL A   1      39.561 -18.841 -33.073  0.00  0.00    -0.047 C 
ATOM     16  C   UNL A   1      38.837 -19.905 -33.876  0.00  0.00    -0.045 C 
ATOM     17  C   UNL A   1      39.958 -20.625 -34.649  0.00  0.00    -0.003 C 
ATOM     18  C   UNL A   1      40.645 -21.645 -33.703  0.00  0.00    -0.057 C 
ATOM     19  C   UNL A   1      39.379 -21.330 -35.890  0.00  0.00    +0.061 C 
ATOM     20  C   UNL A   1      40.468 -21.574 -36.934  0.00  0.00    -0.020 C 
ATOM     21  C   UNL A   1      41.008 -20.250 -37.551  0.00  0.00    -0.021 C 
ATOM     22  C   UNL A   1      39.968 -19.864 -38.669  0.00  0.00    -0.059 C 
ATOM     23  C   UNL A   1      42.482 -20.447 -38.184  0.00  0.00    -0.023 C 
ATOM     24  C   UNL A   1      43.514 -20.761 -37.059  0.00  0.00    -0.059 C 
ATOM     25  C   UNL A   1      42.499 -21.660 -39.192  0.00  0.00    -0.047 C 
ATOM     26  C   UNL A   1      43.293 -21.445 -40.498  0.00  0.00    -0.049 C 
ATOM     27  C   UNL A   1      44.562 -20.637 -40.222  0.00  0.00    -0.028 C 
ENDROOT
BRANCH  14  28
ATOM     28  C   UNL A   1      41.790 -17.673 -33.324  0.00  0.00    +0.093 C 
ATOM     29  C   UNL A   1      42.922 -18.537 -32.850  0.00  0.00    -0.033 C 
ATOM     30  C   UNL A   1      42.037 -16.181 -33.464  0.00  0.00    +0.077 C 
ATOM     31  O   UNL A   1      41.372 -16.724 -32.321  0.00  0.00    -0.368 OA
ENDBRANCH  14  28
BRANCH   4  32
ATOM     32  O   UNL A   1      48.086 -20.055 -41.473  0.00  0.00    -0.391 OA
ATOM     33  H   UNL A   1      48.766 -19.447 -41.145  0.00  0.00    +0.000 HD
ENDBRANCH   4  32
BRANCH  19  34
ATOM     34  O   UNL A   1      38.777 -22.568 -35.526  0.00  0.00    -0.391 OA
ATOM     35  H   UNL A   1      38.285 -22.924 -36.283  0.00  0.00    +0.000 HD
ENDBRANCH  19  34
TORSDOF 3
ENDMDL
MODEL 3
REMARK VINA RESULT:    -7.883      1.790      8.092
REMARK INTER + INTRA:          -9.367
REMARK INTER:                  -8.798
REMARK INTRA:                  -0.569
REMARK UNBOUND:                -0.563
REMARK  Name = cpd280.pdb
REMARK  10 active torsions:
REMARK  status: ('A' for Active; 'I' for Inactive)
REMARK    1  A    between atoms: C_1  and  C_2
REMARK    2  A    between atoms: C_2  and  C_3
REMARK    3  A    between atoms: C_4  and  O_5
REMARK    4  A    between atoms: C_8  and  C_9
REMARK    5  A    between atoms: C_15  and  C_16
REMARK    6  A    between atoms: C_16  and  C_17
REMARK    7  A    between atoms: C_22  and  C_23
REMARK    8  A    between atoms: C_24  and  O_25
REMARK    9  A    between atoms: C_27  and  C_28
REMARK   10  A    between atoms: C_29  and  C_30
REMARK                            x       y       z     vdW  Elec       q    Type
REMARK                         _______ _______ _______ _____ _____    ______ ____
ROOT
ATOM      1  C   UNL A   1      40.560 -21.798 -31.906  0.00  0.00    -0.057 C 
ATOM      2  C   UNL A   1      39.775 -21.709 -33.248  0.00  0.00    -0.006 C 
ATOM      3  C   UNL A   1      38.416 -21.082 -32.889  0.00  0.00    -0.057 C 
ATOM      4  C   UNL A   1      39.639 -23.167 -33.789  0.00  0.00    +0.061 C 
ATOM      5  C   UNL A   1      39.220 -23.276 -35.259  0.00  0.00    -0.026 C 
ATOM      6  C   UNL A   1      40.032 -22.389 -36.217  0.00  0.00    -0.045 C 
ATOM      7  C   UNL A   1      40.077 -20.905 -35.774  0.00  0.00    -0.025 C 
ATOM      8  C   UNL A   1      38.635 -20.329 -35.922  0.00  0.00    -0.059 C 
ATOM      9  C   UNL A   1      40.979 -19.940 -36.675  0.00  0.00    -0.029 C 
ATOM     10  C   UNL A   1      40.849 -20.124 -38.203  0.00  0.00    -0.049 C 
ATOM     11  C   UNL A   1      42.126 -20.014 -39.031  0.00  0.00    -0.049 C 
ATOM     12  C   UNL A   1      43.150 -18.925 -38.639  0.00  0.00    -0.031 C 
ATOM     13  C   UNL A   1      44.587 -19.338 -39.105  0.00  0.00    -0.024 C 
ATOM     14  C   UNL A   1      44.685 -19.488 -40.663  0.00  0.00    -0.006 C 
ATOM     15  C   UNL A   1      45.940 -18.719 -41.091  0.00  0.00    -0.047 C 
ATOM     16  C   UNL A   1      46.063 -17.623 -40.049  0.00  0.00    -0.045 C 
ATOM     17  C   UNL A   1      45.709 -18.320 -38.722  0.00  0.00    -0.003 C 
ATOM     18  C   UNL A   1      46.953 -19.096 -38.216  0.00  0.00    -0.057 C 
ATOM     19  C   UNL A   1      45.250 -17.280 -37.683  0.00  0.00    +0.061 C 
ATOM     20  C   UNL A   1      44.404 -17.938 -36.594  0.00  0.00    -0.020 C 
ATOM     21  C   UNL A   1      43.040 -18.461 -37.134  0.00  0.00    -0.021 C 
ATOM     22  C   UNL A   1      42.097 -17.200 -37.159  0.00  0.00    -0.059 C 
ATOM     23  C   UNL A   1      42.427 -19.615 -36.183  0.00  0.00    -0.023 C 
ATOM     24  C   UNL A   1      43.334 -20.882 -36.220  0.00  0.00    -0.059 C 
ATOM     25  C   UNL A   1      42.360 -19.127 -34.685  0.00  0.00    -0.047 C 
ATOM     26  C   UNL A   1      41.081 -19.499 -33.907  0.00  0.00    -0.049 C 
ATOM     27  C   UNL A   1      40.611 -20.902 -34.296  0.00  0.00    -0.028 C 
ENDROOT
BRANCH  14  28
ATOM     28  C   UNL A   1      44.688 -20.915 -41.182  0.00  0.00    +0.093 C 
ATOM     29  C   UNL A   1      45.479 -21.967 -40.461  0.00  0.00    -0.033 C 
ATOM     30  C   UNL A   1      43.586 -21.367 -42.124  0.00  0.00    +0.077 C 
ATOM     31  O   UNL A   1      44.873 -20.978 -42.612  0.00  0.00    -0.368 OA
ENDBRANCH  14  28
BRANCH   4  32
ATOM     32  O   UNL A   1      38.720 -23.908 -32.988  0.00  0.00    -0.391 OA
ATOM     33  H   UNL A   1      37.846 -23.904 -33.409  0.00  0.00    +0.000 HD
ENDBRANCH   4  32
BRANCH  19  34
ATOM     34  O   UNL A   1      46.374 -16.633 -37.092  0.00  0.00    -0.391 OA
ATOM     35  H   UNL A   1      46.111 -16.238 -36.246  0.00  0.00    +0.000 HD
ENDBRANCH  19  34
TORSDOF 3
ENDMDL
MODEL 4
REMARK VINA RESULT:    -7.738      2.294      7.562
REMARK INTER + INTRA:          -9.206
REMARK INTER:                  -8.634
REMARK INTRA:                  -0.572
REMARK UNBOUND:                -0.563
REMARK  Name = cpd280.pdb
REMARK  10 active torsions:
REMARK  status: ('A' for Active; 'I' for Inactive)
REMARK    1  A    between atoms: C_1  and  C_2
REMARK    2  A    between atoms: C_2  and  C_3
REMARK    3  A    between atoms: C_4  and  O_5
REMARK    4  A    between atoms: C_8  and  C_9
REMARK    5  A    between atoms: C_15  and  C_16
REMARK    6  A    between atoms: C_16  and  C_17
REMARK    7  A    between atoms: C_22  and  C_23
REMARK    8  A    between atoms: C_24  and  O_25
REMARK    9  A    between atoms: C_27  and  C_28
REMARK   10  A    between atoms: C_29  and  C_30
REMARK                            x       y       z     vdW  Elec       q    Type
REMARK                         _______ _______ _______ _____ _____    ______ ____
ROOT
ATOM      1  C   UNL A   1      36.297 -17.740 -34.581  0.00  0.00    -0.057 C 
ATOM      2  C   UNL A   1      37.329 -18.384 -33.611  0.00  0.00    -0.006 C 
ATOM      3  C   UNL A   1      36.522 -19.369 -32.745  0.00  0.00    -0.057 C 
ATOM      4  C   UNL A   1      37.952 -17.223 -32.775  0.00  0.00    +0.061 C 
ATOM      5  C   UNL A   1      39.235 -17.583 -32.019  0.00  0.00    -0.026 C 
ATOM      6  C   UNL A   1      40.294 -18.299 -32.873  0.00  0.00    -0.045 C 
ATOM      7  C   UNL A   1      39.735 -19.538 -33.615  0.00  0.00    -0.025 C 
ATOM      8  C   UNL A   1      39.390 -20.612 -32.538  0.00  0.00    -0.059 C 
ATOM      9  C   UNL A   1      40.759 -20.281 -34.594  0.00  0.00    -0.029 C 
ATOM     10  C   UNL A   1      42.191 -20.481 -34.049  0.00  0.00    -0.049 C 
ATOM     11  C   UNL A   1      43.344 -20.296 -35.030  0.00  0.00    -0.049 C 
ATOM     12  C   UNL A   1      43.164 -20.835 -36.467  0.00  0.00    -0.031 C 
ATOM     13  C   UNL A   1      44.075 -20.040 -37.464  0.00  0.00    -0.024 C 
ATOM     14  C   UNL A   1      45.599 -20.195 -37.128  0.00  0.00    -0.006 C 
ATOM     15  C   UNL A   1      46.298 -20.533 -38.449  0.00  0.00    -0.047 C 
ATOM     16  C   UNL A   1      45.233 -21.266 -39.243  0.00  0.00    -0.045 C 
ATOM     17  C   UNL A   1      43.940 -20.481 -38.957  0.00  0.00    -0.003 C 
ATOM     18  C   UNL A   1      43.908 -19.221 -39.861  0.00  0.00    -0.057 C 
ATOM     19  C   UNL A   1      42.710 -21.373 -39.213  0.00  0.00    +0.061 C 
ATOM     20  C   UNL A   1      41.493 -20.850 -38.451  0.00  0.00    -0.020 C 
ATOM     21  C   UNL A   1      41.655 -20.979 -36.908  0.00  0.00    -0.021 C 
ATOM     22  C   UNL A   1      41.271 -22.471 -36.578  0.00  0.00    -0.059 C 
ATOM     23  C   UNL A   1      40.688 -19.951 -36.120  0.00  0.00    -0.023 C 
ATOM     24  C   UNL A   1      41.122 -18.481 -36.402  0.00  0.00    -0.059 C 
ATOM     25  C   UNL A   1      39.196 -20.104 -36.607  0.00  0.00    -0.047 C 
ATOM     26  C   UNL A   1      38.116 -20.062 -35.506  0.00  0.00    -0.049 C 
ATOM     27  C   UNL A   1      38.490 -19.038 -34.433  0.00  0.00    -0.028 C 
ENDROOT
BRANCH  14  28
ATOM     28  C   UNL A   1      46.239 -19.007 -36.433  0.00  0.00    +0.093 C 
ATOM     29  C   UNL A   1      45.901 -17.615 -36.880  0.00  0.00    -0.033 C 
ATOM     30  C   UNL A   1      46.846 -19.189 -35.053  0.00  0.00    +0.077 C 
ATOM     31  O   UNL A   1      47.656 -19.187 -36.232  0.00  0.00    -0.368 OA
ENDBRANCH  14  28
BRANCH   4  32
ATOM     32  O   UNL A   1      36.995 -16.711 -31.850  0.00  0.00    -0.391 OA
ATOM     33  H   UNL A   1      36.712 -15.827 -32.131  0.00  0.00    +0.000 HD
ENDBRANCH   4  32
BRANCH  19  34
ATOM     34  O   UNL A   1      42.417 -21.432 -40.605  0.00  0.00    -0.391 OA
ATOM     35  H   UNL A   1      41.941 -22.255 -40.800  0.00  0.00    +0.000 HD
ENDBRANCH  19  34
TORSDOF 3
ENDMDL
MODEL 5
REMARK VINA RESULT:    -7.674     17.593     22.348
REMARK INTER + INTRA:          -9.134
REMARK INTER:                  -8.583
REMARK INTRA:                  -0.551
REMARK UNBOUND:                -0.563
REMARK  Name = cpd280.pdb
REMARK  10 active torsions:
REMARK  status: ('A' for Active; 'I' for Inactive)
REMARK    1  A    between atoms: C_1  and  C_2
REMARK    2  A    between atoms: C_2  and  C_3
REMARK    3  A    between atoms: C_4  and  O_5
REMARK    4  A    between atoms: C_8  and  C_9
REMARK    5  A    between atoms: C_15  and  C_16
REMARK    6  A    between atoms: C_16  and  C_17
REMARK    7  A    between atoms: C_22  and  C_23
REMARK    8  A    between atoms: C_24  and  O_25
REMARK    9  A    between atoms: C_27  and  C_28
REMARK   10  A    between atoms: C_29  and  C_30
REMARK                            x       y       z     vdW  Elec       q    Type
REMARK                         _______ _______ _______ _____ _____    ______ ____
ROOT
ATOM      1  C   UNL A   1      33.500 -44.049 -28.707  0.00  0.00    -0.057 C 
ATOM      2  C   UNL A   1      33.293 -43.072 -27.514  0.00  0.00    -0.006 C 
ATOM      3  C   UNL A   1      33.947 -43.758 -26.301  0.00  0.00    -0.057 C 
ATOM      4  C   UNL A   1      31.752 -42.889 -27.340  0.00  0.00    +0.061 C 
ATOM      5  C   UNL A   1      31.334 -41.704 -26.465  0.00  0.00    -0.026 C 
ATOM      6  C   UNL A   1      32.026 -40.378 -26.822  0.00  0.00    -0.045 C 
ATOM      7  C   UNL A   1      33.569 -40.496 -26.874  0.00  0.00    -0.025 C 
ATOM      8  C   UNL A   1      34.068 -40.754 -25.418  0.00  0.00    -0.059 C 
ATOM      9  C   UNL A   1      34.351 -39.177 -27.327  0.00  0.00    -0.029 C 
ATOM     10  C   UNL A   1      33.854 -37.850 -26.710  0.00  0.00    -0.049 C 
ATOM     11  C   UNL A   1      33.822 -36.625 -27.619  0.00  0.00    -0.049 C 
ATOM     12  C   UNL A   1      34.994 -36.430 -28.608  0.00  0.00    -0.031 C 
ATOM     13  C   UNL A   1      34.529 -35.578 -29.839  0.00  0.00    -0.024 C 
ATOM     14  C   UNL A   1      34.065 -34.139 -29.422  0.00  0.00    -0.006 C 
ATOM     15  C   UNL A   1      34.760 -33.168 -30.383  0.00  0.00    -0.047 C 
ATOM     16  C   UNL A   1      36.049 -33.882 -30.745  0.00  0.00    -0.045 C 
ATOM     17  C   UNL A   1      35.631 -35.353 -30.924  0.00  0.00    -0.003 C 
ATOM     18  C   UNL A   1      35.005 -35.529 -32.332  0.00  0.00    -0.057 C 
ATOM     19  C   UNL A   1      36.850 -36.277 -30.744  0.00  0.00    +0.061 C 
ATOM     20  C   UNL A   1      36.409 -37.693 -30.378  0.00  0.00    -0.020 C 
ATOM     21  C   UNL A   1      35.753 -37.766 -28.967  0.00  0.00    -0.021 C 
ATOM     22  C   UNL A   1      36.959 -37.838 -27.957  0.00  0.00    -0.059 C 
ATOM     23  C   UNL A   1      34.804 -39.066 -28.820  0.00  0.00    -0.023 C 
ATOM     24  C   UNL A   1      33.579 -38.950 -29.776  0.00  0.00    -0.059 C 
ATOM     25  C   UNL A   1      35.588 -40.377 -29.214  0.00  0.00    -0.047 C 
ATOM     26  C   UNL A   1      35.352 -41.605 -28.310  0.00  0.00    -0.049 C 
ATOM     27  C   UNL A   1      33.888 -41.669 -27.870  0.00  0.00    -0.028 C 
ENDROOT
BRANCH  14  28
ATOM     28  C   UNL A   1      32.562 -33.923 -29.384  0.00  0.00    +0.093 C 
ATOM     29  C   UNL A   1      31.660 -34.832 -30.167  0.00  0.00    -0.033 C 
ATOM     30  C   UNL A   1      31.955 -33.111 -28.253  0.00  0.00    +0.077 C 
ATOM     31  O   UNL A   1      32.204 -32.534 -29.538  0.00  0.00    -0.368 OA
ENDBRANCH  14  28
BRANCH   4  32
ATOM     32  O   UNL A   1      31.170 -44.082 -26.817  0.00  0.00    -0.391 OA
ATOM     33  H   UNL A   1      31.438 -44.194 -25.892  0.00  0.00    +0.000 HD
ENDBRANCH   4  32
BRANCH  19  34
ATOM     34  O   UNL A   1      37.631 -36.310 -31.935  0.00  0.00    -0.391 OA
ATOM     35  H   UNL A   1      37.213 -35.755 -32.612  0.00  0.00    +0.000 HD
ENDBRANCH  19  34
TORSDOF 3
ENDMDL
MODEL 6
REMARK VINA RESULT:    -7.244      1.798      3.669
REMARK INTER + INTRA:          -8.654
REMARK INTER:                  -8.111
REMARK INTRA:                  -0.542
REMARK UNBOUND:                -0.563
REMARK  Name = cpd280.pdb
REMARK  10 active torsions:
REMARK  status: ('A' for Active; 'I' for Inactive)
REMARK    1  A    between atoms: C_1  and  C_2
REMARK    2  A    between atoms: C_2  and  C_3
REMARK    3  A    between atoms: C_4  and  O_5
REMARK    4  A    between atoms: C_8  and  C_9
REMARK    5  A    between atoms: C_15  and  C_16
REMARK    6  A    between atoms: C_16  and  C_17
REMARK    7  A    between atoms: C_22  and  C_23
REMARK    8  A    between atoms: C_24  and  O_25
REMARK    9  A    between atoms: C_27  and  C_28
REMARK   10  A    between atoms: C_29  and  C_30
REMARK                            x       y       z     vdW  Elec       q    Type
REMARK                         _______ _______ _______ _____ _____    ______ ____
ROOT
ATOM      1  C   UNL A   1      44.249 -18.029 -41.755  0.00  0.00    -0.057 C 
ATOM      2  C   UNL A   1      45.026 -18.616 -40.541  0.00  0.00    -0.006 C 
ATOM      3  C   UNL A   1      46.321 -17.788 -40.442  0.00  0.00    -0.057 C 
ATOM      4  C   UNL A   1      45.298 -20.119 -40.861  0.00  0.00    +0.061 C 
ATOM      5  C   UNL A   1      45.729 -20.970 -39.662  0.00  0.00    -0.026 C 
ATOM      6  C   UNL A   1      44.842 -20.806 -38.417  0.00  0.00    -0.045 C 
ATOM      7  C   UNL A   1      44.660 -19.326 -37.995  0.00  0.00    -0.025 C 
ATOM      8  C   UNL A   1      46.043 -18.809 -37.493  0.00  0.00    -0.059 C 
ATOM      9  C   UNL A   1      43.676 -19.074 -36.761  0.00  0.00    -0.029 C 
ATOM     10  C   UNL A   1      43.827 -20.042 -35.566  0.00  0.00    -0.049 C 
ATOM     11  C   UNL A   1      42.548 -20.498 -34.870  0.00  0.00    -0.049 C 
ATOM     12  C   UNL A   1      41.427 -19.454 -34.663  0.00  0.00    -0.031 C 
ATOM     13  C   UNL A   1      40.035 -20.165 -34.560  0.00  0.00    -0.024 C 
ATOM     14  C   UNL A   1      39.956 -21.139 -33.333  0.00  0.00    -0.006 C 
ATOM     15  C   UNL A   1      38.637 -20.824 -32.618  0.00  0.00    -0.047 C 
ATOM     16  C   UNL A   1      38.411 -19.353 -32.913  0.00  0.00    -0.045 C 
ATOM     17  C   UNL A   1      38.823 -19.194 -34.388  0.00  0.00    -0.003 C 
ATOM     18  C   UNL A   1      37.654 -19.671 -35.290  0.00  0.00    -0.057 C 
ATOM     19  C   UNL A   1      39.181 -17.725 -34.684  0.00  0.00    +0.061 C 
ATOM     20  C   UNL A   1      40.081 -17.623 -35.915  0.00  0.00    -0.020 C 
ATOM     21  C   UNL A   1      41.488 -18.245 -35.676  0.00  0.00    -0.021 C 
ATOM     22  C   UNL A   1      42.311 -17.126 -34.934  0.00  0.00    -0.059 C 
ATOM     23  C   UNL A   1      42.202 -18.652 -37.069  0.00  0.00    -0.023 C 
ATOM     24  C   UNL A   1      41.416 -19.806 -37.760  0.00  0.00    -0.059 C 
ATOM     25  C   UNL A   1      42.219 -17.429 -38.065  0.00  0.00    -0.047 C 
ATOM     26  C   UNL A   1      43.525 -17.221 -38.860  0.00  0.00    -0.049 C 
ATOM     27  C   UNL A   1      44.123 -18.570 -39.264  0.00  0.00    -0.028 C 
ENDROOT
BRANCH  14  28
ATOM     28  C   UNL A   1      40.086 -22.615 -33.662  0.00  0.00    +0.093 C 
ATOM     29  C   UNL A   1      39.827 -23.091 -35.061  0.00  0.00    -0.033 C 
ATOM     30  C   UNL A   1      40.879 -23.518 -32.733  0.00  0.00    +0.077 C 
ATOM     31  O   UNL A   1      39.452 -23.455 -32.675  0.00  0.00    -0.368 OA
ENDBRANCH  14  28
BRANCH   4  32
ATOM     32  O   UNL A   1      46.278 -20.235 -41.891  0.00  0.00    -0.391 OA
ATOM     33  H   UNL A   1      47.070 -19.733 -41.643  0.00  0.00    +0.000 HD
ENDBRANCH   4  32
BRANCH  19  34
ATOM     34  O   UNL A   1      38.001 -16.954 -34.886  0.00  0.00    -0.391 OA
ATOM     35  H   UNL A   1      37.318 -17.509 -35.295  0.00  0.00    +0.000 HD
ENDBRANCH  19  34
TORSDOF 3
ENDMDL
MODEL 7
REMARK VINA RESULT:    -7.241      1.770      8.135
REMARK INTER + INTRA:          -8.651
REMARK INTER:                  -8.095
REMARK INTRA:                  -0.556
REMARK UNBOUND:                -0.563
REMARK  Name = cpd280.pdb
REMARK  10 active torsions:
REMARK  status: ('A' for Active; 'I' for Inactive)
REMARK    1  A    between atoms: C_1  and  C_2
REMARK    2  A    between atoms: C_2  and  C_3
REMARK    3  A    between atoms: C_4  and  O_5
REMARK    4  A    between atoms: C_8  and  C_9
REMARK    5  A    between atoms: C_15  and  C_16
REMARK    6  A    between atoms: C_16  and  C_17
REMARK    7  A    between atoms: C_22  and  C_23
REMARK    8  A    between atoms: C_24  and  O_25
REMARK    9  A    between atoms: C_27  and  C_28
REMARK   10  A    between atoms: C_29  and  C_30
REMARK                            x       y       z     vdW  Elec       q    Type
REMARK                         _______ _______ _______ _____ _____    ______ ____
ROOT
ATOM      1  C   UNL A   1      39.880 -19.002 -31.997  0.00  0.00    -0.057 C 
ATOM      2  C   UNL A   1      39.567 -19.948 -33.193  0.00  0.00    -0.006 C 
ATOM      3  C   UNL A   1      38.034 -19.943 -33.332  0.00  0.00    -0.057 C 
ATOM      4  C   UNL A   1      40.131 -21.354 -32.816  0.00  0.00    +0.061 C 
ATOM      5  C   UNL A   1      40.251 -22.339 -33.984  0.00  0.00    -0.026 C 
ATOM      6  C   UNL A   1      40.946 -21.763 -35.229  0.00  0.00    -0.045 C 
ATOM      7  C   UNL A   1      40.322 -20.428 -35.706  0.00  0.00    -0.025 C 
ATOM      8  C   UNL A   1      38.890 -20.744 -36.237  0.00  0.00    -0.059 C 
ATOM      9  C   UNL A   1      41.052 -19.725 -36.944  0.00  0.00    -0.029 C 
ATOM     10  C   UNL A   1      41.471 -20.659 -38.101  0.00  0.00    -0.049 C 
ATOM     11  C   UNL A   1      42.814 -20.381 -38.771  0.00  0.00    -0.049 C 
ATOM     12  C   UNL A   1      43.210 -18.906 -39.011  0.00  0.00    -0.031 C 
ATOM     13  C   UNL A   1      44.769 -18.767 -39.078  0.00  0.00    -0.024 C 
ATOM     14  C   UNL A   1      45.387 -19.584 -40.265  0.00  0.00    -0.006 C 
ATOM     15  C   UNL A   1      46.352 -18.634 -40.984  0.00  0.00    -0.047 C 
ATOM     16  C   UNL A   1      45.752 -17.262 -40.745  0.00  0.00    -0.045 C 
ATOM     17  C   UNL A   1      45.280 -17.304 -39.279  0.00  0.00    -0.003 C 
ATOM     18  C   UNL A   1      46.500 -17.057 -38.353  0.00  0.00    -0.057 C 
ATOM     19  C   UNL A   1      44.186 -16.246 -39.043  0.00  0.00    +0.061 C 
ATOM     20  C   UNL A   1      43.339 -16.604 -37.822  0.00  0.00    -0.020 C 
ATOM     21  C   UNL A   1      42.487 -17.889 -38.045  0.00  0.00    -0.021 C 
ATOM     22  C   UNL A   1      41.214 -17.404 -38.836  0.00  0.00    -0.059 C 
ATOM     23  C   UNL A   1      42.064 -18.572 -36.643  0.00  0.00    -0.023 C 
ATOM     24  C   UNL A   1      43.327 -19.108 -35.902  0.00  0.00    -0.059 C 
ATOM     25  C   UNL A   1      41.372 -17.519 -35.695  0.00  0.00    -0.047 C 
ATOM     26  C   UNL A   1      40.136 -18.017 -34.917  0.00  0.00    -0.049 C 
ATOM     27  C   UNL A   1      40.340 -19.464 -34.465  0.00  0.00    -0.028 C 
ENDROOT
BRANCH  14  28
ATOM     28  C   UNL A   1      46.056 -20.891 -39.881  0.00  0.00    +0.093 C 
ATOM     29  C   UNL A   1      46.538 -21.094 -38.474  0.00  0.00    -0.033 C 
ATOM     30  C   UNL A   1      45.849 -22.118 -40.752  0.00  0.00    +0.077 C 
ATOM     31  O   UNL A   1      47.028 -21.318 -40.857  0.00  0.00    -0.368 OA
ENDBRANCH  14  28
BRANCH   4  32
ATOM     32  O   UNL A   1      39.338 -21.946 -31.789  0.00  0.00    -0.391 OA
ATOM     33  H   UNL A   1      38.835 -22.690 -32.156  0.00  0.00    +0.000 HD
ENDBRANCH   4  32
BRANCH  19  34
ATOM     34  O   UNL A   1      44.767 -14.958 -38.862  0.00  0.00    -0.391 OA
ATOM     35  H   UNL A   1      45.734 -15.038 -38.853  0.00  0.00    +0.000 HD
ENDBRANCH  19  34
TORSDOF 3
ENDMDL
MODEL 8
REMARK VINA RESULT:    -7.063     20.994     24.970
REMARK INTER + INTRA:          -8.452
REMARK INTER:                  -7.884
REMARK INTRA:                  -0.568
REMARK UNBOUND:                -0.563
REMARK  Name = cpd280.pdb
REMARK  10 active torsions:
REMARK  status: ('A' for Active; 'I' for Inactive)
REMARK    1  A    between atoms: C_1  and  C_2
REMARK    2  A    between atoms: C_2  and  C_3
REMARK    3  A    between atoms: C_4  and  O_5
REMARK    4  A    between atoms: C_8  and  C_9
REMARK    5  A    between atoms: C_15  and  C_16
REMARK    6  A    between atoms: C_16  and  C_17
REMARK    7  A    between atoms: C_22  and  C_23
REMARK    8  A    between atoms: C_24  and  O_25
REMARK    9  A    between atoms: C_27  and  C_28
REMARK   10  A    between atoms: C_29  and  C_30
REMARK                            x       y       z     vdW  Elec       q    Type
REMARK                         _______ _______ _______ _____ _____    ______ ____
ROOT
ATOM      1  C   UNL A   1      48.471 -40.105 -55.963  0.00  0.00    -0.057 C 
ATOM      2  C   UNL A   1      47.074 -39.525 -56.327  0.00  0.00    -0.006 C 
ATOM      3  C   UNL A   1      46.052 -40.444 -55.632  0.00  0.00    -0.057 C 
ATOM      4  C   UNL A   1      46.957 -39.567 -57.883  0.00  0.00    +0.061 C 
ATOM      5  C   UNL A   1      45.822 -38.723 -58.471  0.00  0.00    -0.026 C 
ATOM      6  C   UNL A   1      45.761 -37.283 -57.937  0.00  0.00    -0.045 C 
ATOM      7  C   UNL A   1      45.744 -37.213 -56.389  0.00  0.00    -0.025 C 
ATOM      8  C   UNL A   1      44.384 -37.807 -55.910  0.00  0.00    -0.059 C 
ATOM      9  C   UNL A   1      45.772 -35.742 -55.762  0.00  0.00    -0.029 C 
ATOM     10  C   UNL A   1      44.851 -34.701 -56.437  0.00  0.00    -0.049 C 
ATOM     11  C   UNL A   1      45.395 -33.283 -56.590  0.00  0.00    -0.049 C 
ATOM     12  C   UNL A   1      46.217 -32.694 -55.421  0.00  0.00    -0.031 C 
ATOM     13  C   UNL A   1      47.198 -31.592 -55.948  0.00  0.00    -0.024 C 
ATOM     14  C   UNL A   1      46.438 -30.385 -56.598  0.00  0.00    -0.006 C 
ATOM     15  C   UNL A   1      47.053 -29.116 -55.997  0.00  0.00    -0.047 C 
ATOM     16  C   UNL A   1      47.511 -29.555 -54.620  0.00  0.00    -0.045 C 
ATOM     17  C   UNL A   1      48.108 -30.957 -54.848  0.00  0.00    -0.003 C 
ATOM     18  C   UNL A   1      49.548 -30.804 -55.403  0.00  0.00    -0.057 C 
ATOM     19  C   UNL A   1      48.108 -31.755 -53.531  0.00  0.00    +0.061 C 
ATOM     20  C   UNL A   1      48.168 -33.257 -53.806  0.00  0.00    -0.020 C 
ATOM     21  C   UNL A   1      46.875 -33.788 -54.492  0.00  0.00    -0.021 C 
ATOM     22  C   UNL A   1      45.846 -34.004 -53.319  0.00  0.00    -0.059 C 
ATOM     23  C   UNL A   1      47.146 -35.174 -55.279  0.00  0.00    -0.023 C 
ATOM     24  C   UNL A   1      48.112 -34.933 -56.478  0.00  0.00    -0.059 C 
ATOM     25  C   UNL A   1      47.829 -36.231 -54.328  0.00  0.00    -0.047 C 
ATOM     26  C   UNL A   1      47.309 -37.679 -54.439  0.00  0.00    -0.049 C 
ATOM     27  C   UNL A   1      46.998 -38.022 -55.897  0.00  0.00    -0.028 C 
ENDROOT
BRANCH  14  28
ATOM     28  C   UNL A   1      46.439 -30.353 -58.116  0.00  0.00    +0.093 C 
ATOM     29  C   UNL A   1      47.575 -30.979 -58.872  0.00  0.00    -0.033 C 
ATOM     30  C   UNL A   1      45.137 -30.102 -58.857  0.00  0.00    +0.077 C 
ATOM     31  O   UNL A   1      46.086 -29.056 -58.639  0.00  0.00    -0.368 OA
ENDBRANCH  14  28
BRANCH   4  32
ATOM     32  O   UNL A   1      46.814 -40.914 -58.331  0.00  0.00    -0.391 OA
ATOM     33  H   UNL A   1      46.586 -40.920 -59.274  0.00  0.00    +0.000 HD
ENDBRANCH   4  32
BRANCH  19  34
ATOM     34  O   UNL A   1      49.210 -31.372 -52.714  0.00  0.00    -0.391 OA
ATOM     35  H   UNL A   1      49.278 -30.405 -52.696  0.00  0.00    +0.000 HD
ENDBRANCH  19  34
TORSDOF 3
ENDMDL
MODEL 9
REMARK VINA RESULT:    -7.059      2.138      3.280
REMARK INTER + INTRA:          -8.447
REMARK INTER:                  -7.866
REMARK INTRA:                  -0.581
REMARK UNBOUND:                -0.563
REMARK  Name = cpd280.pdb
REMARK  10 active torsions:
REMARK  status: ('A' for Active; 'I' for Inactive)
REMARK    1  A    between atoms: C_1  and  C_2
REMARK    2  A    between atoms: C_2  and  C_3
REMARK    3  A    between atoms: C_4  and  O_5
REMARK    4  A    between atoms: C_8  and  C_9
REMARK    5  A    between atoms: C_15  and  C_16
REMARK    6  A    between atoms: C_16  and  C_17
REMARK    7  A    between atoms: C_22  and  C_23
REMARK    8  A    between atoms: C_24  and  O_25
REMARK    9  A    between atoms: C_27  and  C_28
REMARK   10  A    between atoms: C_29  and  C_30
REMARK                            x       y       z     vdW  Elec       q    Type
REMARK                         _______ _______ _______ _____ _____    ______ ____
ROOT
ATOM      1  C   UNL A   1      46.438 -17.847 -37.899  0.00  0.00    -0.057 C 
ATOM      2  C   UNL A   1      45.243 -18.215 -38.827  0.00  0.00    -0.006 C 
ATOM      3  C   UNL A   1      45.846 -19.070 -39.956  0.00  0.00    -0.057 C 
ATOM      4  C   UNL A   1      44.644 -16.871 -39.347  0.00  0.00    +0.061 C 
ATOM      5  C   UNL A   1      43.254 -16.983 -39.981  0.00  0.00    -0.026 C 
ATOM      6  C   UNL A   1      42.236 -17.771 -39.141  0.00  0.00    -0.045 C 
ATOM      7  C   UNL A   1      42.753 -19.168 -38.717  0.00  0.00    -0.025 C 
ATOM      8  C   UNL A   1      42.867 -20.036 -40.009  0.00  0.00    -0.059 C 
ATOM      9  C   UNL A   1      41.782 -20.008 -37.765  0.00  0.00    -0.029 C 
ATOM     10  C   UNL A   1      40.284 -19.994 -38.144  0.00  0.00    -0.049 C 
ATOM     11  C   UNL A   1      39.275 -19.917 -37.003  0.00  0.00    -0.049 C 
ATOM     12  C   UNL A   1      39.566 -20.736 -35.725  0.00  0.00    -0.031 C 
ATOM     13  C   UNL A   1      38.858 -20.083 -34.489  0.00  0.00    -0.024 C 
ATOM     14  C   UNL A   1      37.297 -20.059 -34.645  0.00  0.00    -0.006 C 
ATOM     15  C   UNL A   1      36.725 -20.593 -33.327  0.00  0.00    -0.047 C 
ATOM     16  C   UNL A   1      37.798 -21.542 -32.827  0.00  0.00    -0.045 C 
ATOM     17  C   UNL A   1      39.120 -20.813 -33.132  0.00  0.00    -0.003 C 
ATOM     18  C   UNL A   1      39.378 -19.758 -32.025  0.00  0.00    -0.057 C 
ATOM     19  C   UNL A   1      40.279 -21.826 -33.208  0.00  0.00    +0.061 C 
ATOM     20  C   UNL A   1      41.445 -21.257 -34.014  0.00  0.00    -0.020 C 
ATOM     21  C   UNL A   1      41.094 -21.073 -35.520  0.00  0.00    -0.021 C 
ATOM     22  C   UNL A   1      41.292 -22.496 -36.165  0.00  0.00    -0.059 C 
ATOM     23  C   UNL A   1      42.060 -19.985 -36.226  0.00  0.00    -0.023 C 
ATOM     24  C   UNL A   1      41.806 -18.570 -35.626  0.00  0.00    -0.059 C 
ATOM     25  C   UNL A   1      43.576 -20.339 -35.976  0.00  0.00    -0.047 C 
ATOM     26  C   UNL A   1      44.521 -20.165 -37.184  0.00  0.00    -0.049 C 
ATOM     27  C   UNL A   1      44.127 -18.928 -37.993  0.00  0.00    -0.028 C 
ENDROOT
BRANCH  14  28
ATOM     28  C   UNL A   1      36.700 -18.714 -35.021  0.00  0.00    +0.093 C 
ATOM     29  C   UNL A   1      37.307 -17.453 -34.479  0.00  0.00    -0.033 C 
ATOM     30  C   UNL A   1      35.809 -18.612 -36.246  0.00  0.00    +0.077 C 
ATOM     31  O   UNL A   1      35.260 -18.709 -34.929  0.00  0.00    -0.368 OA
ENDBRANCH  14  28
BRANCH   4  32
ATOM     32  O   UNL A   1      45.533 -16.262 -40.282  0.00  0.00    -0.391 OA
ATOM     33  H   UNL A   1      46.439 -16.564 -40.110  0.00  0.00    +0.000 HD
ENDBRANCH   4  32
BRANCH  19  34
ATOM     34  O   UNL A   1      40.723 -22.175 -31.900  0.00  0.00    -0.391 OA
ATOM     35  H   UNL A   1      41.599 -21.787 -31.743  0.00  0.00    +0.000 HD
ENDBRANCH  19  34
TORSDOF 3
ENDMDL
MODEL 10
REMARK VINA RESULT:    -7.026      2.661      5.314
REMARK INTER + INTRA:          -8.411
REMARK INTER:                  -7.933
REMARK INTRA:                  -0.478
REMARK UNBOUND:                -0.563
REMARK  Name = cpd280.pdb
REMARK  10 active torsions:
REMARK  status: ('A' for Active; 'I' for Inactive)
REMARK    1  A    between atoms: C_1  and  C_2
REMARK    2  A    between atoms: C_2  and  C_3
REMARK    3  A    between atoms: C_4  and  O_5
REMARK    4  A    between atoms: C_8  and  C_9
REMARK    5  A    between atoms: C_15  and  C_16
REMARK    6  A    between atoms: C_16  and  C_17
REMARK    7  A    between atoms: C_22  and  C_23
REMARK    8  A    between atoms: C_24  and  O_25
REMARK    9  A    between atoms: C_27  and  C_28
REMARK   10  A    between atoms: C_29  and  C_30
REMARK                            x       y       z     vdW  Elec       q    Type
REMARK                         _______ _______ _______ _____ _____    ______ ____
ROOT
ATOM      1  C   UNL A   1      45.723 -13.319 -37.026  0.00  0.00    -0.057 C 
ATOM      2  C   UNL A   1      46.160 -14.536 -37.893  0.00  0.00    -0.006 C 
ATOM      3  C   UNL A   1      47.699 -14.489 -37.923  0.00  0.00    -0.057 C 
ATOM      4  C   UNL A   1      45.527 -14.336 -39.305  0.00  0.00    +0.061 C 
ATOM      5  C   UNL A   1      45.531 -15.581 -40.199  0.00  0.00    -0.026 C 
ATOM      6  C   UNL A   1      45.004 -16.853 -39.515  0.00  0.00    -0.045 C 
ATOM      7  C   UNL A   1      45.709 -17.151 -38.168  0.00  0.00    -0.025 C 
ATOM      8  C   UNL A   1      47.188 -17.528 -38.487  0.00  0.00    -0.059 C 
ATOM      9  C   UNL A   1      45.149 -18.411 -37.357  0.00  0.00    -0.029 C 
ATOM     10  C   UNL A   1      44.856 -19.677 -38.193  0.00  0.00    -0.049 C 
ATOM     11  C   UNL A   1      43.611 -20.480 -37.828  0.00  0.00    -0.049 C 
ATOM     12  C   UNL A   1      43.277 -20.655 -36.330  0.00  0.00    -0.031 C 
ATOM     13  C   UNL A   1      41.740 -20.898 -36.141  0.00  0.00    -0.024 C 
ATOM     14  C   UNL A   1      41.256 -22.209 -36.851  0.00  0.00    -0.006 C 
ATOM     15  C   UNL A   1      40.404 -22.965 -35.825  0.00  0.00    -0.047 C 
ATOM     16  C   UNL A   1      40.999 -22.553 -34.491  0.00  0.00    -0.045 C 
ATOM     17  C   UNL A   1      41.287 -21.049 -34.653  0.00  0.00    -0.003 C 
ATOM     18  C   UNL A   1      39.969 -20.260 -34.438  0.00  0.00    -0.057 C 
ATOM     19  C   UNL A   1      42.365 -20.604 -33.646  0.00  0.00    +0.061 C 
ATOM     20  C   UNL A   1      43.049 -19.321 -34.116  0.00  0.00    -0.020 C 
ATOM     21  C   UNL A   1      43.896 -19.536 -35.405  0.00  0.00    -0.021 C 
ATOM     22  C   UNL A   1      45.266 -20.129 -34.902  0.00  0.00    -0.059 C 
ATOM     23  C   UNL A   1      44.131 -18.148 -36.200  0.00  0.00    -0.023 C 
ATOM     24  C   UNL A   1      42.777 -17.607 -36.750  0.00  0.00    -0.059 C 
ATOM     25  C   UNL A   1      44.723 -17.047 -35.238  0.00  0.00    -0.047 C 
ATOM     26  C   UNL A   1      45.845 -16.166 -35.827  0.00  0.00    -0.049 C 
ATOM     27  C   UNL A   1      45.559 -15.852 -37.296  0.00  0.00    -0.028 C 
ENDROOT
BRANCH  14  28
ATOM     28  C   UNL A   1      40.519 -22.007 -38.163  0.00  0.00    +0.093 C 
ATOM     29  C   UNL A   1      39.357 -21.058 -38.225  0.00  0.00    -0.033 C 
ATOM     30  C   UNL A   1      41.195 -22.397 -39.465  0.00  0.00    +0.077 C 
ATOM     31  O   UNL A   1      40.241 -23.253 -38.834  0.00  0.00    -0.368 OA
ENDBRANCH  14  28
BRANCH   4  32
ATOM     32  O   UNL A   1      46.177 -13.269 -39.992  0.00  0.00    -0.391 OA
ATOM     33  H   UNL A   1      46.090 -12.451 -39.478  0.00  0.00    +0.000 HD
ENDBRANCH   4  32
BRANCH  19  34
ATOM     34  O   UNL A   1      41.792 -20.399 -32.358  0.00  0.00    -0.391 OA
ATOM     35  H   UNL A   1      41.602 -21.258 -31.949  0.00  0.00    +0.000 HD
ENDBRANCH  19  34
TORSDOF 3
ENDMDL
MODEL 11
REMARK VINA RESULT:    -6.761     17.709     20.788
REMARK INTER + INTRA:          -8.115
REMARK INTER:                  -7.584
REMARK INTRA:                  -0.531
REMARK UNBOUND:                -0.563
REMARK  Name = cpd280.pdb
REMARK  10 active torsions:
REMARK  status: ('A' for Active; 'I' for Inactive)
REMARK    1  A    between atoms: C_1  and  C_2
REMARK    2  A    between atoms: C_2  and  C_3
REMARK    3  A    between atoms: C_4  and  O_5
REMARK    4  A    between atoms: C_8  and  C_9
REMARK    5  A    between atoms: C_15  and  C_16
REMARK    6  A    between atoms: C_16  and  C_17
REMARK    7  A    between atoms: C_22  and  C_23
REMARK    8  A    between atoms: C_24  and  O_25
REMARK    9  A    between atoms: C_27  and  C_28
REMARK   10  A    between atoms: C_29  and  C_30
REMARK                            x       y       z     vdW  Elec       q    Type
REMARK                         _______ _______ _______ _____ _____    ______ ____
ROOT
ATOM      1  C   UNL A   1      28.698 -32.247 -27.930  0.00  0.00    -0.057 C 
ATOM      2  C   UNL A   1      29.235 -32.342 -29.388  0.00  0.00    -0.006 C 
ATOM      3  C   UNL A   1      29.490 -30.889 -29.828  0.00  0.00    -0.057 C 
ATOM      4  C   UNL A   1      28.125 -33.039 -30.235  0.00  0.00    +0.061 C 
ATOM      5  C   UNL A   1      28.580 -33.552 -31.605  0.00  0.00    -0.026 C 
ATOM      6  C   UNL A   1      29.874 -34.382 -31.572  0.00  0.00    -0.045 C 
ATOM      7  C   UNL A   1      31.038 -33.659 -30.849  0.00  0.00    -0.025 C 
ATOM      8  C   UNL A   1      31.445 -32.435 -31.726  0.00  0.00    -0.059 C 
ATOM      9  C   UNL A   1      32.389 -34.500 -30.698  0.00  0.00    -0.029 C 
ATOM     10  C   UNL A   1      32.836 -35.292 -31.947  0.00  0.00    -0.049 C 
ATOM     11  C   UNL A   1      33.431 -36.679 -31.719  0.00  0.00    -0.049 C 
ATOM     12  C   UNL A   1      34.377 -36.870 -30.512  0.00  0.00    -0.031 C 
ATOM     13  C   UNL A   1      34.369 -38.366 -30.047  0.00  0.00    -0.024 C 
ATOM     14  C   UNL A   1      34.887 -39.337 -31.165  0.00  0.00    -0.006 C 
ATOM     15  C   UNL A   1      35.909 -40.260 -30.494  0.00  0.00    -0.047 C 
ATOM     16  C   UNL A   1      36.486 -39.408 -29.379  0.00  0.00    -0.045 C 
ATOM     17  C   UNL A   1      35.267 -38.662 -28.803  0.00  0.00    -0.003 C 
ATOM     18  C   UNL A   1      34.508 -39.611 -27.839  0.00  0.00    -0.057 C 
ATOM     19  C   UNL A   1      35.723 -37.385 -28.072  0.00  0.00    +0.061 C 
ATOM     20  C   UNL A   1      34.578 -36.378 -27.973  0.00  0.00    -0.020 C 
ATOM     21  C   UNL A   1      34.163 -35.810 -29.362  0.00  0.00    -0.021 C 
ATOM     22  C   UNL A   1      35.199 -34.662 -29.662  0.00  0.00    -0.059 C 
ATOM     23  C   UNL A   1      32.655 -35.229 -29.340  0.00  0.00    -0.023 C 
ATOM     24  C   UNL A   1      31.635 -36.385 -29.110  0.00  0.00    -0.059 C 
ATOM     25  C   UNL A   1      32.472 -34.196 -28.162  0.00  0.00    -0.047 C 
ATOM     26  C   UNL A   1      31.660 -32.926 -28.494  0.00  0.00    -0.049 C 
ATOM     27  C   UNL A   1      30.497 -33.267 -29.426  0.00  0.00    -0.028 C 
ENDROOT
BRANCH  14  28
ATOM     28  C   UNL A   1      33.812 -40.118 -31.900  0.00  0.00    +0.093 C 
ATOM     29  C   UNL A   1      32.735 -40.814 -31.121  0.00  0.00    -0.033 C 
ATOM     30  C   UNL A   1      33.567 -39.841 -33.373  0.00  0.00    +0.077 C 
ATOM     31  O   UNL A   1      34.357 -40.952 -32.943  0.00  0.00    -0.368 OA
ENDBRANCH  14  28
BRANCH   4  32
ATOM     32  O   UNL A   1      27.015 -32.161 -30.413  0.00  0.00    -0.391 OA
ATOM     33  H   UNL A   1      26.904 -31.613 -29.621  0.00  0.00    +0.000 HD
ENDBRANCH   4  32
BRANCH  19  34
ATOM     34  O   UNL A   1      36.200 -37.700 -26.767  0.00  0.00    -0.391 OA
ATOM     35  H   UNL A   1      35.805 -38.535 -26.472  0.00  0.00    +0.000 HD
ENDBRANCH  19  34
TORSDOF 3
ENDMDL
MODEL 12
REMARK VINA RESULT:    -6.490      2.912      8.166
REMARK INTER + INTRA:          -7.812
REMARK INTER:                  -7.272
REMARK INTRA:                  -0.539
REMARK UNBOUND:                -0.563
REMARK  Name = cpd280.pdb
REMARK  10 active torsions:
REMARK  status: ('A' for Active; 'I' for Inactive)
REMARK    1  A    between atoms: C_1  and  C_2
REMARK    2  A    between atoms: C_2  and  C_3
REMARK    3  A    between atoms: C_4  and  O_5
REMARK    4  A    between atoms: C_8  and  C_9
REMARK    5  A    between atoms: C_15  and  C_16
REMARK    6  A    between atoms: C_16  and  C_17
REMARK    7  A    between atoms: C_22  and  C_23
REMARK    8  A    between atoms: C_24  and  O_25
REMARK    9  A    between atoms: C_27  and  C_28
REMARK   10  A    between atoms: C_29  and  C_30
REMARK                            x       y       z     vdW  Elec       q    Type
REMARK                         _______ _______ _______ _____ _____    ______ ____
ROOT
ATOM      1  C   UNL A   1      34.204 -16.780 -32.744  0.00  0.00    -0.057 C 
ATOM      2  C   UNL A   1      35.659 -16.300 -32.472  0.00  0.00    -0.006 C 
ATOM      3  C   UNL A   1      35.762 -16.141 -30.944  0.00  0.00    -0.057 C 
ATOM      4  C   UNL A   1      35.837 -14.946 -33.229  0.00  0.00    +0.061 C 
ATOM      5  C   UNL A   1      37.288 -14.481 -33.392  0.00  0.00    -0.026 C 
ATOM      6  C   UNL A   1      38.243 -15.560 -33.927  0.00  0.00    -0.045 C 
ATOM      7  C   UNL A   1      38.184 -16.877 -33.113  0.00  0.00    -0.025 C 
ATOM      8  C   UNL A   1      38.771 -16.579 -31.699  0.00  0.00    -0.059 C 
ATOM      9  C   UNL A   1      39.086 -18.075 -33.667  0.00  0.00    -0.029 C 
ATOM     10  C   UNL A   1      40.512 -17.694 -34.122  0.00  0.00    -0.049 C 
ATOM     11  C   UNL A   1      41.054 -18.380 -35.372  0.00  0.00    -0.049 C 
ATOM     12  C   UNL A   1      40.738 -19.881 -35.567  0.00  0.00    -0.031 C 
ATOM     13  C   UNL A   1      40.773 -20.250 -37.089  0.00  0.00    -0.024 C 
ATOM     14  C   UNL A   1      42.188 -20.016 -37.724  0.00  0.00    -0.006 C 
ATOM     15  C   UNL A   1      42.520 -21.285 -38.515  0.00  0.00    -0.047 C 
ATOM     16  C   UNL A   1      41.782 -22.379 -37.767  0.00  0.00    -0.045 C 
ATOM     17  C   UNL A   1      40.428 -21.742 -37.402  0.00  0.00    -0.003 C 
ATOM     18  C   UNL A   1      39.496 -21.802 -38.639  0.00  0.00    -0.057 C 
ATOM     19  C   UNL A   1      39.801 -22.479 -36.203  0.00  0.00    +0.061 C 
ATOM     20  C   UNL A   1      38.786 -21.587 -35.489  0.00  0.00    -0.020 C 
ATOM     21  C   UNL A   1      39.454 -20.367 -34.789  0.00  0.00    -0.021 C 
ATOM     22  C   UNL A   1      39.990 -20.924 -33.417  0.00  0.00    -0.059 C 
ATOM     23  C   UNL A   1      38.396 -19.168 -34.547  0.00  0.00    -0.023 C 
ATOM     24  C   UNL A   1      37.926 -18.582 -35.912  0.00  0.00    -0.059 C 
ATOM     25  C   UNL A   1      37.116 -19.698 -33.795  0.00  0.00    -0.047 C 
ATOM     26  C   UNL A   1      36.557 -18.784 -32.683  0.00  0.00    -0.049 C 
ATOM     27  C   UNL A   1      36.674 -17.315 -33.093  0.00  0.00    -0.028 C 
ENDROOT
BRANCH  14  28
ATOM     28  C   UNL A   1      42.324 -18.764 -38.573  0.00  0.00    +0.093 C 
ATOM     29  C   UNL A   1      41.094 -18.098 -39.117  0.00  0.00    -0.033 C 
ATOM     30  C   UNL A   1      43.608 -17.956 -38.508  0.00  0.00    +0.077 C 
ATOM     31  O   UNL A   1      43.363 -18.886 -39.566  0.00  0.00    -0.368 OA
ENDBRANCH  14  28
BRANCH   4  32
ATOM     32  O   UNL A   1      35.089 -13.917 -32.583  0.00  0.00    -0.391 OA
ATOM     33  H   UNL A   1      34.671 -14.273 -31.784  0.00  0.00    +0.000 HD
ENDBRANCH   4  32
BRANCH  19  34
ATOM     34  O   UNL A   1      39.167 -23.680 -36.632  0.00  0.00    -0.391 OA
ATOM     35  H   UNL A   1      39.454 -23.893 -37.534  0.00  0.00    +0.000 HD
ENDBRANCH  19  34
TORSDOF 3
ENDMDL
MODEL 13
REMARK VINA RESULT:    -6.474      3.061      5.598
REMARK INTER + INTRA:          -7.794
REMARK INTER:                  -7.213
REMARK INTRA:                  -0.581
REMARK UNBOUND:                -0.563
REMARK  Name = cpd280.pdb
REMARK  10 active torsions:
REMARK  status: ('A' for Active; 'I' for Inactive)
REMARK    1  A    between atoms: C_1  and  C_2
REMARK    2  A    between atoms: C_2  and  C_3
REMARK    3  A    between atoms: C_4  and  O_5
REMARK    4  A    between atoms: C_8  and  C_9
REMARK    5  A    between atoms: C_15  and  C_16
REMARK    6  A    between atoms: C_16  and  C_17
REMARK    7  A    between atoms: C_22  and  C_23
REMARK    8  A    between atoms: C_24  and  O_25
REMARK    9  A    between atoms: C_27  and  C_28
REMARK   10  A    between atoms: C_29  and  C_30
REMARK                            x       y       z     vdW  Elec       q    Type
REMARK                         _______ _______ _______ _____ _____    ______ ____
ROOT
ATOM      1  C   UNL A   1      47.164 -12.710 -38.945  0.00  0.00    -0.057 C 
ATOM      2  C   UNL A   1      46.926 -14.011 -39.765  0.00  0.00    -0.006 C 
ATOM      3  C   UNL A   1      48.258 -14.294 -40.485  0.00  0.00    -0.057 C 
ATOM      4  C   UNL A   1      45.760 -13.713 -40.758  0.00  0.00    +0.061 C 
ATOM      5  C   UNL A   1      45.128 -14.950 -41.406  0.00  0.00    -0.026 C 
ATOM      6  C   UNL A   1      44.759 -16.066 -40.415  0.00  0.00    -0.045 C 
ATOM      7  C   UNL A   1      45.939 -16.476 -39.500  0.00  0.00    -0.025 C 
ATOM      8  C   UNL A   1      47.011 -17.166 -40.399  0.00  0.00    -0.059 C 
ATOM      9  C   UNL A   1      45.602 -17.569 -38.383  0.00  0.00    -0.029 C 
ATOM     10  C   UNL A   1      44.735 -18.762 -38.843  0.00  0.00    -0.049 C 
ATOM     11  C   UNL A   1      43.678 -19.274 -37.870  0.00  0.00    -0.049 C 
ATOM     12  C   UNL A   1      44.047 -19.340 -36.370  0.00  0.00    -0.031 C 
ATOM     13  C   UNL A   1      42.756 -19.246 -35.488  0.00  0.00    -0.024 C 
ATOM     14  C   UNL A   1      41.773 -20.439 -35.747  0.00  0.00    -0.006 C 
ATOM     15  C   UNL A   1      41.371 -20.973 -34.368  0.00  0.00    -0.047 C 
ATOM     16  C   UNL A   1      42.577 -20.668 -33.499  0.00  0.00    -0.045 C 
ATOM     17  C   UNL A   1      43.022 -19.263 -33.948  0.00  0.00    -0.003 C 
ATOM     18  C   UNL A   1      42.117 -18.207 -33.261  0.00  0.00    -0.057 C 
ATOM     19  C   UNL A   1      44.502 -19.036 -33.590  0.00  0.00    +0.061 C 
ATOM     20  C   UNL A   1      45.110 -17.938 -34.463  0.00  0.00    -0.020 C 
ATOM     21  C   UNL A   1      45.213 -18.358 -35.959  0.00  0.00    -0.021 C 
ATOM     22  C   UNL A   1      46.529 -19.218 -36.055  0.00  0.00    -0.059 C 
ATOM     23  C   UNL A   1      45.298 -17.070 -36.932  0.00  0.00    -0.023 C 
ATOM     24  C   UNL A   1      43.964 -16.265 -36.879  0.00  0.00    -0.059 C 
ATOM     25  C   UNL A   1      46.453 -16.099 -36.474  0.00  0.00    -0.047 C 
ATOM     26  C   UNL A   1      47.314 -15.490 -37.600  0.00  0.00    -0.049 C 
ATOM     27  C   UNL A   1      46.444 -15.155 -38.813  0.00  0.00    -0.028 C 
ENDROOT
BRANCH  14  28
ATOM     28  C   UNL A   1      40.563 -20.114 -36.605  0.00  0.00    +0.093 C 
ATOM     29  C   UNL A   1      39.914 -18.765 -36.495  0.00  0.00    -0.033 C 
ATOM     30  C   UNL A   1      40.287 -20.943 -37.847  0.00  0.00    +0.077 C 
ATOM     31  O   UNL A   1      39.596 -21.185 -36.619  0.00  0.00    -0.368 OA
ENDBRANCH  14  28
BRANCH   4  32
ATOM     32  O   UNL A   1      46.199 -12.824 -41.784  0.00  0.00    -0.391 OA
ATOM     33  H   UNL A   1      45.440 -12.328 -42.129  0.00  0.00    +0.000 HD
ENDBRANCH   4  32
BRANCH  19  34
ATOM     34  O   UNL A   1      44.636 -18.685 -32.215  0.00  0.00    -0.391 OA
ATOM     35  H   UNL A   1      43.839 -18.958 -31.734  0.00  0.00    +0.000 HD
ENDBRANCH  19  34
TORSDOF 3
ENDMDL
MODEL 14
REMARK VINA RESULT:    -6.372      2.264      8.049
REMARK INTER + INTRA:          -7.680
REMARK INTER:                  -7.107
REMARK INTRA:                  -0.573
REMARK UNBOUND:                -0.563
REMARK  Name = cpd280.pdb
REMARK  10 active torsions:
REMARK  status: ('A' for Active; 'I' for Inactive)
REMARK    1  A    between atoms: C_1  and  C_2
REMARK    2  A    between atoms: C_2  and  C_3
REMARK    3  A    between atoms: C_4  and  O_5
REMARK    4  A    between atoms: C_8  and  C_9
REMARK    5  A    between atoms: C_15  and  C_16
REMARK    6  A    between atoms: C_16  and  C_17
REMARK    7  A    between atoms: C_22  and  C_23
REMARK    8  A    between atoms: C_24  and  O_25
REMARK    9  A    between atoms: C_27  and  C_28
REMARK   10  A    between atoms: C_29  and  C_30
REMARK                            x       y       z     vdW  Elec       q    Type
REMARK                         _______ _______ _______ _____ _____    ______ ____
ROOT
ATOM      1  C   UNL A   1      39.434 -22.147 -35.141  0.00  0.00    -0.057 C 
ATOM      2  C   UNL A   1      39.597 -20.638 -34.798  0.00  0.00    -0.006 C 
ATOM      3  C   UNL A   1      39.572 -20.560 -33.260  0.00  0.00    -0.057 C 
ATOM      4  C   UNL A   1      38.395 -19.891 -35.456  0.00  0.00    +0.061 C 
ATOM      5  C   UNL A   1      38.548 -18.369 -35.548  0.00  0.00    -0.026 C 
ATOM      6  C   UNL A   1      39.893 -17.902 -36.128  0.00  0.00    -0.045 C 
ATOM      7  C   UNL A   1      41.113 -18.528 -35.406  0.00  0.00    -0.025 C 
ATOM      8  C   UNL A   1      41.150 -17.946 -33.960  0.00  0.00    -0.059 C 
ATOM      9  C   UNL A   1      42.544 -18.156 -36.015  0.00  0.00    -0.029 C 
ATOM     10  C   UNL A   1      42.750 -16.674 -36.403  0.00  0.00    -0.049 C 
ATOM     11  C   UNL A   1      43.532 -16.390 -37.682  0.00  0.00    -0.049 C 
ATOM     12  C   UNL A   1      44.765 -17.271 -37.986  0.00  0.00    -0.031 C 
ATOM     13  C   UNL A   1      45.040 -17.307 -39.528  0.00  0.00    -0.024 C 
ATOM     14  C   UNL A   1      45.366 -15.886 -40.106  0.00  0.00    -0.006 C 
ATOM     15  C   UNL A   1      46.620 -16.052 -40.971  0.00  0.00    -0.047 C 
ATOM     16  C   UNL A   1      47.358 -17.205 -40.319  0.00  0.00    -0.045 C 
ATOM     17  C   UNL A   1      46.247 -18.206 -39.949  0.00  0.00    -0.003 C 
ATOM     18  C   UNL A   1      45.862 -19.018 -41.214  0.00  0.00    -0.057 C 
ATOM     19  C   UNL A   1      46.727 -19.138 -38.821  0.00  0.00    +0.061 C 
ATOM     20  C   UNL A   1      45.538 -19.746 -38.077  0.00  0.00    -0.020 C 
ATOM     21  C   UNL A   1      44.729 -18.681 -37.278  0.00  0.00    -0.021 C 
ATOM     22  C   UNL A   1      45.523 -18.487 -35.932  0.00  0.00    -0.059 C 
ATOM     23  C   UNL A   1      43.219 -19.179 -36.985  0.00  0.00    -0.023 C 
ATOM     24  C   UNL A   1      42.424 -19.302 -38.320  0.00  0.00    -0.059 C 
ATOM     25  C   UNL A   1      43.223 -20.602 -36.306  0.00  0.00    -0.047 C 
ATOM     26  C   UNL A   1      42.219 -20.804 -35.151  0.00  0.00    -0.049 C 
ATOM     27  C   UNL A   1      40.904 -20.085 -35.458  0.00  0.00    -0.028 C 
ENDROOT
BRANCH  14  28
ATOM     28  C   UNL A   1      44.235 -15.215 -40.865  0.00  0.00    +0.093 C 
ATOM     29  C   UNL A   1      43.263 -16.051 -41.644  0.00  0.00    -0.033 C 
ATOM     30  C   UNL A   1      43.827 -13.800 -40.494  0.00  0.00    +0.077 C 
ATOM     31  O   UNL A   1      44.682 -14.063 -41.609  0.00  0.00    -0.368 OA
ENDBRANCH  14  28
BRANCH   4  32
ATOM     32  O   UNL A   1      37.185 -20.195 -34.764  0.00  0.00    -0.391 OA
ATOM     33  H   UNL A   1      37.392 -20.669 -33.943  0.00  0.00    +0.000 HD
ENDBRANCH   4  32
BRANCH  19  34
ATOM     34  O   UNL A   1      47.546 -20.178 -39.347  0.00  0.00    -0.391 OA
ATOM     35  H   UNL A   1      47.501 -20.166 -40.316  0.00  0.00    +0.000 HD
ENDBRANCH  19  34
TORSDOF 3
ENDMDL
MODEL 15
REMARK VINA RESULT:    -6.297     23.218     26.785
REMARK INTER + INTRA:          -7.596
REMARK INTER:                  -7.040
REMARK INTRA:                  -0.556
REMARK UNBOUND:                -0.563
REMARK  Name = cpd280.pdb
REMARK  10 active torsions:
REMARK  status: ('A' for Active; 'I' for Inactive)
REMARK    1  A    between atoms: C_1  and  C_2
REMARK    2  A    between atoms: C_2  and  C_3
REMARK    3  A    between atoms: C_4  and  O_5
REMARK    4  A    between atoms: C_8  and  C_9
REMARK    5  A    between atoms: C_15  and  C_16
REMARK    6  A    between atoms: C_16  and  C_17
REMARK    7  A    between atoms: C_22  and  C_23
REMARK    8  A    between atoms: C_24  and  O_25
REMARK    9  A    between atoms: C_27  and  C_28
REMARK   10  A    between atoms: C_29  and  C_30
REMARK                            x       y       z     vdW  Elec       q    Type
REMARK                         _______ _______ _______ _____ _____    ______ ____
ROOT
ATOM      1  C   UNL A   1      59.349 -12.272 -29.164  0.00  0.00    -0.057 C 
ATOM      2  C   UNL A   1      60.409 -12.302 -30.303  0.00  0.00    -0.006 C 
ATOM      3  C   UNL A   1      59.945 -11.250 -31.326  0.00  0.00    -0.057 C 
ATOM      4  C   UNL A   1      60.406 -13.749 -30.887  0.00  0.00    +0.061 C 
ATOM      5  C   UNL A   1      61.612 -14.097 -31.766  0.00  0.00    -0.026 C 
ATOM      6  C   UNL A   1      62.972 -13.738 -31.145  0.00  0.00    -0.045 C 
ATOM      7  C   UNL A   1      63.052 -12.265 -30.673  0.00  0.00    -0.025 C 
ATOM      8  C   UNL A   1      63.014 -11.363 -31.945  0.00  0.00    -0.059 C 
ATOM      9  C   UNL A   1      64.407 -11.846 -29.935  0.00  0.00    -0.029 C 
ATOM     10  C   UNL A   1      65.714 -12.359 -30.580  0.00  0.00    -0.049 C 
ATOM     11  C   UNL A   1      66.823 -12.820 -29.639  0.00  0.00    -0.049 C 
ATOM     12  C   UNL A   1      67.066 -11.999 -28.352  0.00  0.00    -0.031 C 
ATOM     13  C   UNL A   1      67.717 -12.901 -27.248  0.00  0.00    -0.024 C 
ATOM     14  C   UNL A   1      69.118 -13.453 -27.684  0.00  0.00    -0.006 C 
ATOM     15  C   UNL A   1      70.066 -13.198 -26.507  0.00  0.00    -0.047 C 
ATOM     16  C   UNL A   1      69.493 -11.958 -25.846  0.00  0.00    -0.045 C 
ATOM     17  C   UNL A   1      67.969 -12.177 -25.886  0.00  0.00    -0.003 C 
ATOM     18  C   UNL A   1      67.567 -13.121 -24.723  0.00  0.00    -0.057 C 
ATOM     19  C   UNL A   1      67.236 -10.826 -25.777  0.00  0.00    +0.061 C 
ATOM     20  C   UNL A   1      65.820 -10.930 -26.342  0.00  0.00    -0.020 C 
ATOM     21  C   UNL A   1      65.810 -11.167 -27.882  0.00  0.00    -0.021 C 
ATOM     22  C   UNL A   1      66.002  -9.738 -28.518  0.00  0.00    -0.059 C 
ATOM     23  C   UNL A   1      64.419 -11.830 -28.372  0.00  0.00    -0.023 C 
ATOM     24  C   UNL A   1      64.274 -13.268 -27.790  0.00  0.00    -0.059 C 
ATOM     25  C   UNL A   1      63.189 -10.987 -27.860  0.00  0.00    -0.047 C 
ATOM     26  C   UNL A   1      62.041 -10.781 -28.871  0.00  0.00    -0.049 C 
ATOM     27  C   UNL A   1      61.833 -12.047 -29.704  0.00  0.00    -0.028 C 
ENDROOT
BRANCH  14  28
ATOM     28  C   UNL A   1      69.139 -14.906 -28.126  0.00  0.00    +0.093 C 
ATOM     29  C   UNL A   1      68.400 -15.937 -27.324  0.00  0.00    -0.033 C 
ATOM     30  C   UNL A   1      69.511 -15.243 -29.559  0.00  0.00    +0.077 C 
ATOM     31  O   UNL A   1      70.461 -15.348 -28.496  0.00  0.00    -0.368 OA
ENDBRANCH  14  28
BRANCH   4  32
ATOM     32  O   UNL A   1      59.209 -13.980 -31.628  0.00  0.00    -0.391 OA
ATOM     33  H   UNL A   1      58.600 -13.237 -31.499  0.00  0.00    +0.000 HD
ENDBRANCH   4  32
BRANCH  19  34
ATOM     34  O   UNL A   1      67.181 -10.396 -24.420  0.00  0.00    -0.391 OA
ATOM     35  H   UNL A   1      66.820 -11.108 -23.870  0.00  0.00    +0.000 HD
ENDBRANCH  19  34
TORSDOF 3
ENDMDL
MODEL 16
REMARK VINA RESULT:    -6.276      4.124      6.309
REMARK INTER + INTRA:          -7.573
REMARK INTER:                  -7.014
REMARK INTRA:                  -0.558
REMARK UNBOUND:                -0.563
REMARK  Name = cpd280.pdb
REMARK  10 active torsions:
REMARK  status: ('A' for Active; 'I' for Inactive)
REMARK    1  A    between atoms: C_1  and  C_2
REMARK    2  A    between atoms: C_2  and  C_3
REMARK    3  A    between atoms: C_4  and  O_5
REMARK    4  A    between atoms: C_8  and  C_9
REMARK    5  A    between atoms: C_15  and  C_16
REMARK    6  A    between atoms: C_16  and  C_17
REMARK    7  A    between atoms: C_22  and  C_23
REMARK    8  A    between atoms: C_24  and  O_25
REMARK    9  A    between atoms: C_27  and  C_28
REMARK   10  A    between atoms: C_29  and  C_30
REMARK                            x       y       z     vdW  Elec       q    Type
REMARK                         _______ _______ _______ _____ _____    ______ ____
ROOT
ATOM      1  C   UNL A   1      42.814 -12.831 -36.312  0.00  0.00    -0.057 C 
ATOM      2  C   UNL A   1      43.489 -13.824 -35.321  0.00  0.00    -0.006 C 
ATOM      3  C   UNL A   1      44.212 -12.944 -34.285  0.00  0.00    -0.057 C 
ATOM      4  C   UNL A   1      44.474 -14.699 -36.157  0.00  0.00    +0.061 C 
ATOM      5  C   UNL A   1      44.973 -15.966 -35.454  0.00  0.00    -0.026 C 
ATOM      6  C   UNL A   1      43.862 -16.815 -34.815  0.00  0.00    -0.045 C 
ATOM      7  C   UNL A   1      42.942 -15.998 -33.874  0.00  0.00    -0.025 C 
ATOM      8  C   UNL A   1      43.795 -15.576 -32.638  0.00  0.00    -0.059 C 
ATOM      9  C   UNL A   1      41.709 -16.798 -33.244  0.00  0.00    -0.029 C 
ATOM     10  C   UNL A   1      42.020 -18.219 -32.723  0.00  0.00    -0.049 C 
ATOM     11  C   UNL A   1      40.969 -19.298 -32.969  0.00  0.00    -0.049 C 
ATOM     12  C   UNL A   1      39.482 -18.908 -32.810  0.00  0.00    -0.031 C 
ATOM     13  C   UNL A   1      38.578 -19.847 -33.679  0.00  0.00    -0.024 C 
ATOM     14  C   UNL A   1      38.686 -21.348 -33.238  0.00  0.00    -0.006 C 
ATOM     15  C   UNL A   1      37.248 -21.866 -33.122  0.00  0.00    -0.047 C 
ATOM     16  C   UNL A   1      36.449 -20.631 -32.751  0.00  0.00    -0.045 C 
ATOM     17  C   UNL A   1      37.053 -19.513 -33.621  0.00  0.00    -0.003 C 
ATOM     18  C   UNL A   1      36.454 -19.610 -35.049  0.00  0.00    -0.057 C 
ATOM     19  C   UNL A   1      36.762 -18.136 -32.994  0.00  0.00    +0.061 C 
ATOM     20  C   UNL A   1      37.760 -17.091 -33.491  0.00  0.00    -0.020 C 
ATOM     21  C   UNL A   1      39.208 -17.364 -32.985  0.00  0.00    -0.021 C 
ATOM     22  C   UNL A   1      39.251 -16.770 -31.527  0.00  0.00    -0.059 C 
ATOM     23  C   UNL A   1      40.311 -16.650 -33.927  0.00  0.00    -0.023 C 
ATOM     24  C   UNL A   1      40.304 -17.293 -35.346  0.00  0.00    -0.059 C 
ATOM     25  C   UNL A   1      39.987 -15.117 -34.102  0.00  0.00    -0.047 C 
ATOM     26  C   UNL A   1      41.194 -14.158 -34.037  0.00  0.00    -0.049 C 
ATOM     27  C   UNL A   1      42.410 -14.786 -34.720  0.00  0.00    -0.028 C 
ENDROOT
BRANCH  14  28
ATOM     28  C   UNL A   1      39.538 -22.232 -34.130  0.00  0.00    +0.093 C 
ATOM     29  C   UNL A   1      39.764 -21.845 -35.563  0.00  0.00    -0.033 C 
ATOM     30  C   UNL A   1      40.495 -23.227 -33.497  0.00  0.00    +0.077 C 
ATOM     31  O   UNL A   1      39.215 -23.631 -33.987  0.00  0.00    -0.368 OA
ENDBRANCH  14  28
BRANCH   4  32
ATOM     32  O   UNL A   1      45.598 -13.922 -36.567  0.00  0.00    -0.391 OA
ATOM     33  H   UNL A   1      46.413 -14.429 -36.422  0.00  0.00    +0.000 HD
ENDBRANCH   4  32
BRANCH  19  34
ATOM     34  O   UNL A   1      35.435 -17.717 -33.303  0.00  0.00    -0.391 OA
ATOM     35  H   UNL A   1      35.403 -17.393 -34.216  0.00  0.00    +0.000 HD
ENDBRANCH  19  34
TORSDOF 3
ENDMDL
MODEL 17
REMARK VINA RESULT:    -6.232     31.956     35.901
REMARK INTER + INTRA:          -7.524
REMARK INTER:                  -6.944
REMARK INTRA:                  -0.580
REMARK UNBOUND:                -0.563
REMARK  Name = cpd280.pdb
REMARK  10 active torsions:
REMARK  status: ('A' for Active; 'I' for Inactive)
REMARK    1  A    between atoms: C_1  and  C_2
REMARK    2  A    between atoms: C_2  and  C_3
REMARK    3  A    between atoms: C_4  and  O_5
REMARK    4  A    between atoms: C_8  and  C_9
REMARK    5  A    between atoms: C_15  and  C_16
REMARK    6  A    between atoms: C_16  and  C_17
REMARK    7  A    between atoms: C_22  and  C_23
REMARK    8  A    between atoms: C_24  and  O_25
REMARK    9  A    between atoms: C_27  and  C_28
REMARK   10  A    between atoms: C_29  and  C_30
REMARK                            x       y       z     vdW  Elec       q    Type
REMARK                         _______ _______ _______ _____ _____    ______ ____
ROOT
ATOM      1  C   UNL A   1      60.518 -55.772 -45.225  0.00  0.00    -0.057 C 
ATOM      2  C   UNL A   1      59.806 -54.953 -44.110  0.00  0.00    -0.006 C 
ATOM      3  C   UNL A   1      60.587 -55.250 -42.817  0.00  0.00    -0.057 C 
ATOM      4  C   UNL A   1      58.330 -55.458 -44.049  0.00  0.00    +0.061 C 
ATOM      5  C   UNL A   1      57.365 -54.552 -43.278  0.00  0.00    -0.026 C 
ATOM      6  C   UNL A   1      57.441 -53.067 -43.671  0.00  0.00    -0.045 C 
ATOM      7  C   UNL A   1      58.881 -52.499 -43.614  0.00  0.00    -0.025 C 
ATOM      8  C   UNL A   1      59.315 -52.474 -42.116  0.00  0.00    -0.059 C 
ATOM      9  C   UNL A   1      59.048 -50.984 -44.096  0.00  0.00    -0.029 C 
ATOM     10  C   UNL A   1      57.973 -49.992 -43.596  0.00  0.00    -0.049 C 
ATOM     11  C   UNL A   1      57.492 -48.930 -44.579  0.00  0.00    -0.049 C 
ATOM     12  C   UNL A   1      58.542 -48.268 -45.500  0.00  0.00    -0.031 C 
ATOM     13  C   UNL A   1      57.861 -47.740 -46.809  0.00  0.00    -0.024 C 
ATOM     14  C   UNL A   1      56.784 -46.639 -46.513  0.00  0.00    -0.006 C 
ATOM     15  C   UNL A   1      57.068 -45.488 -47.484  0.00  0.00    -0.047 C 
ATOM     16  C   UNL A   1      58.565 -45.574 -47.717  0.00  0.00    -0.045 C 
ATOM     17  C   UNL A   1      58.844 -47.085 -47.831  0.00  0.00    -0.003 C 
ATOM     18  C   UNL A   1      58.480 -47.555 -49.264  0.00  0.00    -0.057 C 
ATOM     19  C   UNL A   1      60.323 -47.376 -47.516  0.00  0.00    +0.061 C 
ATOM     20  C   UNL A   1      60.511 -48.833 -47.092  0.00  0.00    -0.020 C 
ATOM     21  C   UNL A   1      59.834 -49.147 -45.725  0.00  0.00    -0.021 C 
ATOM     22  C   UNL A   1      60.860 -48.656 -44.636  0.00  0.00    -0.059 C 
ATOM     23  C   UNL A   1      59.534 -50.727 -45.560  0.00  0.00    -0.023 C 
ATOM     24  C   UNL A   1      58.467 -51.185 -46.599  0.00  0.00    -0.059 C 
ATOM     25  C   UNL A   1      60.840 -51.572 -45.820  0.00  0.00    -0.047 C 
ATOM     26  C   UNL A   1      61.084 -52.755 -44.859  0.00  0.00    -0.049 C 
ATOM     27  C   UNL A   1      59.761 -53.441 -44.513  0.00  0.00    -0.028 C 
ENDROOT
BRANCH  14  28
ATOM     28  C   UNL A   1      55.340 -47.101 -46.586  0.00  0.00    +0.093 C 
ATOM     29  C   UNL A   1      54.930 -48.097 -47.631  0.00  0.00    -0.033 C 
ATOM     30  C   UNL A   1      54.436 -46.915 -45.380  0.00  0.00    +0.077 C 
ATOM     31  O   UNL A   1      54.407 -46.005 -46.482  0.00  0.00    -0.368 OA
ENDBRANCH  14  28
BRANCH   4  32
ATOM     32  O   UNL A   1      58.280 -56.771 -43.492  0.00  0.00    -0.391 OA
ATOM     33  H   UNL A   1      58.723 -57.393 -44.090  0.00  0.00    +0.000 HD
ENDBRANCH   4  32
BRANCH  19  34
ATOM     34  O   UNL A   1      61.140 -47.097 -48.649  0.00  0.00    -0.391 OA
ATOM     35  H   UNL A   1      60.740 -46.382 -49.167  0.00  0.00    +0.000 HD
ENDBRANCH  19  34
TORSDOF 3
ENDMDL
MODEL 18
REMARK VINA RESULT:    -6.126     29.611     32.759
REMARK INTER + INTRA:          -7.405
REMARK INTER:                  -6.845
REMARK INTRA:                  -0.560
REMARK UNBOUND:                -0.563
REMARK  Name = cpd280.pdb
REMARK  10 active torsions:
REMARK  status: ('A' for Active; 'I' for Inactive)
REMARK    1  A    between atoms: C_1  and  C_2
REMARK    2  A    between atoms: C_2  and  C_3
REMARK    3  A    between atoms: C_4  and  O_5
REMARK    4  A    between atoms: C_8  and  C_9
REMARK    5  A    between atoms: C_15  and  C_16
REMARK    6  A    between atoms: C_16  and  C_17
REMARK    7  A    between atoms: C_22  and  C_23
REMARK    8  A    between atoms: C_24  and  O_25
REMARK    9  A    between atoms: C_27  and  C_28
REMARK   10  A    between atoms: C_29  and  C_30
REMARK                            x       y       z     vdW  Elec       q    Type
REMARK                         _______ _______ _______ _____ _____    ______ ____
ROOT
ATOM      1  C   UNL A   1      49.171 -49.949 -47.976  0.00  0.00    -0.057 C 
ATOM      2  C   UNL A   1      49.665 -48.518 -48.337  0.00  0.00    -0.006 C 
ATOM      3  C   UNL A   1      48.583 -47.562 -47.803  0.00  0.00    -0.057 C 
ATOM      4  C   UNL A   1      49.799 -48.464 -49.891  0.00  0.00    +0.061 C 
ATOM      5  C   UNL A   1      50.604 -47.278 -50.432  0.00  0.00    -0.026 C 
ATOM      6  C   UNL A   1      51.959 -47.063 -49.737  0.00  0.00    -0.045 C 
ATOM      7  C   UNL A   1      51.842 -46.982 -48.195  0.00  0.00    -0.025 C 
ATOM      8  C   UNL A   1      51.076 -45.666 -47.853  0.00  0.00    -0.059 C 
ATOM      9  C   UNL A   1      53.223 -46.849 -47.401  0.00  0.00    -0.029 C 
ATOM     10  C   UNL A   1      54.253 -45.861 -47.994  0.00  0.00    -0.049 C 
ATOM     11  C   UNL A   1      55.720 -46.276 -47.955  0.00  0.00    -0.049 C 
ATOM     12  C   UNL A   1      56.235 -46.995 -46.687  0.00  0.00    -0.031 C 
ATOM     13  C   UNL A   1      57.474 -47.888 -47.035  0.00  0.00    -0.024 C 
ATOM     14  C   UNL A   1      58.680 -47.043 -47.577  0.00  0.00    -0.006 C 
ATOM     15  C   UNL A   1      59.917 -47.515 -46.804  0.00  0.00    -0.047 C 
ATOM     16  C   UNL A   1      59.357 -47.960 -45.466  0.00  0.00    -0.045 C 
ATOM     17  C   UNL A   1      58.051 -48.693 -45.827  0.00  0.00    -0.003 C 
ATOM     18  C   UNL A   1      58.396 -50.133 -46.290  0.00  0.00    -0.057 C 
ATOM     19  C   UNL A   1      57.104 -48.718 -44.612  0.00  0.00    +0.061 C 
ATOM     20  C   UNL A   1      55.657 -48.928 -45.057  0.00  0.00    -0.020 C 
ATOM     21  C   UNL A   1      55.100 -47.717 -45.861  0.00  0.00    -0.021 C 
ATOM     22  C   UNL A   1      54.655 -46.670 -44.772  0.00  0.00    -0.059 C 
ATOM     23  C   UNL A   1      53.847 -48.145 -46.789  0.00  0.00    -0.023 C 
ATOM     24  C   UNL A   1      54.315 -49.128 -47.904  0.00  0.00    -0.059 C 
ATOM     25  C   UNL A   1      52.749 -48.888 -45.935  0.00  0.00    -0.047 C 
ATOM     26  C   UNL A   1      51.284 -48.509 -46.239  0.00  0.00    -0.049 C 
ATOM     27  C   UNL A   1      51.093 -48.287 -47.740  0.00  0.00    -0.028 C 
ENDROOT
BRANCH  14  28
ATOM     28  C   UNL A   1      58.893 -47.099 -49.079  0.00  0.00    +0.093 C 
ATOM     29  C   UNL A   1      58.368 -48.266 -49.862  0.00  0.00    -0.033 C 
ATOM     30  C   UNL A   1      59.224 -45.822 -49.832  0.00  0.00    +0.077 C 
ATOM     31  O   UNL A   1      60.242 -46.752 -49.455  0.00  0.00    -0.368 OA
ENDBRANCH  14  28
BRANCH   4  32
ATOM     32  O   UNL A   1      48.508 -48.464 -50.499  0.00  0.00    -0.391 OA
ATOM     33  H   UNL A   1      47.826 -48.433 -49.811  0.00  0.00    +0.000 HD
ENDBRANCH   4  32
BRANCH  19  34
ATOM     34  O   UNL A   1      57.482 -49.749 -43.705  0.00  0.00    -0.391 OA
ATOM     35  H   UNL A   1      57.102 -49.566 -42.831  0.00  0.00    +0.000 HD
ENDBRANCH  19  34
TORSDOF 3
ENDMDL
MODEL 19
REMARK VINA RESULT:    -5.940     17.150     22.075
REMARK INTER + INTRA:          -7.198
REMARK INTER:                  -6.626
REMARK INTRA:                  -0.571
REMARK UNBOUND:                -0.563
REMARK  Name = cpd280.pdb
REMARK  10 active torsions:
REMARK  status: ('A' for Active; 'I' for Inactive)
REMARK    1  A    between atoms: C_1  and  C_2
REMARK    2  A    between atoms: C_2  and  C_3
REMARK    3  A    between atoms: C_4  and  O_5
REMARK    4  A    between atoms: C_8  and  C_9
REMARK    5  A    between atoms: C_15  and  C_16
REMARK    6  A    between atoms: C_16  and  C_17
REMARK    7  A    between atoms: C_22  and  C_23
REMARK    8  A    between atoms: C_24  and  O_25
REMARK    9  A    between atoms: C_27  and  C_28
REMARK   10  A    between atoms: C_29  and  C_30
REMARK                            x       y       z     vdW  Elec       q    Type
REMARK                         _______ _______ _______ _____ _____    ______ ____
ROOT
ATOM      1  C   UNL A   1      30.660 -42.405 -28.070  0.00  0.00    -0.057 C 
ATOM      2  C   UNL A   1      30.585 -41.283 -26.994  0.00  0.00    -0.006 C 
ATOM      3  C   UNL A   1      31.019 -41.947 -25.674  0.00  0.00    -0.057 C 
ATOM      4  C   UNL A   1      29.105 -40.788 -26.958  0.00  0.00    +0.061 C 
ATOM      5  C   UNL A   1      28.884 -39.456 -26.234  0.00  0.00    -0.026 C 
ATOM      6  C   UNL A   1      29.847 -38.336 -26.661  0.00  0.00    -0.045 C 
ATOM      7  C   UNL A   1      31.336 -38.756 -26.583  0.00  0.00    -0.025 C 
ATOM      8  C   UNL A   1      31.689 -38.946 -25.075  0.00  0.00    -0.059 C 
ATOM      9  C   UNL A   1      32.391 -37.670 -27.098  0.00  0.00    -0.029 C 
ATOM     10  C   UNL A   1      32.136 -36.214 -26.650  0.00  0.00    -0.049 C 
ATOM     11  C   UNL A   1      32.402 -35.112 -27.671  0.00  0.00    -0.049 C 
ATOM     12  C   UNL A   1      33.643 -35.255 -28.581  0.00  0.00    -0.031 C 
ATOM     13  C   UNL A   1      33.429 -34.468 -29.919  0.00  0.00    -0.024 C 
ATOM     14  C   UNL A   1      33.240 -32.930 -29.678  0.00  0.00    -0.006 C 
ATOM     15  C   UNL A   1      34.170 -32.222 -30.670  0.00  0.00    -0.047 C 
ATOM     16  C   UNL A   1      35.308 -33.207 -30.862  0.00  0.00    -0.045 C 
ATOM     17  C   UNL A   1      34.614 -34.580 -30.932  0.00  0.00    -0.003 C 
ATOM     18  C   UNL A   1      34.046 -34.783 -32.361  0.00  0.00    -0.057 C 
ATOM     19  C   UNL A   1      35.611 -35.697 -30.572  0.00  0.00    +0.061 C 
ATOM     20  C   UNL A   1      34.874 -36.953 -30.108  0.00  0.00    -0.020 C 
ATOM     21  C   UNL A   1      34.138 -36.744 -28.751  0.00  0.00    -0.021 C 
ATOM     22  C   UNL A   1      35.246 -36.939 -27.649  0.00  0.00    -0.059 C 
ATOM     23  C   UNL A   1      32.941 -37.812 -28.554  0.00  0.00    -0.023 C 
ATOM     24  C   UNL A   1      31.820 -37.565 -29.609  0.00  0.00    -0.059 C 
ATOM     25  C   UNL A   1      33.467 -39.285 -28.761  0.00  0.00    -0.047 C 
ATOM     26  C   UNL A   1      32.938 -40.338 -27.765  0.00  0.00    -0.049 C 
ATOM     27  C   UNL A   1      31.469 -40.069 -27.435  0.00  0.00    -0.028 C 
ENDROOT
BRANCH  14  28
ATOM     28  C   UNL A   1      31.812 -32.424 -29.776  0.00  0.00    +0.093 C 
ATOM     29  C   UNL A   1      30.917 -32.933 -30.869  0.00  0.00    -0.033 C 
ATOM     30  C   UNL A   1      31.167 -31.776 -28.564  0.00  0.00    +0.077 C 
ATOM     31  O   UNL A   1      31.725 -30.993 -29.622  0.00  0.00    -0.368 OA
ENDBRANCH  14  28
BRANCH   4  32
ATOM     32  O   UNL A   1      28.266 -41.781 -26.370  0.00  0.00    -0.391 OA
ATOM     33  H   UNL A   1      28.569 -42.662 -26.640  0.00  0.00    +0.000 HD
ENDBRANCH   4  32
BRANCH  19  34
ATOM     34  O   UNL A   1      36.436 -36.010 -31.691  0.00  0.00    -0.391 OA
ATOM     35  H   UNL A   1      36.195 -36.885 -32.035  0.00  0.00    +0.000 HD
ENDBRANCH  19  34
TORSDOF 3
ENDMDL
MODEL 20
REMARK VINA RESULT:    -5.921     22.098     23.976
REMARK INTER + INTRA:          -7.177
REMARK INTER:                  -6.619
REMARK INTRA:                  -0.557
REMARK UNBOUND:                -0.563
REMARK  Name = cpd280.pdb
REMARK  10 active torsions:
REMARK  status: ('A' for Active; 'I' for Inactive)
REMARK    1  A    between atoms: C_1  and  C_2
REMARK    2  A    between atoms: C_2  and  C_3
REMARK    3  A    between atoms: C_4  and  O_5
REMARK    4  A    between atoms: C_8  and  C_9
REMARK    5  A    between atoms: C_15  and  C_16
REMARK    6  A    between atoms: C_16  and  C_17
REMARK    7  A    between atoms: C_22  and  C_23
REMARK    8  A    between atoms: C_24  and  O_25
REMARK    9  A    between atoms: C_27  and  C_28
REMARK   10  A    between atoms: C_29  and  C_30
REMARK                            x       y       z     vdW  Elec       q    Type
REMARK                         _______ _______ _______ _____ _____    ______ ____
ROOT
ATOM      1  C   UNL A   1      55.096 -32.283 -57.309  0.00  0.00    -0.057 C 
ATOM      2  C   UNL A   1      54.514 -32.069 -55.882  0.00  0.00    -0.006 C 
ATOM      3  C   UNL A   1      55.213 -30.810 -55.336  0.00  0.00    -0.057 C 
ATOM      4  C   UNL A   1      54.855 -33.349 -55.057  0.00  0.00    +0.061 C 
ATOM      5  C   UNL A   1      54.075 -33.504 -53.747  0.00  0.00    -0.026 C 
ATOM      6  C   UNL A   1      52.556 -33.307 -53.888  0.00  0.00    -0.045 C 
ATOM      7  C   UNL A   1      52.182 -31.977 -54.589  0.00  0.00    -0.025 C 
ATOM      8  C   UNL A   1      52.585 -30.814 -53.631  0.00  0.00    -0.059 C 
ATOM      9  C   UNL A   1      50.621 -31.747 -54.849  0.00  0.00    -0.029 C 
ATOM     10  C   UNL A   1      49.678 -32.117 -53.682  0.00  0.00    -0.049 C 
ATOM     11  C   UNL A   1      48.355 -32.787 -54.038  0.00  0.00    -0.049 C 
ATOM     12  C   UNL A   1      47.599 -32.278 -55.287  0.00  0.00    -0.031 C 
ATOM     13  C   UNL A   1      46.685 -33.409 -55.868  0.00  0.00    -0.024 C 
ATOM     14  C   UNL A   1      45.585 -33.865 -54.848  0.00  0.00    -0.006 C 
ATOM     15  C   UNL A   1      44.263 -33.888 -55.623  0.00  0.00    -0.047 C 
ATOM     16  C   UNL A   1      44.450 -32.821 -56.685  0.00  0.00    -0.045 C 
ATOM     17  C   UNL A   1      45.903 -33.010 -57.160  0.00  0.00    -0.003 C 
ATOM     18  C   UNL A   1      45.952 -34.186 -58.171  0.00  0.00    -0.057 C 
ATOM     19  C   UNL A   1      46.424 -31.710 -57.802  0.00  0.00    +0.061 C 
ATOM     20  C   UNL A   1      47.952 -31.671 -57.784  0.00  0.00    -0.020 C 
ATOM     21  C   UNL A   1      48.527 -31.558 -56.341  0.00  0.00    -0.021 C 
ATOM     22  C   UNL A   1      48.444 -30.026 -55.985  0.00  0.00    -0.059 C 
ATOM     23  C   UNL A   1      50.055 -32.080 -56.268  0.00  0.00    -0.023 C 
ATOM     24  C   UNL A   1      50.115 -33.611 -56.556  0.00  0.00    -0.059 C 
ATOM     25  C   UNL A   1      50.943 -31.361 -57.355  0.00  0.00    -0.047 C 
ATOM     26  C   UNL A   1      52.351 -30.923 -56.897  0.00  0.00    -0.049 C 
ATOM     27  C   UNL A   1      52.954 -31.968 -55.958  0.00  0.00    -0.028 C 
ENDROOT
BRANCH  14  28
ATOM     28  C   UNL A   1      45.854 -35.183 -54.142  0.00  0.00    +0.093 C 
ATOM     29  C   UNL A   1      46.779 -36.185 -54.767  0.00  0.00    -0.033 C 
ATOM     30  C   UNL A   1      45.561 -35.305 -52.657  0.00  0.00    +0.077 C 
ATOM     31  O   UNL A   1      44.646 -35.793 -53.642  0.00  0.00    -0.368 OA
ENDBRANCH  14  28
BRANCH   4  32
ATOM     32  O   UNL A   1      56.252 -33.397 -54.774  0.00  0.00    -0.391 OA
ATOM     33  H   UNL A   1      56.540 -32.542 -54.416  0.00  0.00    +0.000 HD
ENDBRANCH   4  32
BRANCH  19  34
ATOM     34  O   UNL A   1      45.957 -31.593 -59.143  0.00  0.00    -0.391 OA
ATOM     35  H   UNL A   1      46.164 -30.708 -59.481  0.00  0.00    +0.000 HD
ENDBRANCH  19  34
TORSDOF 3
ENDMDL
