@<TRIPOS>MOLECULE
*****
 33 38 0 0 0
SMALL
GASTEIGER

@<TRIPOS>ATOM
      1 C           1.8077   -0.4739    0.0000 C.3     1  UNL1        0.0025
      2 C           0.8229   -0.4745    0.0000 C.3     1  UNL1        0.0282
      3 C           1.3148    0.3787    0.0000 C.3     1  UNL1        0.0025
      4 C           0.8234   -1.4243    0.0000 C.3     1  UNL1        0.1519
      5 O           1.6766   -1.9163    0.0000 O.3     1  UNL1       -0.2232
      6 C           0.0011   -1.8997    0.0000 C.3     1  UNL1        0.0329
      7 C          -0.8218   -1.4253    0.0000 C.3     1  UNL1        0.0026
      8 C          -0.8223   -0.4754    0.0000 C.3     1  UNL1        0.0002
      9 C          -1.6695   -0.9652    0.0000 C.3     1  UNL1        0.0000
     10 C          -1.6449   -0.0005    0.0000 C.3     1  UNL1        0.0000
     11 C          -2.4679   -0.4759    0.0000 C.3     1  UNL1        0.0000
     12 C          -3.2910   -0.0009    0.0000 C.3     1  UNL1        0.0000
     13 C          -3.2913    0.9494    0.0000 C.3     1  UNL1        0.0002
     14 C          -4.1145    1.4243    0.0000 C.3     1  UNL1        0.0047
     15 C          -5.7594    1.4239    0.0000 C.3     1  UNL1        0.0275
     16 C          -6.4308    0.7521    0.0000 C.3     1  UNL1        0.1200
     17 C          -6.1853    1.6696    0.0000 C.3     1  UNL1        0.0322
     18 C          -6.6764   -0.1654    0.0000 C.3     1  UNL1        0.1689
     19 O          -7.3481    0.5060    0.0000 O.3     1  UNL1       -0.3536
     20 C          -5.7597    2.3736    0.0000 C.3     1  UNL1        0.0025
     21 C          -4.9379    2.8490    0.0000 C.3     1  UNL1        0.0025
     22 C          -4.1148    2.3741    0.0000 C.3     1  UNL1        0.0282
     23 C          -4.1150    3.3484    0.0000 C.3     1  UNL1        0.0025
     24 C          -3.2919    2.8495    0.0000 C.3     1  UNL1        0.1519
     25 O          -3.2921    3.8238    0.0000 O.3     1  UNL1       -0.2232
     26 C          -2.4687    2.3746    0.0000 C.3     1  UNL1        0.0329
     27 C          -2.4684    1.4248    0.0000 C.3     1  UNL1        0.0024
     28 C          -0.7810    2.3996    0.0000 C.3     1  UNL1        0.0001
     29 C          -1.6452    0.9499    0.0000 C.3     1  UNL1        0.0001
     30 C          -1.6455    1.9242    0.0000 C.3     1  UNL1        0.0000
     31 C          -0.8229    1.4253    0.0000 C.3     1  UNL1        0.0000
     32 C          -0.0003    0.9503    0.0000 C.3     1  UNL1        0.0001
     33 C           0.0000   -0.0000    0.0000 C.3     1  UNL1        0.0024
@<TRIPOS>BOND
     1     1     2    1
     2     2     3    1
     3     2     4    1
     4     4     5    1
     5     4     6    1
     6     6     7    1
     7     7     8    1
     8     8     9    1
     9     8    10    1
    10    10    11    1
    11    11    12    1
    12    12    13    1
    13    13    14    1
    14    14    15    1
    15    15    16    1
    16    16    17    1
    17    16    18    1
    18    18    19    1
    19    16    19    1
    20    15    20    1
    21    20    21    1
    22    21    22    1
    23    14    22    1
    24    22    23    1
    25    22    24    1
    26    24    25    1
    27    24    26    1
    28    26    27    1
    29    13    27    1
    30    27    28    1
    31    27    29    1
    32    10    29    1
    33    29    30    1
    34    29    31    1
    35    31    32    1
    36    32    33    1
    37     2    33    1
    38     8    33    1
