REMARK  Name = cpd333.pdb
REMARK  5 active torsions:
REMARK  status: ('A' for Active; 'I' for Inactive)
REMARK    1  A    between atoms: C_2  and  C_3
REMARK    2  A    between atoms: C_2  and  C_18
REMARK    3  A    between atoms: C_4  and  C_5
REMARK    4  A    between atoms: N_8  and  C_9
REMARK    5  A    between atoms: C_9  and  C_10
REMARK                            x       y       z     vdW  Elec       q    Type
REMARK                         _______ _______ _______ _____ _____    ______ ____
ROOT
ATOM      1  C   UNL A   1      -1.504   1.442   0.343  0.00  0.00    -0.011 C 
ATOM      2  C   UNL A   1      -1.630   0.182  -0.104  0.00  0.00    -0.051 C 
ENDROOT
BRANCH   2   3
ATOM      3  C   UNL A   1      -2.888  -0.577  -0.062  0.00  0.00    -0.022 A 
ATOM      4  C   UNL A   1      -3.791  -0.479   0.996  0.00  0.00    -0.038 A 
ATOM      5  C   UNL A   1      -4.953  -1.243   0.988  0.00  0.00    +0.005 A 
ATOM      6  N   UNL A   1      -5.217  -2.090  -0.035  0.00  0.00    -0.349 N 
ATOM      7  C   UNL A   1      -4.346  -2.218  -1.061  0.00  0.00    +0.005 A 
ATOM      8  C   UNL A   1      -3.171  -1.473  -1.092  0.00  0.00    -0.038 A 
BRANCH   6   9
ATOM      9  C   UNL A   1      -6.464  -2.897  -0.014  0.00  0.00    +0.048 C 
BRANCH   9  10
ATOM     10  C   UNL A   1      -7.681  -2.023  -0.171  0.00  0.00    -0.028 A 
ATOM     11  C   UNL A   1      -7.864  -1.242  -1.324  0.00  0.00    -0.057 A 
ATOM     12  C   UNL A   1      -8.992  -0.431  -1.456  0.00  0.00    -0.061 A 
ATOM     13  C   UNL A   1      -9.949  -0.395  -0.445  0.00  0.00    -0.062 A 
ATOM     14  C   UNL A   1      -9.785  -1.172   0.698  0.00  0.00    -0.061 A 
ATOM     15  C   UNL A   1      -8.659  -1.985   0.836  0.00  0.00    -0.057 A 
ENDBRANCH   9  10
ENDBRANCH   6   9
ENDBRANCH   2   3
BRANCH   1  17
ATOM     16  O   UNL A   1      -0.450   3.503   0.295  0.00  0.00    -0.284 OA
ATOM     17  C   UNL A   1      -0.268   2.284   0.283  0.00  0.00    +0.221 C 
BRANCH  17  18
ATOM     18  C   UNL A   1       1.057   1.701   0.227  0.00  0.00    +0.176 A 
ATOM     19  C   UNL A   1       2.281   2.304  -0.005  0.00  0.00    -0.005 A 
ATOM     20  C   UNL A   1       3.270   1.291   0.080  0.00  0.00    +0.022 A 
ATOM     21  C   UNL A   1       4.669   1.238  -0.056  0.00  0.00    -0.037 A 
ATOM     22  C   UNL A   1       5.305   0.001   0.113  0.00  0.00    +0.019 A 
ATOM     23 BR   UNL A   1       7.186  -0.100  -0.067  0.00  0.00    -0.050 Br
ATOM     24  C   UNL A   1       4.583  -1.158   0.413  0.00  0.00    -0.044 A 
ATOM     25  C   UNL A   1       3.191  -1.120   0.553  0.00  0.00    -0.018 A 
ATOM     26  C   UNL A   1       2.583   0.121   0.377  0.00  0.00    +0.136 A 
ATOM     27  O   UNL A   1       1.248   0.366   0.471  0.00  0.00    -0.452 OA
ENDBRANCH  17  18
ENDBRANCH   1  17
TORSDOF 5
