MODEL 1
REMARK VINA RESULT:   -10.590      0.000      0.000
REMARK INTER + INTRA:         -14.013
REMARK INTER:                 -13.685
REMARK INTRA:                  -0.328
REMARK UNBOUND:                -0.328
REMARK  Name = cpd333.pdb
REMARK  5 active torsions:
REMARK  status: ('A' for Active; 'I' for Inactive)
REMARK    1  A    between atoms: C_2  and  C_3
REMARK    2  A    between atoms: C_2  and  C_18
REMARK    3  A    between atoms: C_4  and  C_5
REMARK    4  A    between atoms: N_8  and  C_9
REMARK    5  A    between atoms: C_9  and  C_10
REMARK                            x       y       z     vdW  Elec       q    Type
REMARK                         _______ _______ _______ _____ _____    ______ ____
ROOT
ATOM      1  C   UNL A   1      41.453 -37.072 -32.015  0.00  0.00    -0.011 C 
ATOM      2  C   UNL A   1      42.229 -36.884 -30.935  0.00  0.00    -0.051 C 
ENDROOT
BRANCH   2   3
ATOM      3  C   UNL A   1      43.260 -37.835 -30.496  0.00  0.00    -0.022 A 
ATOM      4  C   UNL A   1      42.982 -39.173 -30.221  0.00  0.00    -0.038 A 
ATOM      5  C   UNL A   1      43.998 -40.017 -29.785  0.00  0.00    +0.005 A 
ATOM      6  N   UNL A   1      45.259 -39.552 -29.617  0.00  0.00    -0.349 N 
ATOM      7  C   UNL A   1      45.548 -38.253 -29.856  0.00  0.00    +0.005 A 
ATOM      8  C   UNL A   1      44.561 -37.375 -30.293  0.00  0.00    -0.038 A 
BRANCH   6   9
ATOM      9  C   UNL A   1      46.323 -40.475 -29.145  0.00  0.00    +0.048 C 
BRANCH   9  10
ATOM     10  C   UNL A   1      47.667 -40.087 -29.703  0.00  0.00    -0.028 A 
ATOM     11  C   UNL A   1      48.123 -40.618 -30.920  0.00  0.00    -0.057 A 
ATOM     12  C   UNL A   1      49.374 -40.257 -31.424  0.00  0.00    -0.061 A 
ATOM     13  C   UNL A   1      50.176 -39.360 -30.725  0.00  0.00    -0.062 A 
ATOM     14  C   UNL A   1      49.732 -38.817 -29.522  0.00  0.00    -0.061 A 
ATOM     15  C   UNL A   1      48.482 -39.175 -29.013  0.00  0.00    -0.057 A 
ENDBRANCH   9  10
ENDBRANCH   6   9
ENDBRANCH   2   3
BRANCH   1  17
ATOM     16  O   UNL A   1      40.700 -35.570 -33.608  0.00  0.00    -0.284 OA
ATOM     17  C   UNL A   1      40.423 -36.122 -32.541  0.00  0.00    +0.221 C 
BRANCH  17  18
ATOM     18  C   UNL A   1      39.175 -35.879 -31.847  0.00  0.00    +0.176 A 
ATOM     19  C   UNL A   1      38.170 -34.969 -32.124  0.00  0.00    -0.005 A 
ATOM     20  C   UNL A   1      37.151 -35.162 -31.156  0.00  0.00    +0.022 A 
ATOM     21  C   UNL A   1      35.902 -34.577 -30.881  0.00  0.00    -0.037 A 
ATOM     22  C   UNL A   1      35.163 -35.071 -29.798  0.00  0.00    +0.019 A 
ATOM     23 BR   UNL A   1      33.480 -34.301 -29.403  0.00  0.00    -0.050 Br
ATOM     24  C   UNL A   1      35.639 -36.119 -29.004  0.00  0.00    -0.044 A 
ATOM     25  C   UNL A   1      36.879 -36.712 -29.267  0.00  0.00    -0.018 A 
ATOM     26  C   UNL A   1      37.595 -36.201 -30.348  0.00  0.00    +0.136 A 
ATOM     27  O   UNL A   1      38.814 -36.638 -30.765  0.00  0.00    -0.452 OA
ENDBRANCH  17  18
ENDBRANCH   1  17
TORSDOF 5
ENDMDL
MODEL 2
REMARK VINA RESULT:    -9.763      1.247      2.062
REMARK INTER + INTRA:         -12.944
REMARK INTER:                 -12.563
REMARK INTRA:                  -0.382
REMARK UNBOUND:                -0.328
REMARK  Name = cpd333.pdb
REMARK  5 active torsions:
REMARK  status: ('A' for Active; 'I' for Inactive)
REMARK    1  A    between atoms: C_2  and  C_3
REMARK    2  A    between atoms: C_2  and  C_18
REMARK    3  A    between atoms: C_4  and  C_5
REMARK    4  A    between atoms: N_8  and  C_9
REMARK    5  A    between atoms: C_9  and  C_10
REMARK                            x       y       z     vdW  Elec       q    Type
REMARK                         _______ _______ _______ _____ _____    ______ ____
ROOT
ATOM      1  C   UNL A   1      40.437 -36.824 -31.544  0.00  0.00    -0.011 C 
ATOM      2  C   UNL A   1      41.155 -36.885 -30.411  0.00  0.00    -0.051 C 
ENDROOT
BRANCH   2   3
ATOM      3  C   UNL A   1      42.078 -37.983 -30.088  0.00  0.00    -0.022 A 
ATOM      4  C   UNL A   1      41.858 -38.865 -29.031  0.00  0.00    -0.038 A 
ATOM      5  C   UNL A   1      42.783 -39.868 -28.763  0.00  0.00    +0.005 A 
ATOM      6  N   UNL A   1      43.903 -39.995 -29.513  0.00  0.00    -0.349 N 
ATOM      7  C   UNL A   1      44.149 -39.138 -30.529  0.00  0.00    +0.005 A 
ATOM      8  C   UNL A   1      43.250 -38.120 -30.832  0.00  0.00    -0.038 A 
BRANCH   6   9
ATOM      9  C   UNL A   1      44.876 -41.073 -29.199  0.00  0.00    +0.048 C 
BRANCH   9  10
ATOM     10  C   UNL A   1      46.238 -40.758 -29.760  0.00  0.00    -0.028 A 
ATOM     11  C   UNL A   1      47.061 -39.792 -29.157  0.00  0.00    -0.057 A 
ATOM     12  C   UNL A   1      48.318 -39.504 -29.689  0.00  0.00    -0.061 A 
ATOM     13  C   UNL A   1      48.769 -40.177 -30.822  0.00  0.00    -0.062 A 
ATOM     14  C   UNL A   1      47.968 -41.144 -31.423  0.00  0.00    -0.061 A 
ATOM     15  C   UNL A   1      46.710 -41.437 -30.895  0.00  0.00    -0.057 A 
ENDBRANCH   9  10
ENDBRANCH   6   9
ENDBRANCH   2   3
BRANCH   1  17
ATOM     16  O   UNL A   1      39.926 -34.994 -32.867  0.00  0.00    -0.284 OA
ATOM     17  C   UNL A   1      39.520 -35.713 -31.953  0.00  0.00    +0.221 C 
BRANCH  17  18
ATOM     18  C   UNL A   1      38.233 -35.507 -31.320  0.00  0.00    +0.176 A 
ATOM     19  C   UNL A   1      37.572 -36.282 -30.384  0.00  0.00    -0.005 A 
ATOM     20  C   UNL A   1      36.360 -35.616 -30.069  0.00  0.00    +0.022 A 
ATOM     21  C   UNL A   1      35.266 -35.866 -29.221  0.00  0.00    -0.037 A 
ATOM     22  C   UNL A   1      34.227 -34.928 -29.185  0.00  0.00    +0.019 A 
ATOM     23 BR   UNL A   1      32.742 -35.241 -28.055  0.00  0.00    -0.050 Br
ATOM     24  C   UNL A   1      34.262 -33.767 -29.963  0.00  0.00    -0.044 A 
ATOM     25  C   UNL A   1      35.345 -33.503 -30.810  0.00  0.00    -0.018 A 
ATOM     26  C   UNL A   1      36.363 -34.453 -30.829  0.00  0.00    +0.136 A 
ATOM     27  O   UNL A   1      37.494 -34.382 -31.582  0.00  0.00    -0.452 OA
ENDBRANCH  17  18
ENDBRANCH   1  17
TORSDOF 5
ENDMDL
MODEL 3
REMARK VINA RESULT:    -8.766      6.774     11.087
REMARK INTER + INTRA:         -11.657
REMARK INTER:                 -11.086
REMARK INTRA:                  -0.570
REMARK UNBOUND:                -0.328
REMARK  Name = cpd333.pdb
REMARK  5 active torsions:
REMARK  status: ('A' for Active; 'I' for Inactive)
REMARK    1  A    between atoms: C_2  and  C_3
REMARK    2  A    between atoms: C_2  and  C_18
REMARK    3  A    between atoms: C_4  and  C_5
REMARK    4  A    between atoms: N_8  and  C_9
REMARK    5  A    between atoms: C_9  and  C_10
REMARK                            x       y       z     vdW  Elec       q    Type
REMARK                         _______ _______ _______ _____ _____    ______ ____
ROOT
ATOM      1  C   UNL A   1      34.456 -37.194 -26.690  0.00  0.00    -0.011 C 
ATOM      2  C   UNL A   1      33.656 -36.782 -25.692  0.00  0.00    -0.051 C 
ENDROOT
BRANCH   2   3
ATOM      3  C   UNL A   1      33.706 -37.328 -24.329  0.00  0.00    -0.022 A 
ATOM      4  C   UNL A   1      34.135 -36.579 -23.233  0.00  0.00    -0.038 A 
ATOM      5  C   UNL A   1      34.182 -37.162 -21.972  0.00  0.00    +0.005 A 
ATOM      6  N   UNL A   1      33.821 -38.455 -21.793  0.00  0.00    -0.349 N 
ATOM      7  C   UNL A   1      33.422 -39.206 -22.843  0.00  0.00    +0.005 A 
ATOM      8  C   UNL A   1      33.361 -38.663 -24.123  0.00  0.00    -0.038 A 
BRANCH   6   9
ATOM      9  C   UNL A   1      33.886 -39.051 -20.434  0.00  0.00    +0.048 C 
BRANCH   9  10
ATOM     10  C   UNL A   1      35.281 -39.520 -20.111  0.00  0.00    -0.028 A 
ATOM     11  C   UNL A   1      36.208 -38.659 -19.499  0.00  0.00    -0.057 A 
ATOM     12  C   UNL A   1      37.499 -39.101 -19.211  0.00  0.00    -0.061 A 
ATOM     13  C   UNL A   1      37.878 -40.404 -19.523  0.00  0.00    -0.062 A 
ATOM     14  C   UNL A   1      36.966 -41.271 -20.119  0.00  0.00    -0.061 A 
ATOM     15  C   UNL A   1      35.673 -40.834 -20.410  0.00  0.00    -0.057 A 
ENDBRANCH   9  10
ENDBRANCH   6   9
ENDBRANCH   2   3
BRANCH   1  17
ATOM     16  O   UNL A   1      33.407 -36.268 -28.534  0.00  0.00    -0.284 OA
ATOM     17  C   UNL A   1      34.489 -36.646 -28.082  0.00  0.00    +0.221 C 
BRANCH  17  18
ATOM     18  C   UNL A   1      35.719 -36.555 -28.843  0.00  0.00    +0.176 A 
ATOM     19  C   UNL A   1      36.881 -37.300 -28.740  0.00  0.00    -0.005 A 
ATOM     20  C   UNL A   1      37.769 -36.830 -29.741  0.00  0.00    +0.022 A 
ATOM     21  C   UNL A   1      39.075 -37.149 -30.157  0.00  0.00    -0.037 A 
ATOM     22  C   UNL A   1      39.623 -36.432 -31.229  0.00  0.00    +0.019 A 
ATOM     23 BR   UNL A   1      41.378 -36.838 -31.807  0.00  0.00    -0.050 Br
ATOM     24  C   UNL A   1      38.902 -35.428 -31.882  0.00  0.00    -0.044 A 
ATOM     25  C   UNL A   1      37.602 -35.101 -31.481  0.00  0.00    -0.018 A 
ATOM     26  C   UNL A   1      37.082 -35.826 -30.411  0.00  0.00    +0.136 A 
ATOM     27  O   UNL A   1      35.843 -35.660 -29.874  0.00  0.00    -0.452 OA
ENDBRANCH  17  18
ENDBRANCH   1  17
TORSDOF 5
ENDMDL
MODEL 4
REMARK VINA RESULT:    -8.479      6.838     11.439
REMARK INTER + INTRA:         -11.286
REMARK INTER:                 -10.653
REMARK INTRA:                  -0.633
REMARK UNBOUND:                -0.328
REMARK  Name = cpd333.pdb
REMARK  5 active torsions:
REMARK  status: ('A' for Active; 'I' for Inactive)
REMARK    1  A    between atoms: C_2  and  C_3
REMARK    2  A    between atoms: C_2  and  C_18
REMARK    3  A    between atoms: C_4  and  C_5
REMARK    4  A    between atoms: N_8  and  C_9
REMARK    5  A    between atoms: C_9  and  C_10
REMARK                            x       y       z     vdW  Elec       q    Type
REMARK                         _______ _______ _______ _____ _____    ______ ____
ROOT
ATOM      1  C   UNL A   1      35.095 -37.649 -26.899  0.00  0.00    -0.011 C 
ATOM      2  C   UNL A   1      33.932 -37.385 -26.282  0.00  0.00    -0.051 C 
ENDROOT
BRANCH   2   3
ATOM      3  C   UNL A   1      33.708 -37.583 -24.843  0.00  0.00    -0.022 A 
ATOM      4  C   UNL A   1      33.583 -36.521 -23.948  0.00  0.00    -0.038 A 
ATOM      5  C   UNL A   1      33.396 -36.775 -22.593  0.00  0.00    +0.005 A 
ATOM      6  N   UNL A   1      33.341 -38.046 -22.129  0.00  0.00    -0.349 N 
ATOM      7  C   UNL A   1      33.481 -39.091 -22.975  0.00  0.00    +0.005 A 
ATOM      8  C   UNL A   1      33.670 -38.882 -24.338  0.00  0.00    -0.038 A 
BRANCH   6   9
ATOM      9  C   UNL A   1      33.145 -38.287 -20.677  0.00  0.00    +0.048 C 
BRANCH   9  10
ATOM     10  C   UNL A   1      34.350 -38.956 -20.068  0.00  0.00    -0.028 A 
ATOM     11  C   UNL A   1      34.288 -40.288 -19.625  0.00  0.00    -0.057 A 
ATOM     12  C   UNL A   1      35.408 -40.896 -19.057  0.00  0.00    -0.061 A 
ATOM     13  C   UNL A   1      36.600 -40.186 -18.931  0.00  0.00    -0.062 A 
ATOM     14  C   UNL A   1      36.678 -38.870 -19.377  0.00  0.00    -0.061 A 
ATOM     15  C   UNL A   1      35.561 -38.256 -19.945  0.00  0.00    -0.057 A 
ENDBRANCH   9  10
ENDBRANCH   6   9
ENDBRANCH   2   3
BRANCH   1  17
ATOM     16  O   UNL A   1      34.427 -37.252 -29.080  0.00  0.00    -0.284 OA
ATOM     17  C   UNL A   1      35.403 -37.423 -28.346  0.00  0.00    +0.221 C 
BRANCH  17  18
ATOM     18  C   UNL A   1      36.761 -37.395 -28.848  0.00  0.00    +0.176 A 
ATOM     19  C   UNL A   1      37.296 -36.699 -29.919  0.00  0.00    -0.005 A 
ATOM     20  C   UNL A   1      38.682 -36.995 -29.960  0.00  0.00    +0.022 A 
ATOM     21  C   UNL A   1      39.765 -36.627 -30.780  0.00  0.00    -0.037 A 
ATOM     22  C   UNL A   1      41.031 -37.146 -30.479  0.00  0.00    +0.019 A 
ATOM     23 BR   UNL A   1      42.504 -36.671 -31.567  0.00  0.00    -0.050 Br
ATOM     24  C   UNL A   1      41.230 -38.004 -29.393  0.00  0.00    -0.044 A 
ATOM     25  C   UNL A   1      40.164 -38.377 -28.567  0.00  0.00    -0.018 A 
ATOM     26  C   UNL A   1      38.915 -37.849 -28.890  0.00  0.00    +0.136 A 
ATOM     27  O   UNL A   1      37.759 -38.089 -28.214  0.00  0.00    -0.452 OA
ENDBRANCH  17  18
ENDBRANCH   1  17
TORSDOF 5
ENDMDL
MODEL 5
REMARK VINA RESULT:    -8.185      6.102     11.108
REMARK INTER + INTRA:         -10.906
REMARK INTER:                 -10.263
REMARK INTRA:                  -0.643
REMARK UNBOUND:                -0.328
REMARK  Name = cpd333.pdb
REMARK  5 active torsions:
REMARK  status: ('A' for Active; 'I' for Inactive)
REMARK    1  A    between atoms: C_2  and  C_3
REMARK    2  A    between atoms: C_2  and  C_18
REMARK    3  A    between atoms: C_4  and  C_5
REMARK    4  A    between atoms: N_8  and  C_9
REMARK    5  A    between atoms: C_9  and  C_10
REMARK                            x       y       z     vdW  Elec       q    Type
REMARK                         _______ _______ _______ _____ _____    ______ ____
ROOT
ATOM      1  C   UNL A   1      34.635 -36.725 -28.297  0.00  0.00    -0.011 C 
ATOM      2  C   UNL A   1      34.414 -37.897 -27.680  0.00  0.00    -0.051 C 
ENDROOT
BRANCH   2   3
ATOM      3  C   UNL A   1      33.997 -38.013 -26.275  0.00  0.00    -0.022 A 
ATOM      4  C   UNL A   1      33.801 -39.243 -25.648  0.00  0.00    -0.038 A 
ATOM      5  C   UNL A   1      33.382 -39.286 -24.322  0.00  0.00    +0.005 A 
ATOM      6  N   UNL A   1      33.154 -38.143 -23.632  0.00  0.00    -0.349 N 
ATOM      7  C   UNL A   1      33.317 -36.940 -24.225  0.00  0.00    +0.005 A 
ATOM      8  C   UNL A   1      33.734 -36.852 -25.550  0.00  0.00    -0.038 A 
BRANCH   6   9
ATOM      9  C   UNL A   1      32.703 -38.220 -22.218  0.00  0.00    +0.048 C 
BRANCH   9  10
ATOM     10  C   UNL A   1      33.848 -38.551 -21.298  0.00  0.00    -0.028 A 
ATOM     11  C   UNL A   1      34.726 -37.550 -20.850  0.00  0.00    -0.057 A 
ATOM     12  C   UNL A   1      35.788 -37.870 -20.003  0.00  0.00    -0.061 A 
ATOM     13  C   UNL A   1      35.982 -39.186 -19.590  0.00  0.00    -0.062 A 
ATOM     14  C   UNL A   1      35.113 -40.185 -20.018  0.00  0.00    -0.061 A 
ATOM     15  C   UNL A   1      34.049 -39.872 -20.866  0.00  0.00    -0.057 A 
ENDBRANCH   9  10
ENDBRANCH   6   9
ENDBRANCH   2   3
BRANCH   1  17
ATOM     16  O   UNL A   1      34.080 -36.578 -30.540  0.00  0.00    -0.284 OA
ATOM     17  C   UNL A   1      35.011 -36.538 -29.734  0.00  0.00    +0.221 C 
BRANCH  17  18
ATOM     18  C   UNL A   1      36.381 -36.313 -30.146  0.00  0.00    +0.176 A 
ATOM     19  C   UNL A   1      37.522 -37.046 -29.869  0.00  0.00    -0.005 A 
ATOM     20  C   UNL A   1      38.600 -36.415 -30.542  0.00  0.00    +0.022 A 
ATOM     21  C   UNL A   1      39.982 -36.646 -30.663  0.00  0.00    -0.037 A 
ATOM     22  C   UNL A   1      40.734 -35.767 -31.453  0.00  0.00    +0.019 A 
ATOM     23 BR   UNL A   1      42.596 -36.051 -31.632  0.00  0.00    -0.050 Br
ATOM     24  C   UNL A   1      40.140 -34.686 -32.113  0.00  0.00    -0.044 A 
ATOM     25  C   UNL A   1      38.766 -34.445 -32.002  0.00  0.00    -0.018 A 
ATOM     26  C   UNL A   1      38.042 -35.332 -31.209  0.00  0.00    +0.136 A 
ATOM     27  O   UNL A   1      36.703 -35.271 -30.976  0.00  0.00    -0.452 OA
ENDBRANCH  17  18
ENDBRANCH   1  17
TORSDOF 5
ENDMDL
MODEL 6
REMARK VINA RESULT:    -7.949      5.760     13.462
REMARK INTER + INTRA:         -10.601
REMARK INTER:                 -10.187
REMARK INTRA:                  -0.414
REMARK UNBOUND:                -0.328
REMARK  Name = cpd333.pdb
REMARK  5 active torsions:
REMARK  status: ('A' for Active; 'I' for Inactive)
REMARK    1  A    between atoms: C_2  and  C_3
REMARK    2  A    between atoms: C_2  and  C_18
REMARK    3  A    between atoms: C_4  and  C_5
REMARK    4  A    between atoms: N_8  and  C_9
REMARK    5  A    between atoms: C_9  and  C_10
REMARK                            x       y       z     vdW  Elec       q    Type
REMARK                         _______ _______ _______ _____ _____    ______ ____
ROOT
ATOM      1  C   UNL A   1      34.699 -35.978 -29.599  0.00  0.00    -0.011 C 
ATOM      2  C   UNL A   1      34.476 -34.758 -29.084  0.00  0.00    -0.051 C 
ENDROOT
BRANCH   2   3
ATOM      3  C   UNL A   1      33.446 -33.837 -29.584  0.00  0.00    -0.022 A 
ATOM      4  C   UNL A   1      32.183 -34.269 -29.990  0.00  0.00    -0.038 A 
ATOM      5  C   UNL A   1      31.260 -33.350 -30.477  0.00  0.00    +0.005 A 
ATOM      6  N   UNL A   1      31.575 -32.036 -30.569  0.00  0.00    -0.349 N 
ATOM      7  C   UNL A   1      32.800 -31.597 -30.201  0.00  0.00    +0.005 A 
ATOM      8  C   UNL A   1      33.753 -32.483 -29.710  0.00  0.00    -0.038 A 
BRANCH   6   9
ATOM      9  C   UNL A   1      30.570 -31.078 -31.097  0.00  0.00    +0.048 C 
BRANCH   9  10
ATOM     10  C   UNL A   1      29.768 -30.459 -29.982  0.00  0.00    -0.028 A 
ATOM     11  C   UNL A   1      29.588 -31.134 -28.764  0.00  0.00    -0.057 A 
ATOM     12  C   UNL A   1      28.837 -30.555 -27.740  0.00  0.00    -0.061 A 
ATOM     13  C   UNL A   1      28.265 -29.298 -27.918  0.00  0.00    -0.062 A 
ATOM     14  C   UNL A   1      28.445 -28.614 -29.117  0.00  0.00    -0.061 A 
ATOM     15  C   UNL A   1      29.194 -29.188 -30.145  0.00  0.00    -0.057 A 
ENDBRANCH   9  10
ENDBRANCH   6   9
ENDBRANCH   2   3
BRANCH   1  17
ATOM     16  O   UNL A   1      35.272 -37.796 -28.284  0.00  0.00    -0.284 OA
ATOM     17  C   UNL A   1      35.695 -36.980 -29.105  0.00  0.00    +0.221 C 
BRANCH  17  18
ATOM     18  C   UNL A   1      37.066 -36.996 -29.574  0.00  0.00    +0.176 A 
ATOM     19  C   UNL A   1      38.188 -37.578 -29.010  0.00  0.00    -0.005 A 
ATOM     20  C   UNL A   1      39.275 -37.328 -29.887  0.00  0.00    +0.022 A 
ATOM     21  C   UNL A   1      40.648 -37.633 -29.898  0.00  0.00    -0.037 A 
ATOM     22  C   UNL A   1      41.415 -37.197 -30.987  0.00  0.00    +0.019 A 
ATOM     23 BR   UNL A   1      43.265 -37.591 -31.027  0.00  0.00    -0.050 Br
ATOM     24  C   UNL A   1      40.845 -36.481 -32.043  0.00  0.00    -0.044 A 
ATOM     25  C   UNL A   1      39.480 -36.172 -32.047  0.00  0.00    -0.018 A 
ATOM     26  C   UNL A   1      38.740 -36.614 -30.951  0.00  0.00    +0.136 A 
ATOM     27  O   UNL A   1      37.407 -36.416 -30.768  0.00  0.00    -0.452 OA
ENDBRANCH  17  18
ENDBRANCH   1  17
TORSDOF 5
ENDMDL
MODEL 7
REMARK VINA RESULT:    -7.702      7.172     10.902
REMARK INTER + INTRA:         -10.282
REMARK INTER:                  -9.585
REMARK INTRA:                  -0.697
REMARK UNBOUND:                -0.328
REMARK  Name = cpd333.pdb
REMARK  5 active torsions:
REMARK  status: ('A' for Active; 'I' for Inactive)
REMARK    1  A    between atoms: C_2  and  C_3
REMARK    2  A    between atoms: C_2  and  C_18
REMARK    3  A    between atoms: C_4  and  C_5
REMARK    4  A    between atoms: N_8  and  C_9
REMARK    5  A    between atoms: C_9  and  C_10
REMARK                            x       y       z     vdW  Elec       q    Type
REMARK                         _______ _______ _______ _____ _____    ______ ____
ROOT
ATOM      1  C   UNL A   1      35.417 -39.140 -29.906  0.00  0.00    -0.011 C 
ATOM      2  C   UNL A   1      35.742 -40.322 -30.455  0.00  0.00    -0.051 C 
ENDROOT
BRANCH   2   3
ATOM      3  C   UNL A   1      34.843 -41.090 -31.329  0.00  0.00    -0.022 A 
ATOM      4  C   UNL A   1      33.688 -41.714 -30.859  0.00  0.00    -0.038 A 
ATOM      5  C   UNL A   1      32.892 -42.447 -31.733  0.00  0.00    +0.005 A 
ATOM      6  N   UNL A   1      33.230 -42.569 -33.039  0.00  0.00    -0.349 N 
ATOM      7  C   UNL A   1      34.357 -41.992 -33.512  0.00  0.00    +0.005 A 
ATOM      8  C   UNL A   1      35.182 -41.250 -32.672  0.00  0.00    -0.038 A 
BRANCH   6   9
ATOM      9  C   UNL A   1      32.363 -43.363 -33.947  0.00  0.00    +0.048 C 
BRANCH   9  10
ATOM     10  C   UNL A   1      33.030 -44.653 -34.348  0.00  0.00    -0.028 A 
ATOM     11  C   UNL A   1      33.600 -44.805 -35.623  0.00  0.00    -0.057 A 
ATOM     12  C   UNL A   1      34.210 -46.007 -35.985  0.00  0.00    -0.061 A 
ATOM     13  C   UNL A   1      34.263 -47.064 -35.080  0.00  0.00    -0.062 A 
ATOM     14  C   UNL A   1      33.712 -46.923 -33.810  0.00  0.00    -0.061 A 
ATOM     15  C   UNL A   1      33.101 -45.724 -33.442  0.00  0.00    -0.057 A 
ENDBRANCH   9  10
ENDBRANCH   6   9
ENDBRANCH   2   3
BRANCH   1  17
ATOM     16  O   UNL A   1      35.870 -38.027 -27.927  0.00  0.00    -0.284 OA
ATOM     17  C   UNL A   1      36.302 -38.288 -29.051  0.00  0.00    +0.221 C 
BRANCH  17  18
ATOM     18  C   UNL A   1      37.590 -37.812 -29.514  0.00  0.00    +0.176 A 
ATOM     19  C   UNL A   1      38.849 -37.993 -28.968  0.00  0.00    -0.005 A 
ATOM     20  C   UNL A   1      39.775 -37.350 -29.829  0.00  0.00    +0.022 A 
ATOM     21  C   UNL A   1      41.169 -37.162 -29.846  0.00  0.00    -0.037 A 
ATOM     22  C   UNL A   1      41.729 -36.447 -30.912  0.00  0.00    +0.019 A 
ATOM     23 BR   UNL A   1      43.601 -36.177 -30.959  0.00  0.00    -0.050 Br
ATOM     24  C   UNL A   1      40.937 -35.930 -31.942  0.00  0.00    -0.044 A 
ATOM     25  C   UNL A   1      39.549 -36.110 -31.940  0.00  0.00    -0.018 A 
ATOM     26  C   UNL A   1      39.017 -36.822 -30.867  0.00  0.00    +0.136 A 
ATOM     27  O   UNL A   1      37.699 -37.103 -30.682  0.00  0.00    -0.452 OA
ENDBRANCH  17  18
ENDBRANCH   1  17
TORSDOF 5
ENDMDL
MODEL 8
REMARK VINA RESULT:    -7.586      8.170     10.570
REMARK INTER + INTRA:         -10.131
REMARK INTER:                  -9.442
REMARK INTRA:                  -0.689
REMARK UNBOUND:                -0.328
REMARK  Name = cpd333.pdb
REMARK  5 active torsions:
REMARK  status: ('A' for Active; 'I' for Inactive)
REMARK    1  A    between atoms: C_2  and  C_3
REMARK    2  A    between atoms: C_2  and  C_18
REMARK    3  A    between atoms: C_4  and  C_5
REMARK    4  A    between atoms: N_8  and  C_9
REMARK    5  A    between atoms: C_9  and  C_10
REMARK                            x       y       z     vdW  Elec       q    Type
REMARK                         _______ _______ _______ _____ _____    ______ ____
ROOT
ATOM      1  C   UNL A   1      34.100 -41.091 -33.738  0.00  0.00    -0.011 C 
ATOM      2  C   UNL A   1      33.951 -41.015 -32.406  0.00  0.00    -0.051 C 
ENDROOT
BRANCH   2   3
ATOM      3  C   UNL A   1      34.687 -40.070 -31.555  0.00  0.00    -0.022 A 
ATOM      4  C   UNL A   1      34.529 -38.688 -31.652  0.00  0.00    -0.038 A 
ATOM      5  C   UNL A   1      35.274 -37.845 -30.835  0.00  0.00    +0.005 A 
ATOM      6  N   UNL A   1      36.161 -38.351 -29.945  0.00  0.00    -0.349 N 
ATOM      7  C   UNL A   1      36.348 -39.687 -29.848  0.00  0.00    +0.005 A 
ATOM      8  C   UNL A   1      35.623 -40.565 -30.648  0.00  0.00    -0.038 A 
BRANCH   6   9
ATOM      9  C   UNL A   1      36.947 -37.427 -29.088  0.00  0.00    +0.048 C 
BRANCH   9  10
ATOM     10  C   UNL A   1      38.387 -37.370 -29.527  0.00  0.00    -0.028 A 
ATOM     11  C   UNL A   1      39.387 -38.042 -28.806  0.00  0.00    -0.057 A 
ATOM     12  C   UNL A   1      40.719 -37.977 -29.217  0.00  0.00    -0.061 A 
ATOM     13  C   UNL A   1      41.066 -37.247 -30.351  0.00  0.00    -0.062 A 
ATOM     14  C   UNL A   1      40.083 -36.585 -31.081  0.00  0.00    -0.061 A 
ATOM     15  C   UNL A   1      38.749 -36.646 -30.674  0.00  0.00    -0.057 A 
ENDBRANCH   9  10
ENDBRANCH   6   9
ENDBRANCH   2   3
BRANCH   1  17
ATOM     16  O   UNL A   1      32.597 -41.433 -35.465  0.00  0.00    -0.284 OA
ATOM     17  C   UNL A   1      33.346 -41.994 -34.664  0.00  0.00    +0.221 C 
BRANCH  17  18
ATOM     18  C   UNL A   1      33.499 -43.434 -34.626  0.00  0.00    +0.176 A 
ATOM     19  C   UNL A   1      32.942 -44.362 -33.763  0.00  0.00    -0.005 A 
ATOM     20  C   UNL A   1      33.385 -45.642 -34.181  0.00  0.00    +0.022 A 
ATOM     21  C   UNL A   1      33.195 -46.965 -33.742  0.00  0.00    -0.037 A 
ATOM     22  C   UNL A   1      33.823 -47.996 -34.453  0.00  0.00    +0.019 A 
ATOM     23 BR   UNL A   1      33.586 -49.785 -33.883  0.00  0.00    -0.050 Br
ATOM     24  C   UNL A   1      34.619 -47.734 -35.572  0.00  0.00    -0.044 A 
ATOM     25  C   UNL A   1      34.816 -46.424 -36.021  0.00  0.00    -0.018 A 
ATOM     26  C   UNL A   1      34.183 -45.417 -35.296  0.00  0.00    +0.136 A 
ATOM     27  O   UNL A   1      34.249 -44.086 -35.570  0.00  0.00    -0.452 OA
ENDBRANCH  17  18
ENDBRANCH   1  17
TORSDOF 5
ENDMDL
MODEL 9
REMARK VINA RESULT:    -7.467      7.547     15.158
REMARK INTER + INTRA:          -9.978
REMARK INTER:                  -9.270
REMARK INTRA:                  -0.708
REMARK UNBOUND:                -0.328
REMARK  Name = cpd333.pdb
REMARK  5 active torsions:
REMARK  status: ('A' for Active; 'I' for Inactive)
REMARK    1  A    between atoms: C_2  and  C_3
REMARK    2  A    between atoms: C_2  and  C_18
REMARK    3  A    between atoms: C_4  and  C_5
REMARK    4  A    between atoms: N_8  and  C_9
REMARK    5  A    between atoms: C_9  and  C_10
REMARK                            x       y       z     vdW  Elec       q    Type
REMARK                         _______ _______ _______ _____ _____    ______ ____
ROOT
ATOM      1  C   UNL A   1      33.413 -31.970 -30.622  0.00  0.00    -0.011 C 
ATOM      2  C   UNL A   1      32.198 -32.023 -31.192  0.00  0.00    -0.051 C 
ENDROOT
BRANCH   2   3
ATOM      3  C   UNL A   1      30.980 -31.487 -30.569  0.00  0.00    -0.022 A 
ATOM      4  C   UNL A   1      29.767 -31.388 -31.250  0.00  0.00    -0.038 A 
ATOM      5  C   UNL A   1      28.656 -30.847 -30.611  0.00  0.00    +0.005 A 
ATOM      6  N   UNL A   1      28.739 -30.408 -29.333  0.00  0.00    -0.349 N 
ATOM      7  C   UNL A   1      29.910 -30.473 -28.660  0.00  0.00    +0.005 A 
ATOM      8  C   UNL A   1      31.046 -31.006 -29.262  0.00  0.00    -0.038 A 
BRANCH   6   9
ATOM      9  C   UNL A   1      27.537 -29.831 -28.678  0.00  0.00    +0.048 C 
BRANCH   9  10
ATOM     10  C   UNL A   1      27.727 -28.365 -28.384  0.00  0.00    -0.028 A 
ATOM     11  C   UNL A   1      27.998 -27.452 -29.416  0.00  0.00    -0.057 A 
ATOM     12  C   UNL A   1      28.179 -26.098 -29.131  0.00  0.00    -0.061 A 
ATOM     13  C   UNL A   1      28.087 -25.641 -27.819  0.00  0.00    -0.062 A 
ATOM     14  C   UNL A   1      27.808 -26.534 -26.788  0.00  0.00    -0.061 A 
ATOM     15  C   UNL A   1      27.626 -27.890 -27.067  0.00  0.00    -0.057 A 
ENDBRANCH   9  10
ENDBRANCH   6   9
ENDBRANCH   2   3
BRANCH   1  17
ATOM     16  O   UNL A   1      35.174 -31.737 -32.108  0.00  0.00    -0.284 OA
ATOM     17  C   UNL A   1      34.696 -32.451 -31.224  0.00  0.00    +0.221 C 
BRANCH  17  18
ATOM     18  C   UNL A   1      35.340 -33.673 -30.786  0.00  0.00    +0.176 A 
ATOM     19  C   UNL A   1      34.864 -34.679 -29.963  0.00  0.00    -0.005 A 
ATOM     20  C   UNL A   1      35.879 -35.666 -29.879  0.00  0.00    +0.022 A 
ATOM     21  C   UNL A   1      36.028 -36.900 -29.221  0.00  0.00    -0.037 A 
ATOM     22  C   UNL A   1      37.225 -37.607 -29.401  0.00  0.00    +0.019 A 
ATOM     23 BR   UNL A   1      37.454 -39.269 -28.526  0.00  0.00    -0.050 Br
ATOM     24  C   UNL A   1      38.250 -37.114 -30.214  0.00  0.00    -0.044 A 
ATOM     25  C   UNL A   1      38.115 -35.889 -30.876  0.00  0.00    -0.018 A 
ATOM     26  C   UNL A   1      36.917 -35.205 -30.678  0.00  0.00    +0.136 A 
ATOM     27  O   UNL A   1      36.593 -34.005 -31.230  0.00  0.00    -0.452 OA
ENDBRANCH  17  18
ENDBRANCH   1  17
TORSDOF 5
ENDMDL
MODEL 10
REMARK VINA RESULT:    -7.438     17.629     19.434
REMARK INTER + INTRA:          -9.940
REMARK INTER:                  -9.198
REMARK INTRA:                  -0.742
REMARK UNBOUND:                -0.328
REMARK  Name = cpd333.pdb
REMARK  5 active torsions:
REMARK  status: ('A' for Active; 'I' for Inactive)
REMARK    1  A    between atoms: C_2  and  C_3
REMARK    2  A    between atoms: C_2  and  C_18
REMARK    3  A    between atoms: C_4  and  C_5
REMARK    4  A    between atoms: N_8  and  C_9
REMARK    5  A    between atoms: C_9  and  C_10
REMARK                            x       y       z     vdW  Elec       q    Type
REMARK                         _______ _______ _______ _____ _____    ______ ____
ROOT
ATOM      1  C   UNL A   1      44.685 -18.559 -34.559  0.00  0.00    -0.011 C 
ATOM      2  C   UNL A   1      44.180 -19.065 -35.695  0.00  0.00    -0.051 C 
ENDROOT
BRANCH   2   3
ATOM      3  C   UNL A   1      44.896 -19.065 -36.978  0.00  0.00    -0.022 A 
ATOM      4  C   UNL A   1      44.627 -18.144 -37.990  0.00  0.00    -0.038 A 
ATOM      5  C   UNL A   1      45.323 -18.212 -39.192  0.00  0.00    +0.005 A 
ATOM      6  N   UNL A   1      46.259 -19.169 -39.396  0.00  0.00    -0.349 N 
ATOM      7  C   UNL A   1      46.522 -20.086 -38.438  0.00  0.00    +0.005 A 
ATOM      8  C   UNL A   1      45.848 -20.054 -37.221  0.00  0.00    -0.038 A 
BRANCH   6   9
ATOM      9  C   UNL A   1      46.984 -19.220 -40.692  0.00  0.00    +0.048 C 
BRANCH   9  10
ATOM     10  C   UNL A   1      46.834 -20.569 -41.347  0.00  0.00    -0.028 A 
ATOM     11  C   UNL A   1      47.939 -21.422 -41.501  0.00  0.00    -0.057 A 
ATOM     12  C   UNL A   1      47.791 -22.666 -42.115  0.00  0.00    -0.061 A 
ATOM     13  C   UNL A   1      46.541 -23.074 -42.575  0.00  0.00    -0.062 A 
ATOM     14  C   UNL A   1      45.436 -22.242 -42.419  0.00  0.00    -0.061 A 
ATOM     15  C   UNL A   1      45.578 -20.997 -41.806  0.00  0.00    -0.057 A 
ENDBRANCH   9  10
ENDBRANCH   6   9
ENDBRANCH   2   3
BRANCH   1  17
ATOM     16  O   UNL A   1      44.764 -18.324 -32.257  0.00  0.00    -0.284 OA
ATOM     17  C   UNL A   1      44.029 -18.573 -33.213  0.00  0.00    +0.221 C 
BRANCH  17  18
ATOM     18  C   UNL A   1      42.616 -18.851 -33.050  0.00  0.00    +0.176 A 
ATOM     19  C   UNL A   1      41.525 -18.012 -33.202  0.00  0.00    -0.005 A 
ATOM     20  C   UNL A   1      40.363 -18.788 -32.959  0.00  0.00    +0.022 A 
ATOM     21  C   UNL A   1      38.978 -18.547 -32.947  0.00  0.00    -0.037 A 
ATOM     22  C   UNL A   1      38.121 -19.617 -32.656  0.00  0.00    +0.019 A 
ATOM     23 BR   UNL A   1      36.252 -19.319 -32.630  0.00  0.00    -0.050 Br
ATOM     24  C   UNL A   1      38.614 -20.897 -32.387  0.00  0.00    -0.044 A 
ATOM     25  C   UNL A   1      39.990 -21.152 -32.398  0.00  0.00    -0.018 A 
ATOM     26  C   UNL A   1      40.820 -20.071 -32.687  0.00  0.00    +0.136 A 
ATOM     27  O   UNL A   1      42.179 -20.113 -32.745  0.00  0.00    -0.452 OA
ENDBRANCH  17  18
ENDBRANCH   1  17
TORSDOF 5
ENDMDL
MODEL 11
REMARK VINA RESULT:    -7.423     17.553     20.273
REMARK INTER + INTRA:          -9.920
REMARK INTER:                  -9.157
REMARK INTRA:                  -0.763
REMARK UNBOUND:                -0.328
REMARK  Name = cpd333.pdb
REMARK  5 active torsions:
REMARK  status: ('A' for Active; 'I' for Inactive)
REMARK    1  A    between atoms: C_2  and  C_3
REMARK    2  A    between atoms: C_2  and  C_18
REMARK    3  A    between atoms: C_4  and  C_5
REMARK    4  A    between atoms: N_8  and  C_9
REMARK    5  A    between atoms: C_9  and  C_10
REMARK                            x       y       z     vdW  Elec       q    Type
REMARK                         _______ _______ _______ _____ _____    ______ ____
ROOT
ATOM      1  C   UNL A   1      44.519 -19.095 -36.531  0.00  0.00    -0.011 C 
ATOM      2  C   UNL A   1      43.885 -20.268 -36.371  0.00  0.00    -0.051 C 
ENDROOT
BRANCH   2   3
ATOM      3  C   UNL A   1      42.930 -20.538 -35.287  0.00  0.00    -0.022 A 
ATOM      4  C   UNL A   1      43.099 -20.045 -33.994  0.00  0.00    -0.038 A 
ATOM      5  C   UNL A   1      42.171 -20.358 -33.006  0.00  0.00    +0.005 A 
ATOM      6  N   UNL A   1      41.104 -21.144 -33.283  0.00  0.00    -0.349 N 
ATOM      7  C   UNL A   1      40.931 -21.651 -34.524  0.00  0.00    +0.005 A 
ATOM      8  C   UNL A   1      41.836 -21.364 -35.542  0.00  0.00    -0.038 A 
BRANCH   6   9
ATOM      9  C   UNL A   1      40.132 -21.465 -32.207  0.00  0.00    +0.048 C 
BRANCH   9  10
ATOM     10  C   UNL A   1      38.820 -20.758 -32.430  0.00  0.00    -0.028 A 
ATOM     11  C   UNL A   1      37.634 -21.485 -32.625  0.00  0.00    -0.057 A 
ATOM     12  C   UNL A   1      36.425 -20.820 -32.837  0.00  0.00    -0.061 A 
ATOM     13  C   UNL A   1      36.387 -19.428 -32.851  0.00  0.00    -0.062 A 
ATOM     14  C   UNL A   1      37.553 -18.696 -32.648  0.00  0.00    -0.061 A 
ATOM     15  C   UNL A   1      38.765 -19.355 -32.435  0.00  0.00    -0.057 A 
ENDBRANCH   9  10
ENDBRANCH   6   9
ENDBRANCH   2   3
BRANCH   1  17
ATOM     16  O   UNL A   1      45.899 -17.589 -37.621  0.00  0.00    -0.284 OA
ATOM     17  C   UNL A   1      45.462 -18.741 -37.638  0.00  0.00    +0.221 C 
BRANCH  17  18
ATOM     18  C   UNL A   1      45.846 -19.698 -38.656  0.00  0.00    +0.176 A 
ATOM     19  C   UNL A   1      46.954 -20.525 -38.722  0.00  0.00    -0.005 A 
ATOM     20  C   UNL A   1      46.835 -21.290 -39.910  0.00  0.00    +0.022 A 
ATOM     21  C   UNL A   1      47.603 -22.280 -40.550  0.00  0.00    -0.037 A 
ATOM     22  C   UNL A   1      47.125 -22.815 -41.754  0.00  0.00    +0.019 A 
ATOM     23 BR   UNL A   1      48.140 -24.146 -42.637  0.00  0.00    -0.050 Br
ATOM     24  C   UNL A   1      45.917 -22.390 -42.315  0.00  0.00    -0.044 A 
ATOM     25  C   UNL A   1      45.141 -21.408 -41.689  0.00  0.00    -0.018 A 
ATOM     26  C   UNL A   1      45.640 -20.890 -40.496  0.00  0.00    +0.136 A 
ATOM     27  O   UNL A   1      45.039 -19.933 -39.738  0.00  0.00    -0.452 OA
ENDBRANCH  17  18
ENDBRANCH   1  17
TORSDOF 5
ENDMDL
MODEL 12
REMARK VINA RESULT:    -7.366      7.026     14.819
REMARK INTER + INTRA:          -9.847
REMARK INTER:                  -9.250
REMARK INTRA:                  -0.597
REMARK UNBOUND:                -0.328
REMARK  Name = cpd333.pdb
REMARK  5 active torsions:
REMARK  status: ('A' for Active; 'I' for Inactive)
REMARK    1  A    between atoms: C_2  and  C_3
REMARK    2  A    between atoms: C_2  and  C_18
REMARK    3  A    between atoms: C_4  and  C_5
REMARK    4  A    between atoms: N_8  and  C_9
REMARK    5  A    between atoms: C_9  and  C_10
REMARK                            x       y       z     vdW  Elec       q    Type
REMARK                         _______ _______ _______ _____ _____    ______ ____
ROOT
ATOM      1  C   UNL A   1      33.353 -33.983 -29.781  0.00  0.00    -0.011 C 
ATOM      2  C   UNL A   1      32.087 -33.892 -30.219  0.00  0.00    -0.051 C 
ENDROOT
BRANCH   2   3
ATOM      3  C   UNL A   1      31.427 -32.620 -30.548  0.00  0.00    -0.022 A 
ATOM      4  C   UNL A   1      31.728 -31.425 -29.895  0.00  0.00    -0.038 A 
ATOM      5  C   UNL A   1      31.049 -30.260 -30.236  0.00  0.00    +0.005 A 
ATOM      6  N   UNL A   1      30.091 -30.272 -31.192  0.00  0.00    -0.349 N 
ATOM      7  C   UNL A   1      29.767 -31.422 -31.824  0.00  0.00    +0.005 A 
ATOM      8  C   UNL A   1      30.420 -32.611 -31.513  0.00  0.00    -0.038 A 
BRANCH   6   9
ATOM      9  C   UNL A   1      29.380 -29.012 -31.532  0.00  0.00    +0.048 C 
BRANCH   9  10
ATOM     10  C   UNL A   1      28.468 -28.583 -30.412  0.00  0.00    -0.028 A 
ATOM     11  C   UNL A   1      28.497 -27.267 -29.923  0.00  0.00    -0.057 A 
ATOM     12  C   UNL A   1      27.652 -26.883 -28.881  0.00  0.00    -0.061 A 
ATOM     13  C   UNL A   1      26.768 -27.802 -28.322  0.00  0.00    -0.062 A 
ATOM     14  C   UNL A   1      26.721 -29.107 -28.805  0.00  0.00    -0.061 A 
ATOM     15  C   UNL A   1      27.564 -29.498 -29.847  0.00  0.00    -0.057 A 
ENDBRANCH   9  10
ENDBRANCH   6   9
ENDBRANCH   2   3
BRANCH   1  17
ATOM     16  O   UNL A   1      33.489 -36.074 -28.796  0.00  0.00    -0.284 OA
ATOM     17  C   UNL A   1      34.096 -35.246 -29.478  0.00  0.00    +0.221 C 
BRANCH  17  18
ATOM     18  C   UNL A   1      35.439 -35.484 -29.967  0.00  0.00    +0.176 A 
ATOM     19  C   UNL A   1      36.130 -34.866 -30.995  0.00  0.00    -0.005 A 
ATOM     20  C   UNL A   1      37.422 -35.448 -31.040  0.00  0.00    +0.022 A 
ATOM     21  C   UNL A   1      38.573 -35.279 -31.831  0.00  0.00    -0.037 A 
ATOM     22  C   UNL A   1      39.694 -36.071 -31.548  0.00  0.00    +0.019 A 
ATOM     23 BR   UNL A   1      41.255 -35.867 -32.598  0.00  0.00    -0.050 Br
ATOM     24  C   UNL A   1      39.686 -37.006 -30.508  0.00  0.00    -0.044 A 
ATOM     25  C   UNL A   1      38.548 -37.183 -29.712  0.00  0.00    -0.018 A 
ATOM     26  C   UNL A   1      37.447 -36.386 -30.016  0.00  0.00    +0.136 A 
ATOM     27  O   UNL A   1      36.253 -36.406 -29.364  0.00  0.00    -0.452 OA
ENDBRANCH  17  18
ENDBRANCH   1  17
TORSDOF 5
ENDMDL
MODEL 13
REMARK VINA RESULT:    -7.221      4.464     11.184
REMARK INTER + INTRA:          -9.660
REMARK INTER:                  -9.463
REMARK INTRA:                  -0.197
REMARK UNBOUND:                -0.328
REMARK  Name = cpd333.pdb
REMARK  5 active torsions:
REMARK  status: ('A' for Active; 'I' for Inactive)
REMARK    1  A    between atoms: C_2  and  C_3
REMARK    2  A    between atoms: C_2  and  C_18
REMARK    3  A    between atoms: C_4  and  C_5
REMARK    4  A    between atoms: N_8  and  C_9
REMARK    5  A    between atoms: C_9  and  C_10
REMARK                            x       y       z     vdW  Elec       q    Type
REMARK                         _______ _______ _______ _____ _____    ______ ____
ROOT
ATOM      1  C   UNL A   1      39.347 -35.886 -31.942  0.00  0.00    -0.011 C 
ATOM      2  C   UNL A   1      38.567 -36.337 -30.947  0.00  0.00    -0.051 C 
ENDROOT
BRANCH   2   3
ATOM      3  C   UNL A   1      37.101 -36.230 -30.947  0.00  0.00    -0.022 A 
ATOM      4  C   UNL A   1      36.435 -35.007 -31.017  0.00  0.00    -0.038 A 
ATOM      5  C   UNL A   1      35.045 -34.972 -30.988  0.00  0.00    +0.005 A 
ATOM      6  N   UNL A   1      34.326 -36.115 -30.885  0.00  0.00    -0.349 N 
ATOM      7  C   UNL A   1      34.950 -37.311 -30.794  0.00  0.00    +0.005 A 
ATOM      8  C   UNL A   1      36.339 -37.391 -30.818  0.00  0.00    -0.038 A 
BRANCH   6   9
ATOM      9  C   UNL A   1      32.843 -36.046 -30.852  0.00  0.00    +0.048 C 
BRANCH   9  10
ATOM     10  C   UNL A   1      32.370 -34.658 -30.509  0.00  0.00    -0.028 A 
ATOM     11  C   UNL A   1      32.236 -34.251 -29.171  0.00  0.00    -0.057 A 
ATOM     12  C   UNL A   1      31.791 -32.965 -28.865  0.00  0.00    -0.061 A 
ATOM     13  C   UNL A   1      31.480 -32.071 -29.886  0.00  0.00    -0.062 A 
ATOM     14  C   UNL A   1      31.618 -32.458 -31.216  0.00  0.00    -0.061 A 
ATOM     15  C   UNL A   1      32.062 -33.743 -31.529  0.00  0.00    -0.057 A 
ENDBRANCH   9  10
ENDBRANCH   6   9
ENDBRANCH   2   3
BRANCH   1  17
ATOM     16  O   UNL A   1      41.413 -35.113 -32.646  0.00  0.00    -0.284 OA
ATOM     17  C   UNL A   1      40.837 -36.008 -32.025  0.00  0.00    +0.221 C 
BRANCH  17  18
ATOM     18  C   UNL A   1      41.554 -37.103 -31.403  0.00  0.00    +0.176 A 
ATOM     19  C   UNL A   1      42.466 -37.988 -31.950  0.00  0.00    -0.005 A 
ATOM     20  C   UNL A   1      42.897 -38.845 -30.905  0.00  0.00    +0.022 A 
ATOM     21  C   UNL A   1      43.784 -39.931 -30.796  0.00  0.00    -0.037 A 
ATOM     22  C   UNL A   1      43.947 -40.531 -29.540  0.00  0.00    +0.019 A 
ATOM     23 BR   UNL A   1      45.133 -41.995 -29.366  0.00  0.00    -0.050 Br
ATOM     24  C   UNL A   1      43.256 -40.072 -28.415  0.00  0.00    -0.044 A 
ATOM     25  C   UNL A   1      42.371 -38.992 -28.508  0.00  0.00    -0.018 A 
ATOM     26  C   UNL A   1      42.225 -38.415 -29.767  0.00  0.00    +0.136 A 
ATOM     27  O   UNL A   1      41.417 -37.361 -30.064  0.00  0.00    -0.452 OA
ENDBRANCH  17  18
ENDBRANCH   1  17
TORSDOF 5
ENDMDL
MODEL 14
REMARK VINA RESULT:    -7.212      6.428     14.226
REMARK INTER + INTRA:          -9.649
REMARK INTER:                  -9.040
REMARK INTRA:                  -0.609
REMARK UNBOUND:                -0.328
REMARK  Name = cpd333.pdb
REMARK  5 active torsions:
REMARK  status: ('A' for Active; 'I' for Inactive)
REMARK    1  A    between atoms: C_2  and  C_3
REMARK    2  A    between atoms: C_2  and  C_18
REMARK    3  A    between atoms: C_4  and  C_5
REMARK    4  A    between atoms: N_8  and  C_9
REMARK    5  A    between atoms: C_9  and  C_10
REMARK                            x       y       z     vdW  Elec       q    Type
REMARK                         _______ _______ _______ _____ _____    ______ ____
ROOT
ATOM      1  C   UNL A   1      34.240 -34.703 -30.463  0.00  0.00    -0.011 C 
ATOM      2  C   UNL A   1      33.101 -34.492 -29.784  0.00  0.00    -0.051 C 
ENDROOT
BRANCH   2   3
ATOM      3  C   UNL A   1      32.329 -33.244 -29.854  0.00  0.00    -0.022 A 
ATOM      4  C   UNL A   1      32.884 -32.038 -30.279  0.00  0.00    -0.038 A 
ATOM      5  C   UNL A   1      32.106 -30.885 -30.299  0.00  0.00    +0.005 A 
ATOM      6  N   UNL A   1      30.812 -30.918 -29.902  0.00  0.00    -0.349 N 
ATOM      7  C   UNL A   1      30.257 -32.071 -29.465  0.00  0.00    +0.005 A 
ATOM      8  C   UNL A   1      31.001 -33.246 -29.429  0.00  0.00    -0.038 A 
BRANCH   6   9
ATOM      9  C   UNL A   1      30.006 -29.670 -29.930  0.00  0.00    +0.048 C 
BRANCH   9  10
ATOM     10  C   UNL A   1      28.767 -29.840 -30.769  0.00  0.00    -0.028 A 
ATOM     11  C   UNL A   1      28.858 -30.162 -32.133  0.00  0.00    -0.057 A 
ATOM     12  C   UNL A   1      27.703 -30.311 -32.902  0.00  0.00    -0.061 A 
ATOM     13  C   UNL A   1      26.449 -30.146 -32.319  0.00  0.00    -0.062 A 
ATOM     14  C   UNL A   1      26.345 -29.837 -30.966  0.00  0.00    -0.061 A 
ATOM     15  C   UNL A   1      27.496 -29.687 -30.192  0.00  0.00    -0.057 A 
ENDBRANCH   9  10
ENDBRANCH   6   9
ENDBRANCH   2   3
BRANCH   1  17
ATOM     16  O   UNL A   1      34.410 -37.006 -30.292  0.00  0.00    -0.284 OA
ATOM     17  C   UNL A   1      35.045 -35.965 -30.473  0.00  0.00    +0.221 C 
BRANCH  17  18
ATOM     18  C   UNL A   1      36.476 -35.962 -30.695  0.00  0.00    +0.176 A 
ATOM     19  C   UNL A   1      37.418 -36.937 -30.414  0.00  0.00    -0.005 A 
ATOM     20  C   UNL A   1      38.673 -36.448 -30.860  0.00  0.00    +0.022 A 
ATOM     21  C   UNL A   1      39.995 -36.929 -30.866  0.00  0.00    -0.037 A 
ATOM     22  C   UNL A   1      40.992 -36.118 -31.423  0.00  0.00    +0.019 A 
ATOM     23 BR   UNL A   1      42.780 -36.739 -31.441  0.00  0.00    -0.050 Br
ATOM     24  C   UNL A   1      40.698 -34.864 -31.965  0.00  0.00    -0.044 A 
ATOM     25  C   UNL A   1      39.387 -34.373 -31.968  0.00  0.00    -0.018 A 
ATOM     26  C   UNL A   1      38.415 -35.197 -31.406  0.00  0.00    +0.136 A 
ATOM     27  O   UNL A   1      37.090 -34.903 -31.312  0.00  0.00    -0.452 OA
ENDBRANCH  17  18
ENDBRANCH   1  17
TORSDOF 5
ENDMDL
MODEL 15
REMARK VINA RESULT:    -7.182      9.883     13.235
REMARK INTER + INTRA:          -9.609
REMARK INTER:                  -9.049
REMARK INTRA:                  -0.560
REMARK UNBOUND:                -0.328
REMARK  Name = cpd333.pdb
REMARK  5 active torsions:
REMARK  status: ('A' for Active; 'I' for Inactive)
REMARK    1  A    between atoms: C_2  and  C_3
REMARK    2  A    between atoms: C_2  and  C_18
REMARK    3  A    between atoms: C_4  and  C_5
REMARK    4  A    between atoms: N_8  and  C_9
REMARK    5  A    between atoms: C_9  and  C_10
REMARK                            x       y       z     vdW  Elec       q    Type
REMARK                         _______ _______ _______ _____ _____    ______ ____
ROOT
ATOM      1  C   UNL A   1      33.277 -38.149 -22.830  0.00  0.00    -0.011 C 
ATOM      2  C   UNL A   1      33.524 -36.974 -23.430  0.00  0.00    -0.051 C 
ENDROOT
BRANCH   2   3
ATOM      3  C   UNL A   1      33.373 -36.748 -24.875  0.00  0.00    -0.022 A 
ATOM      4  C   UNL A   1      32.391 -35.914 -25.408  0.00  0.00    -0.038 A 
ATOM      5  C   UNL A   1      32.285 -35.761 -26.786  0.00  0.00    +0.005 A 
ATOM      6  N   UNL A   1      33.122 -36.421 -27.622  0.00  0.00    -0.349 N 
ATOM      7  C   UNL A   1      34.068 -37.252 -27.129  0.00  0.00    +0.005 A 
ATOM      8  C   UNL A   1      34.208 -37.434 -25.756  0.00  0.00    -0.038 A 
BRANCH   6   9
ATOM      9  C   UNL A   1      32.982 -36.242 -29.090  0.00  0.00    +0.048 C 
BRANCH   9  10
ATOM     10  C   UNL A   1      33.923 -35.182 -29.601  0.00  0.00    -0.028 A 
ATOM     11  C   UNL A   1      35.059 -35.529 -30.351  0.00  0.00    -0.057 A 
ATOM     12  C   UNL A   1      35.928 -34.539 -30.815  0.00  0.00    -0.061 A 
ATOM     13  C   UNL A   1      35.670 -33.199 -30.541  0.00  0.00    -0.062 A 
ATOM     14  C   UNL A   1      34.542 -32.841 -29.808  0.00  0.00    -0.061 A 
ATOM     15  C   UNL A   1      33.669 -33.826 -29.342  0.00  0.00    -0.057 A 
ENDBRANCH   9  10
ENDBRANCH   6   9
ENDBRANCH   2   3
BRANCH   1  17
ATOM     16  O   UNL A   1      32.536 -37.847 -20.657  0.00  0.00    -0.284 OA
ATOM     17  C   UNL A   1      33.362 -38.430 -21.362  0.00  0.00    +0.221 C 
BRANCH  17  18
ATOM     18  C   UNL A   1      34.346 -39.337 -20.809  0.00  0.00    +0.176 A 
ATOM     19  C   UNL A   1      34.352 -40.721 -20.769  0.00  0.00    -0.005 A 
ATOM     20  C   UNL A   1      35.563 -41.117 -20.147  0.00  0.00    +0.022 A 
ATOM     21  C   UNL A   1      36.163 -42.343 -19.805  0.00  0.00    -0.037 A 
ATOM     22  C   UNL A   1      37.418 -42.315 -19.182  0.00  0.00    +0.019 A 
ATOM     23 BR   UNL A   1      38.248 -43.949 -18.708  0.00  0.00    -0.050 Br
ATOM     24  C   UNL A   1      38.071 -41.110 -18.905  0.00  0.00    -0.044 A 
ATOM     25  C   UNL A   1      37.487 -39.884 -19.241  0.00  0.00    -0.018 A 
ATOM     26  C   UNL A   1      36.238 -39.939 -19.856  0.00  0.00    +0.136 A 
ATOM     27  O   UNL A   1      35.509 -38.863 -20.259  0.00  0.00    -0.452 OA
ENDBRANCH  17  18
ENDBRANCH   1  17
TORSDOF 5
ENDMDL
MODEL 16
REMARK VINA RESULT:    -7.181     17.276     18.727
REMARK INTER + INTRA:          -9.608
REMARK INTER:                  -8.904
REMARK INTRA:                  -0.704
REMARK UNBOUND:                -0.328
REMARK  Name = cpd333.pdb
REMARK  5 active torsions:
REMARK  status: ('A' for Active; 'I' for Inactive)
REMARK    1  A    between atoms: C_2  and  C_3
REMARK    2  A    between atoms: C_2  and  C_18
REMARK    3  A    between atoms: C_4  and  C_5
REMARK    4  A    between atoms: N_8  and  C_9
REMARK    5  A    between atoms: C_9  and  C_10
REMARK                            x       y       z     vdW  Elec       q    Type
REMARK                         _______ _______ _______ _____ _____    ______ ____
ROOT
ATOM      1  C   UNL A   1      41.384 -21.458 -35.852  0.00  0.00    -0.011 C 
ATOM      2  C   UNL A   1      41.087 -21.020 -37.086  0.00  0.00    -0.051 C 
ENDROOT
BRANCH   2   3
ATOM      3  C   UNL A   1      42.095 -20.742 -38.119  0.00  0.00    -0.022 A 
ATOM      4  C   UNL A   1      42.030 -21.286 -39.401  0.00  0.00    -0.038 A 
ATOM      5  C   UNL A   1      43.030 -21.004 -40.325  0.00  0.00    +0.005 A 
ATOM      6  N   UNL A   1      44.075 -20.210 -39.993  0.00  0.00    -0.349 N 
ATOM      7  C   UNL A   1      44.171 -19.689 -38.749  0.00  0.00    +0.005 A 
ATOM      8  C   UNL A   1      43.193 -19.947 -37.794  0.00  0.00    -0.038 A 
BRANCH   6   9
ATOM      9  C   UNL A   1      45.130 -19.930 -41.000  0.00  0.00    +0.048 C 
BRANCH   9  10
ATOM     10  C   UNL A   1      45.979 -21.148 -41.252  0.00  0.00    -0.028 A 
ATOM     11  C   UNL A   1      45.823 -21.906 -42.425  0.00  0.00    -0.057 A 
ATOM     12  C   UNL A   1      46.610 -23.037 -42.645  0.00  0.00    -0.061 A 
ATOM     13  C   UNL A   1      47.563 -23.419 -41.704  0.00  0.00    -0.062 A 
ATOM     14  C   UNL A   1      47.735 -22.672 -40.543  0.00  0.00    -0.061 A 
ATOM     15  C   UNL A   1      46.951 -21.540 -40.317  0.00  0.00    -0.057 A 
ENDBRANCH   9  10
ENDBRANCH   6   9
ENDBRANCH   2   3
BRANCH   1  17
ATOM     16  O   UNL A   1      40.362 -22.996 -34.455  0.00  0.00    -0.284 OA
ATOM     17  C   UNL A   1      40.404 -21.807 -34.776  0.00  0.00    +0.221 C 
BRANCH  17  18
ATOM     18  C   UNL A   1      39.569 -20.806 -34.143  0.00  0.00    +0.176 A 
ATOM     19  C   UNL A   1      39.906 -19.561 -33.640  0.00  0.00    -0.005 A 
ATOM     20  C   UNL A   1      38.711 -18.967 -33.160  0.00  0.00    +0.022 A 
ATOM     21  C   UNL A   1      38.371 -17.749 -32.543  0.00  0.00    -0.037 A 
ATOM     22  C   UNL A   1      37.028 -17.525 -32.213  0.00  0.00    +0.019 A 
ATOM     23 BR   UNL A   1      36.544 -15.896 -31.380  0.00  0.00    -0.050 Br
ATOM     24  C   UNL A   1      36.040 -18.475 -32.485  0.00  0.00    -0.044 A 
ATOM     25  C   UNL A   1      36.362 -19.690 -33.100  0.00  0.00    -0.018 A 
ATOM     26  C   UNL A   1      37.705 -19.889 -33.416  0.00  0.00    +0.136 A 
ATOM     27  O   UNL A   1      38.219 -20.998 -34.013  0.00  0.00    -0.452 OA
ENDBRANCH  17  18
ENDBRANCH   1  17
TORSDOF 5
ENDMDL
MODEL 17
REMARK VINA RESULT:    -6.898     30.978     34.530
REMARK INTER + INTRA:          -9.242
REMARK INTER:                  -8.554
REMARK INTRA:                  -0.688
REMARK UNBOUND:                -0.328
REMARK  Name = cpd333.pdb
REMARK  5 active torsions:
REMARK  status: ('A' for Active; 'I' for Inactive)
REMARK    1  A    between atoms: C_2  and  C_3
REMARK    2  A    between atoms: C_2  and  C_18
REMARK    3  A    between atoms: C_4  and  C_5
REMARK    4  A    between atoms: N_8  and  C_9
REMARK    5  A    between atoms: C_9  and  C_10
REMARK                            x       y       z     vdW  Elec       q    Type
REMARK                         _______ _______ _______ _____ _____    ______ ____
ROOT
ATOM      1  C   UNL A   1      62.982 -19.417  -8.632  0.00  0.00    -0.011 C 
ATOM      2  C   UNL A   1      61.881 -18.679  -8.417  0.00  0.00    -0.051 C 
ENDROOT
BRANCH   2   3
ATOM      3  C   UNL A   1      60.989 -18.213  -9.487  0.00  0.00    -0.022 A 
ATOM      4  C   UNL A   1      59.609 -18.101  -9.322  0.00  0.00    -0.038 A 
ATOM      5  C   UNL A   1      58.815 -17.677 -10.382  0.00  0.00    +0.005 A 
ATOM      6  N   UNL A   1      59.367 -17.376 -11.582  0.00  0.00    -0.349 N 
ATOM      7  C   UNL A   1      60.700 -17.497 -11.772  0.00  0.00    +0.005 A 
ATOM      8  C   UNL A   1      61.530 -17.919 -10.738  0.00  0.00    -0.038 A 
BRANCH   6   9
ATOM      9  C   UNL A   1      58.495 -16.930 -12.698  0.00  0.00    +0.048 C 
BRANCH   9  10
ATOM     10  C   UNL A   1      57.562 -18.030 -13.133  0.00  0.00    -0.028 A 
ATOM     11  C   UNL A   1      56.181 -17.940 -12.897  0.00  0.00    -0.057 A 
ATOM     12  C   UNL A   1      55.327 -18.968 -13.299  0.00  0.00    -0.061 A 
ATOM     13  C   UNL A   1      55.840 -20.091 -13.944  0.00  0.00    -0.062 A 
ATOM     14  C   UNL A   1      57.206 -20.187 -14.194  0.00  0.00    -0.061 A 
ATOM     15  C   UNL A   1      58.065 -19.162 -13.794  0.00  0.00    -0.057 A 
ENDBRANCH   9  10
ENDBRANCH   6   9
ENDBRANCH   2   3
BRANCH   1  17
ATOM     16  O   UNL A   1      64.701 -19.159  -7.103  0.00  0.00    -0.284 OA
ATOM     17  C   UNL A   1      63.901 -19.963  -7.585  0.00  0.00    +0.221 C 
BRANCH  17  18
ATOM     18  C   UNL A   1      63.844 -21.347  -7.159  0.00  0.00    +0.176 A 
ATOM     19  C   UNL A   1      63.353 -22.458  -7.821  0.00  0.00    -0.005 A 
ATOM     20  C   UNL A   1      63.567 -23.578  -6.977  0.00  0.00    +0.022 A 
ATOM     21  C   UNL A   1      63.302 -24.957  -7.050  0.00  0.00    -0.037 A 
ATOM     22  C   UNL A   1      63.686 -25.764  -5.970  0.00  0.00    +0.019 A 
ATOM     23 BR   UNL A   1      63.339 -27.623  -6.041  0.00  0.00    -0.050 Br
ATOM     24  C   UNL A   1      64.320 -25.228  -4.846  0.00  0.00    -0.044 A 
ATOM     25  C   UNL A   1      64.591 -23.858  -4.760  0.00  0.00    -0.018 A 
ATOM     26  C   UNL A   1      64.197 -23.078  -5.844  0.00  0.00    +0.136 A 
ATOM     27  O   UNL A   1      64.370 -21.732  -5.953  0.00  0.00    -0.452 OA
ENDBRANCH  17  18
ENDBRANCH   1  17
TORSDOF 5
ENDMDL
MODEL 18
REMARK VINA RESULT:    -6.730     21.563     23.668
REMARK INTER + INTRA:          -9.025
REMARK INTER:                  -8.414
REMARK INTRA:                  -0.612
REMARK UNBOUND:                -0.328
REMARK  Name = cpd333.pdb
REMARK  5 active torsions:
REMARK  status: ('A' for Active; 'I' for Inactive)
REMARK    1  A    between atoms: C_2  and  C_3
REMARK    2  A    between atoms: C_2  and  C_18
REMARK    3  A    between atoms: C_4  and  C_5
REMARK    4  A    between atoms: N_8  and  C_9
REMARK    5  A    between atoms: C_9  and  C_10
REMARK                            x       y       z     vdW  Elec       q    Type
REMARK                         _______ _______ _______ _____ _____    ______ ____
ROOT
ATOM      1  C   UNL A   1      52.259 -35.069 -53.714  0.00  0.00    -0.011 C 
ATOM      2  C   UNL A   1      52.812 -36.231 -53.330  0.00  0.00    -0.051 C 
ENDROOT
BRANCH   2   3
ATOM      3  C   UNL A   1      53.759 -36.354 -52.213  0.00  0.00    -0.022 A 
ATOM      4  C   UNL A   1      53.685 -37.382 -51.274  0.00  0.00    -0.038 A 
ATOM      5  C   UNL A   1      54.598 -37.429 -50.225  0.00  0.00    +0.005 A 
ATOM      6  N   UNL A   1      55.557 -36.481 -50.099  0.00  0.00    -0.349 N 
ATOM      7  C   UNL A   1      55.634 -35.463 -50.986  0.00  0.00    +0.005 A 
ATOM      8  C   UNL A   1      54.741 -35.378 -52.049  0.00  0.00    -0.038 A 
BRANCH   6   9
ATOM      9  C   UNL A   1      56.514 -36.554 -48.966  0.00  0.00    +0.048 C 
BRANCH   9  10
ATOM     10  C   UNL A   1      56.170 -35.551 -47.897  0.00  0.00    -0.028 A 
ATOM     11  C   UNL A   1      55.278 -35.877 -46.862  0.00  0.00    -0.057 A 
ATOM     12  C   UNL A   1      54.961 -34.938 -45.880  0.00  0.00    -0.061 A 
ATOM     13  C   UNL A   1      55.533 -33.669 -45.916  0.00  0.00    -0.062 A 
ATOM     14  C   UNL A   1      56.426 -33.336 -46.930  0.00  0.00    -0.061 A 
ATOM     15  C   UNL A   1      56.747 -34.271 -47.915  0.00  0.00    -0.057 A 
ENDBRANCH   9  10
ENDBRANCH   6   9
ENDBRANCH   2   3
BRANCH   1  17
ATOM     16  O   UNL A   1      51.703 -34.505 -55.890  0.00  0.00    -0.284 OA
ATOM     17  C   UNL A   1      51.253 -34.885 -54.807  0.00  0.00    +0.221 C 
BRANCH  17  18
ATOM     18  C   UNL A   1      49.843 -35.150 -54.606  0.00  0.00    +0.176 A 
ATOM     19  C   UNL A   1      49.012 -36.054 -55.245  0.00  0.00    -0.005 A 
ATOM     20  C   UNL A   1      47.730 -35.937 -54.649  0.00  0.00    +0.022 A 
ATOM     21  C   UNL A   1      46.476 -36.547 -54.834  0.00  0.00    -0.037 A 
ATOM     22  C   UNL A   1      45.416 -36.146 -54.011  0.00  0.00    +0.019 A 
ATOM     23 BR   UNL A   1      43.717 -36.949 -54.239  0.00  0.00    -0.050 Br
ATOM     24  C   UNL A   1      45.584 -35.168 -53.025  0.00  0.00    -0.044 A 
ATOM     25  C   UNL A   1      46.826 -34.553 -52.829  0.00  0.00    -0.018 A 
ATOM     26  C   UNL A   1      47.862 -34.968 -53.663  0.00  0.00    +0.136 A 
ATOM     27  O   UNL A   1      49.137 -34.495 -53.631  0.00  0.00    -0.452 OA
ENDBRANCH  17  18
ENDBRANCH   1  17
TORSDOF 5
ENDMDL
MODEL 19
REMARK VINA RESULT:    -6.541     18.315     20.996
REMARK INTER + INTRA:          -8.781
REMARK INTER:                  -8.055
REMARK INTRA:                  -0.725
REMARK UNBOUND:                -0.328
REMARK  Name = cpd333.pdb
REMARK  5 active torsions:
REMARK  status: ('A' for Active; 'I' for Inactive)
REMARK    1  A    between atoms: C_2  and  C_3
REMARK    2  A    between atoms: C_2  and  C_18
REMARK    3  A    between atoms: C_4  and  C_5
REMARK    4  A    between atoms: N_8  and  C_9
REMARK    5  A    between atoms: C_9  and  C_10
REMARK                            x       y       z     vdW  Elec       q    Type
REMARK                         _______ _______ _______ _____ _____    ______ ____
ROOT
ATOM      1  C   UNL A   1      42.389 -18.776 -37.941  0.00  0.00    -0.011 C 
ATOM      2  C   UNL A   1      42.193 -19.959 -37.337  0.00  0.00    -0.051 C 
ENDROOT
BRANCH   2   3
ATOM      3  C   UNL A   1      41.293 -20.150 -36.191  0.00  0.00    -0.022 A 
ATOM      4  C   UNL A   1      39.996 -20.643 -36.327  0.00  0.00    -0.038 A 
ATOM      5  C   UNL A   1      39.185 -20.778 -35.205  0.00  0.00    +0.005 A 
ATOM      6  N   UNL A   1      39.638 -20.429 -33.978  0.00  0.00    -0.349 N 
ATOM      7  C   UNL A   1      40.884 -19.928 -33.824  0.00  0.00    +0.005 A 
ATOM      8  C   UNL A   1      41.728 -19.776 -34.920  0.00  0.00    -0.038 A 
BRANCH   6   9
ATOM      9  C   UNL A   1      38.748 -20.579 -32.798  0.00  0.00    +0.048 C 
BRANCH   9  10
ATOM     10  C   UNL A   1      37.685 -19.511 -32.778  0.00  0.00    -0.028 A 
ATOM     11  C   UNL A   1      38.031 -18.151 -32.735  0.00  0.00    -0.057 A 
ATOM     12  C   UNL A   1      37.038 -17.170 -32.710  0.00  0.00    -0.061 A 
ATOM     13  C   UNL A   1      35.695 -17.535 -32.734  0.00  0.00    -0.062 A 
ATOM     14  C   UNL A   1      35.338 -18.880 -32.787  0.00  0.00    -0.061 A 
ATOM     15  C   UNL A   1      36.326 -19.865 -32.812  0.00  0.00    -0.057 A 
ENDBRANCH   9  10
ENDBRANCH   6   9
ENDBRANCH   2   3
BRANCH   1  17
ATOM     16  O   UNL A   1      43.121 -17.419 -39.669  0.00  0.00    -0.284 OA
ATOM     17  C   UNL A   1      43.250 -18.525 -39.140  0.00  0.00    +0.221 C 
BRANCH  17  18
ATOM     18  C   UNL A   1      44.184 -19.515 -39.636  0.00  0.00    +0.176 A 
ATOM     19  C   UNL A   1      44.065 -20.388 -40.704  0.00  0.00    -0.005 A 
ATOM     20  C   UNL A   1      45.275 -21.122 -40.782  0.00  0.00    +0.022 A 
ATOM     21  C   UNL A   1      45.783 -22.138 -41.612  0.00  0.00    -0.037 A 
ATOM     22  C   UNL A   1      47.076 -22.616 -41.359  0.00  0.00    +0.019 A 
ATOM     23 BR   UNL A   1      47.783 -23.984 -42.458  0.00  0.00    -0.050 Br
ATOM     24  C   UNL A   1      47.854 -22.105 -40.317  0.00  0.00    -0.044 A 
ATOM     25  C   UNL A   1      47.363 -21.093 -39.484  0.00  0.00    -0.018 A 
ATOM     26  C   UNL A   1      46.074 -20.637 -39.755  0.00  0.00    +0.136 A 
ATOM     27  O   UNL A   1      45.420 -19.664 -39.064  0.00  0.00    -0.452 OA
ENDBRANCH  17  18
ENDBRANCH   1  17
TORSDOF 5
ENDMDL
MODEL 20
REMARK VINA RESULT:    -6.503     17.759     19.134
REMARK INTER + INTRA:          -8.732
REMARK INTER:                  -8.125
REMARK INTRA:                  -0.607
REMARK UNBOUND:                -0.328
REMARK  Name = cpd333.pdb
REMARK  5 active torsions:
REMARK  status: ('A' for Active; 'I' for Inactive)
REMARK    1  A    between atoms: C_2  and  C_3
REMARK    2  A    between atoms: C_2  and  C_18
REMARK    3  A    between atoms: C_4  and  C_5
REMARK    4  A    between atoms: N_8  and  C_9
REMARK    5  A    between atoms: C_9  and  C_10
REMARK                            x       y       z     vdW  Elec       q    Type
REMARK                         _______ _______ _______ _____ _____    ______ ____
ROOT
ATOM      1  C   UNL A   1      42.826 -18.855 -34.937  0.00  0.00    -0.011 C 
ATOM      2  C   UNL A   1      42.520 -19.678 -35.953  0.00  0.00    -0.051 C 
ENDROOT
BRANCH   2   3
ATOM      3  C   UNL A   1      43.205 -19.660 -37.254  0.00  0.00    -0.022 A 
ATOM      4  C   UNL A   1      44.442 -19.044 -37.444  0.00  0.00    -0.038 A 
ATOM      5  C   UNL A   1      45.026 -19.040 -38.706  0.00  0.00    +0.005 A 
ATOM      6  N   UNL A   1      44.404 -19.622 -39.758  0.00  0.00    -0.349 N 
ATOM      7  C   UNL A   1      43.195 -20.206 -39.603  0.00  0.00    +0.005 A 
ATOM      8  C   UNL A   1      42.574 -20.232 -38.358  0.00  0.00    -0.038 A 
BRANCH   6   9
ATOM      9  C   UNL A   1      45.051 -19.597 -41.096  0.00  0.00    +0.048 C 
BRANCH   9  10
ATOM     10  C   UNL A   1      45.857 -20.847 -41.334  0.00  0.00    -0.028 A 
ATOM     11  C   UNL A   1      45.524 -21.734 -42.370  0.00  0.00    -0.057 A 
ATOM     12  C   UNL A   1      46.274 -22.893 -42.577  0.00  0.00    -0.061 A 
ATOM     13  C   UNL A   1      47.365 -23.174 -41.759  0.00  0.00    -0.062 A 
ATOM     14  C   UNL A   1      47.713 -22.298 -40.735  0.00  0.00    -0.061 A 
ATOM     15  C   UNL A   1      46.966 -21.138 -40.523  0.00  0.00    -0.057 A 
ENDBRANCH   9  10
ENDBRANCH   6   9
ENDBRANCH   2   3
BRANCH   1  17
ATOM     16  O   UNL A   1      42.983 -18.732 -32.631  0.00  0.00    -0.284 OA
ATOM     17  C   UNL A   1      42.202 -18.857 -33.577  0.00  0.00    +0.221 C 
BRANCH  17  18
ATOM     18  C   UNL A   1      40.772 -18.986 -33.387  0.00  0.00    +0.176 A 
ATOM     19  C   UNL A   1      39.785 -18.016 -33.408  0.00  0.00    -0.005 A 
ATOM     20  C   UNL A   1      38.546 -18.674 -33.201  0.00  0.00    +0.022 A 
ATOM     21  C   UNL A   1      37.200 -18.277 -33.108  0.00  0.00    -0.037 A 
ATOM     22  C   UNL A   1      36.230 -19.266 -32.895  0.00  0.00    +0.019 A 
ATOM     23 BR   UNL A   1      34.412 -18.760 -32.764  0.00  0.00    -0.050 Br
ATOM     24  C   UNL A   1      36.575 -20.616 -32.779  0.00  0.00    -0.044 A 
ATOM     25  C   UNL A   1      37.910 -21.026 -32.870  0.00  0.00    -0.018 A 
ATOM     26  C   UNL A   1      38.854 -20.023 -33.079  0.00  0.00    +0.136 A 
ATOM     27  O   UNL A   1      40.196 -20.215 -33.196  0.00  0.00    -0.452 OA
ENDBRANCH  17  18
ENDBRANCH   1  17
TORSDOF 5
ENDMDL
