MODEL 1
REMARK VINA RESULT:    -6.897      0.000      0.000
REMARK INTER + INTRA:         -10.766
REMARK INTER:                 -15.768
REMARK INTRA:                   5.003
REMARK UNBOUND:                 5.003
REMARK  Name = cpd124.pdb
REMARK  39 active torsions:
REMARK  status: ('A' for Active; 'I' for Inactive)
REMARK    1  A    between atoms: C_1  and  C_2
REMARK    2  A    between atoms: C_2  and  N_3
REMARK    3  A    between atoms: N_3  and  C_4
REMARK    4  A    between atoms: N_3  and  C_6
REMARK    5  A    between atoms: N_3  and  C_8
REMARK    6  A    between atoms: C_4  and  C_5
REMARK    7  A    between atoms: C_6  and  C_7
REMARK    8  A    between atoms: C_8  and  C_9
REMARK    9  A    between atoms: C_9  and  O_10
REMARK   10  A    between atoms: O_10  and  C_11
REMARK   11  A    between atoms: C_13  and  O_14
REMARK   12  A    between atoms: O_14  and  C_15
REMARK   13  A    between atoms: C_15  and  C_16
REMARK   14  A    between atoms: C_16  and  N_17
REMARK   15  A    between atoms: N_17  and  C_18
REMARK   16  A    between atoms: N_17  and  C_20
REMARK   17  A    between atoms: N_17  and  C_22
REMARK   18  A    between atoms: C_18  and  C_19
REMARK   19  A    between atoms: C_20  and  C_21
REMARK   20  A    between atoms: C_22  and  C_23
REMARK   21  A    between atoms: C_24  and  C_25
REMARK   22  A    between atoms: N_27  and  C_28
REMARK   23  A    between atoms: C_28  and  C_29
REMARK   24  A    between atoms: C_29  and  C_30
REMARK   25  A    between atoms: C_30  and  C_31
REMARK   26  A    between atoms: C_31  and  C_32
REMARK   27  A    between atoms: C_32  and  C_33
REMARK   28  A    between atoms: N_35  and  N_36
REMARK   29  A    between atoms: N_36  and  C_37
REMARK   30  A    between atoms: C_52  and  O_53
REMARK   31  A    between atoms: O_53  and  C_54
REMARK   32  A    between atoms: C_54  and  C_55
REMARK   33  A    between atoms: C_55  and  N_56
REMARK   34  A    between atoms: N_56  and  C_57
REMARK   35  A    between atoms: N_56  and  C_59
REMARK   36  A    between atoms: N_56  and  C_61
REMARK   37  A    between atoms: C_57  and  C_58
REMARK   38  A    between atoms: C_59  and  C_60
REMARK   39  A    between atoms: C_61  and  C_62
REMARK                            x       y       z     vdW  Elec       q    Type
REMARK                         _______ _______ _______ _____ _____    ______ ____
ROOT
ATOM      1  C   UNL     1      44.968 -19.338 -34.988  0.00  0.00    +0.165 A 
ATOM      2  C   UNL     1      45.289 -19.694 -36.283  0.00  0.00    +0.026 A 
ATOM      3  C   UNL     1      45.886 -18.752 -37.110  0.00  0.00    +0.136 A 
ATOM      4  C   UNL     1      46.317 -17.524 -36.585  0.00  0.00    +0.082 A 
ATOM      5  C   UNL     1      46.152 -17.273 -35.204  0.00  0.00    -0.001 A 
ATOM      6  C   UNL     1      45.453 -18.168 -34.403  0.00  0.00    +0.163 A 
ENDROOT
BRANCH   4   7
ATOM      7  C   UNL     1      46.758 -16.361 -37.405  0.00  0.00    +0.248 C 
ATOM      8  O   UNL     1      46.335 -15.248 -37.103  0.00  0.00    -0.270 OA
ATOM      9  N   UNL     1      47.530 -16.605 -38.513  0.00  0.00    -0.311 N 
ATOM     10  H   UNL     1      47.937 -17.494 -38.630  0.00  0.00    +0.000 HD
BRANCH   9  11
ATOM     11  C   UNL     1      47.761 -15.580 -39.518  0.00  0.00    +0.012 C 
BRANCH  11  12
ATOM     12  C   UNL     1      47.032 -15.928 -40.817  0.00  0.00    -0.037 C 
BRANCH  12  13
ATOM     13  C   UNL     1      46.499 -14.689 -41.536  0.00  0.00    -0.051 C 
BRANCH  13  14
ATOM     14  C   UNL     1      45.036 -14.431 -41.155  0.00  0.00    -0.045 C 
BRANCH  14  15
ATOM     15  C   UNL     1      44.215 -15.718 -41.067  0.00  0.00    +0.025 C 
BRANCH  15  16
ATOM     16  C   UNL     1      43.752 -15.985 -39.649  0.00  0.00    +0.229 C 
ATOM     17  O   UNL     1      43.522 -15.074 -38.862  0.00  0.00    -0.274 OA
ATOM     18  N   UNL     1      43.568 -17.333 -39.384  0.00  0.00    -0.236 N 
ATOM     19  H   UNL     1      43.888 -18.017 -40.015  0.00  0.00    +0.000 HD
BRANCH  18  20
ATOM     20  N   UNL     1      42.914 -17.701 -38.195  0.00  0.00    -0.264 N 
ATOM     21  H   UNL     1      43.290 -17.571 -37.294  0.00  0.00    +0.000 HD
BRANCH  20  22
ATOM     22  C   UNL     1      41.642 -18.285 -38.455  0.00  0.00    +0.058 A 
ATOM     23  C   UNL     1      40.456 -17.541 -38.307  0.00  0.00    -0.003 A 
ATOM     24  C   UNL     1      39.245 -18.199 -38.550  0.00  0.00    +0.047 A 
ATOM     25  N   UNL     1      39.157 -19.518 -38.873  0.00  0.00    -0.251 NA
ATOM     26  C   UNL     1      40.298 -20.203 -39.061  0.00  0.00    +0.073 A 
ATOM     27  C   UNL     1      40.210 -21.509 -39.530  0.00  0.00    -0.036 A 
ATOM     28  C   UNL     1      41.339 -22.311 -39.724  0.00  0.00    -0.060 A 
ATOM     29  C   UNL     1      42.594 -21.791 -39.459  0.00  0.00    -0.061 A 
ATOM     30  C   UNL     1      42.711 -20.472 -39.028  0.00  0.00    -0.051 A 
ATOM     31  C   UNL     1      41.572 -19.654 -38.828  0.00  0.00    +0.023 A 
ATOM     32  C   UNL     1      37.924 -17.475 -38.435  0.00  0.00    -0.010 C 
ATOM     33  C   UNL     1      38.052 -15.960 -38.555  0.00  0.00    -0.047 C 
ATOM     34  C   UNL     1      39.139 -15.463 -37.615  0.00  0.00    -0.049 C 
ATOM     35  C   UNL     1      40.492 -16.061 -37.998  0.00  0.00    -0.024 C 
ENDBRANCH  20  22
ENDBRANCH  18  20
ENDBRANCH  15  16
ENDBRANCH  14  15
ENDBRANCH  13  14
ENDBRANCH  12  13
ENDBRANCH  11  12
ENDBRANCH   9  11
ENDBRANCH   4   7
BRANCH   1  36
ATOM     36  O   UNL     1      43.937 -20.031 -34.409  0.00  0.00    -0.490 OA
BRANCH  36  37
ATOM     37  C   UNL     1      42.756 -19.917 -35.184  0.00  0.00    +0.076 C 
BRANCH  37  38
ATOM     38  C   UNL     1      41.572 -21.002 -34.468  0.00  0.00    -0.053 C 
BRANCH  38  39
ATOM     39  N   UNL     1      40.602 -20.894 -34.687  0.00  0.00    +0.382 N 
BRANCH  39  41
ATOM     40  C   UNL     1      40.230 -21.604 -32.385  0.00  0.00    -0.080 C 
ATOM     41  C   UNL     1      40.421 -20.611 -33.745  0.00  0.00    -0.091 C 
ENDBRANCH  39  41
BRANCH  39  42
ATOM     42  C   UNL     1      39.632 -20.787 -34.905  0.00  0.00    -0.091 C 
ATOM     43  C   UNL     1      38.887 -19.271 -34.994  0.00  0.00    -0.080 C 
ENDBRANCH  39  42
BRANCH  39  44
ATOM     44  C   UNL     1      40.783 -21.178 -35.628  0.00  0.00    -0.091 C 
ATOM     45  C   UNL     1      40.365 -22.814 -36.009  0.00  0.00    -0.080 C 
ENDBRANCH  39  44
ENDBRANCH  38  39
ENDBRANCH  37  38
ENDBRANCH  36  37
ENDBRANCH   1  36
BRANCH   6  46
ATOM     46  O   UNL     1      45.141 -18.016 -33.090  0.00  0.00    -0.490 OA
BRANCH  46  47
ATOM     47  C   UNL     1      45.557 -16.866 -32.360  0.00  0.00    +0.076 C 
BRANCH  47  48
ATOM     48  C   UNL     1      44.351 -16.129 -31.705  0.00  0.00    -0.053 C 
BRANCH  48  49
ATOM     49  N   UNL     1      43.183 -15.348 -32.939  0.00  0.00    +0.382 N 
BRANCH  49  50
ATOM     50  C   UNL     1      43.881 -14.652 -33.109  0.00  0.00    -0.091 C 
ATOM     51  C   UNL     1      44.511 -13.903 -34.354  0.00  0.00    -0.080 C 
ENDBRANCH  49  50
BRANCH  49  52
ATOM     52  C   UNL     1      42.052 -14.059 -32.214  0.00  0.00    -0.091 C 
ATOM     53  C   UNL     1      41.090 -13.526 -33.288  0.00  0.00    -0.080 C 
ENDBRANCH  49  52
BRANCH  49  54
ATOM     54  C   UNL     1      42.484 -16.043 -32.768  0.00  0.00    -0.091 C 
ATOM     55  C   UNL     1      41.656 -17.064 -33.651  0.00  0.00    -0.080 C 
ENDBRANCH  49  54
ENDBRANCH  48  49
ENDBRANCH  47  48
ENDBRANCH  46  47
ENDBRANCH   6  46
BRANCH   3  56
ATOM     56  O   UNL     1      45.898 -19.047 -38.450  0.00  0.00    -0.493 OA
BRANCH  56  57
ATOM     57  C   UNL     1      46.928 -20.016 -38.726  0.00  0.00    +0.075 C 
BRANCH  57  58
ATOM     58  C   UNL     1      46.332 -21.343 -39.302  0.00  0.00    -0.053 C 
BRANCH  58  59
ATOM     59  N   UNL     1      46.711 -21.519 -41.135  0.00  0.00    +0.382 N 
BRANCH  59  60
ATOM     60  C   UNL     1      47.653 -21.245 -40.941  0.00  0.00    -0.091 C 
ATOM     61  C   UNL     1      48.273 -20.347 -42.076  0.00  0.00    -0.080 C 
ENDBRANCH  59  60
BRANCH  59  62
ATOM     62  C   UNL     1      47.218 -23.325 -41.186  0.00  0.00    -0.091 C 
ATOM     63  C   UNL     1      47.333 -23.892 -42.603  0.00  0.00    -0.080 C 
ENDBRANCH  59  62
BRANCH  59  64
ATOM     64  C   UNL     1      45.769 -21.793 -41.330  0.00  0.00    -0.091 C 
ATOM     65  C   UNL     1      44.953 -20.889 -42.313  0.00  0.00    -0.080 C 
ENDBRANCH  59  64
ENDBRANCH  58  59
ENDBRANCH  57  58
ENDBRANCH  56  57
ENDBRANCH   3  56
TORSDOF 30
ENDMDL
MODEL 2
REMARK VINA RESULT:    -6.823      1.137      1.711
REMARK INTER + INTRA:         -10.596
REMARK INTER:                 -16.227
REMARK INTRA:                   5.631
REMARK UNBOUND:                 5.003
REMARK  Name = cpd124.pdb
REMARK  39 active torsions:
REMARK  status: ('A' for Active; 'I' for Inactive)
REMARK    1  A    between atoms: C_1  and  C_2
REMARK    2  A    between atoms: C_2  and  N_3
REMARK    3  A    between atoms: N_3  and  C_4
REMARK    4  A    between atoms: N_3  and  C_6
REMARK    5  A    between atoms: N_3  and  C_8
REMARK    6  A    between atoms: C_4  and  C_5
REMARK    7  A    between atoms: C_6  and  C_7
REMARK    8  A    between atoms: C_8  and  C_9
REMARK    9  A    between atoms: C_9  and  O_10
REMARK   10  A    between atoms: O_10  and  C_11
REMARK   11  A    between atoms: C_13  and  O_14
REMARK   12  A    between atoms: O_14  and  C_15
REMARK   13  A    between atoms: C_15  and  C_16
REMARK   14  A    between atoms: C_16  and  N_17
REMARK   15  A    between atoms: N_17  and  C_18
REMARK   16  A    between atoms: N_17  and  C_20
REMARK   17  A    between atoms: N_17  and  C_22
REMARK   18  A    between atoms: C_18  and  C_19
REMARK   19  A    between atoms: C_20  and  C_21
REMARK   20  A    between atoms: C_22  and  C_23
REMARK   21  A    between atoms: C_24  and  C_25
REMARK   22  A    between atoms: N_27  and  C_28
REMARK   23  A    between atoms: C_28  and  C_29
REMARK   24  A    between atoms: C_29  and  C_30
REMARK   25  A    between atoms: C_30  and  C_31
REMARK   26  A    between atoms: C_31  and  C_32
REMARK   27  A    between atoms: C_32  and  C_33
REMARK   28  A    between atoms: N_35  and  N_36
REMARK   29  A    between atoms: N_36  and  C_37
REMARK   30  A    between atoms: C_52  and  O_53
REMARK   31  A    between atoms: O_53  and  C_54
REMARK   32  A    between atoms: C_54  and  C_55
REMARK   33  A    between atoms: C_55  and  N_56
REMARK   34  A    between atoms: N_56  and  C_57
REMARK   35  A    between atoms: N_56  and  C_59
REMARK   36  A    between atoms: N_56  and  C_61
REMARK   37  A    between atoms: C_57  and  C_58
REMARK   38  A    between atoms: C_59  and  C_60
REMARK   39  A    between atoms: C_61  and  C_62
REMARK                            x       y       z     vdW  Elec       q    Type
REMARK                         _______ _______ _______ _____ _____    ______ ____
ROOT
ATOM      1  C   UNL     1      45.010 -19.324 -34.663  0.00  0.00    +0.165 A 
ATOM      2  C   UNL     1      45.180 -19.673 -35.988  0.00  0.00    +0.026 A 
ATOM      3  C   UNL     1      45.637 -18.716 -36.882  0.00  0.00    +0.136 A 
ATOM      4  C   UNL     1      46.088 -17.472 -36.416  0.00  0.00    +0.082 A 
ATOM      5  C   UNL     1      46.087 -17.220 -35.024  0.00  0.00    -0.001 A 
ATOM      6  C   UNL     1      45.524 -18.135 -34.143  0.00  0.00    +0.163 A 
ENDROOT
BRANCH   4   7
ATOM      7  C   UNL     1      46.384 -16.297 -37.284  0.00  0.00    +0.248 C 
ATOM      8  O   UNL     1      47.108 -15.414 -36.833  0.00  0.00    -0.270 OA
ATOM      9  N   UNL     1      45.752 -16.216 -38.499  0.00  0.00    -0.311 N 
ATOM     10  H   UNL     1      45.287 -17.008 -38.854  0.00  0.00    +0.000 HD
BRANCH   9  11
ATOM     11  C   UNL     1      45.754 -14.985 -39.274  0.00  0.00    +0.012 C 
BRANCH  11  12
ATOM     12  C   UNL     1      45.679 -15.293 -40.771  0.00  0.00    -0.037 C 
BRANCH  12  13
ATOM     13  C   UNL     1      44.469 -14.643 -41.439  0.00  0.00    -0.051 C 
BRANCH  13  14
ATOM     14  C   UNL     1      43.343 -15.667 -41.632  0.00  0.00    -0.045 C 
BRANCH  14  15
ATOM     15  C   UNL     1      42.123 -15.371 -40.758  0.00  0.00    +0.025 C 
BRANCH  15  16
ATOM     16  C   UNL     1      42.320 -15.871 -39.341  0.00  0.00    +0.229 C 
ATOM     17  O   UNL     1      42.307 -15.110 -38.380  0.00  0.00    -0.274 OA
ATOM     18  N   UNL     1      42.449 -17.249 -39.267  0.00  0.00    -0.236 N 
ATOM     19  H   UNL     1      42.576 -17.786 -40.082  0.00  0.00    +0.000 HD
BRANCH  18  20
ATOM     20  N   UNL     1      42.395 -17.861 -38.002  0.00  0.00    -0.264 N 
ATOM     21  H   UNL     1      43.084 -17.755 -37.306  0.00  0.00    +0.000 HD
BRANCH  20  22
ATOM     22  C   UNL     1      41.221 -18.652 -37.852  0.00  0.00    +0.058 A 
ATOM     23  C   UNL     1      40.122 -18.188 -37.103  0.00  0.00    -0.003 A 
ATOM     24  C   UNL     1      39.019 -19.041 -36.977  0.00  0.00    +0.047 A 
ATOM     25  N   UNL     1      38.977 -20.298 -37.497  0.00  0.00    -0.251 NA
ATOM     26  C   UNL     1      40.011 -20.708 -38.253  0.00  0.00    +0.073 A 
ATOM     27  C   UNL     1      39.904 -21.934 -38.901  0.00  0.00    -0.036 A 
ATOM     28  C   UNL     1      40.940 -22.458 -39.679  0.00  0.00    -0.060 A 
ATOM     29  C   UNL     1      42.109 -21.734 -39.832  0.00  0.00    -0.061 A 
ATOM     30  C   UNL     1      42.223 -20.485 -39.226  0.00  0.00    -0.051 A 
ATOM     31  C   UNL     1      41.180 -19.947 -38.434  0.00  0.00    +0.023 A 
ATOM     32  C   UNL     1      37.789 -18.620 -36.209  0.00  0.00    -0.010 C 
ATOM     33  C   UNL     1      37.654 -17.109 -36.063  0.00  0.00    -0.047 C 
ATOM     34  C   UNL     1      38.961 -16.527 -35.547  0.00  0.00    -0.049 C 
ATOM     35  C   UNL     1      40.091 -16.784 -36.543  0.00  0.00    -0.024 C 
ENDBRANCH  20  22
ENDBRANCH  18  20
ENDBRANCH  15  16
ENDBRANCH  14  15
ENDBRANCH  13  14
ENDBRANCH  12  13
ENDBRANCH  11  12
ENDBRANCH   9  11
ENDBRANCH   4   7
BRANCH   1  36
ATOM     36  O   UNL     1      44.084 -20.049 -33.960  0.00  0.00    -0.490 OA
BRANCH  36  37
ATOM     37  C   UNL     1      42.822 -20.014 -34.607  0.00  0.00    +0.076 C 
BRANCH  37  38
ATOM     38  C   UNL     1      41.639 -20.588 -33.441  0.00  0.00    -0.053 C 
BRANCH  38  39
ATOM     39  N   UNL     1      40.802 -21.034 -33.759  0.00  0.00    +0.382 N 
BRANCH  39  41
ATOM     40  C   UNL     1      41.120 -22.618 -31.934  0.00  0.00    -0.080 C 
ATOM     41  C   UNL     1      41.168 -21.921 -33.479  0.00  0.00    -0.091 C 
ENDBRANCH  39  41
BRANCH  39  42
ATOM     42  C   UNL     1      39.965 -21.480 -34.078  0.00  0.00    -0.091 C 
ATOM     43  C   UNL     1      39.982 -22.724 -35.223  0.00  0.00    -0.080 C 
ENDBRANCH  39  42
BRANCH  39  44
ATOM     44  C   UNL     1      40.436 -20.147 -34.040  0.00  0.00    -0.091 C 
ATOM     45  C   UNL     1      39.480 -19.324 -32.854  0.00  0.00    -0.080 C 
ENDBRANCH  39  44
ENDBRANCH  38  39
ENDBRANCH  37  38
ENDBRANCH  36  37
ENDBRANCH   1  36
BRANCH   6  46
ATOM     46  O   UNL     1      45.372 -17.989 -32.801  0.00  0.00    -0.490 OA
BRANCH  46  47
ATOM     47  C   UNL     1      44.450 -17.047 -32.261  0.00  0.00    +0.076 C 
BRANCH  47  48
ATOM     48  C   UNL     1      43.311 -16.709 -33.270  0.00  0.00    -0.053 C 
BRANCH  48  49
ATOM     49  N   UNL     1      42.375 -15.145 -32.856  0.00  0.00    +0.382 N 
BRANCH  49  50
ATOM     50  C   UNL     1      41.535 -15.687 -32.858  0.00  0.00    -0.091 C 
ATOM     51  C   UNL     1      40.190 -15.769 -32.026  0.00  0.00    -0.080 C 
ENDBRANCH  49  50
BRANCH  49  52
ATOM     52  C   UNL     1      41.782 -14.191 -34.340  0.00  0.00    -0.091 C 
ATOM     53  C   UNL     1      41.178 -12.845 -33.905  0.00  0.00    -0.080 C 
ENDBRANCH  49  52
BRANCH  49  54
ATOM     54  C   UNL     1      43.215 -14.602 -32.855  0.00  0.00    -0.091 C 
ATOM     55  C   UNL     1      43.965 -13.668 -31.818  0.00  0.00    -0.080 C 
ENDBRANCH  49  54
ENDBRANCH  48  49
ENDBRANCH  47  48
ENDBRANCH  46  47
ENDBRANCH   6  46
BRANCH   3  56
ATOM     56  O   UNL     1      45.493 -19.016 -38.214  0.00  0.00    -0.493 OA
BRANCH  56  57
ATOM     57  C   UNL     1      46.656 -19.727 -38.681  0.00  0.00    +0.075 C 
BRANCH  57  58
ATOM     58  C   UNL     1      46.292 -21.170 -39.168  0.00  0.00    -0.053 C 
BRANCH  58  59
ATOM     59  N   UNL     1      46.529 -21.340 -41.025  0.00  0.00    +0.382 N 
BRANCH  59  60
ATOM     60  C   UNL     1      47.500 -21.140 -40.894  0.00  0.00    -0.091 C 
ATOM     61  C   UNL     1      48.086 -20.199 -42.013  0.00  0.00    -0.080 C 
ENDBRANCH  59  60
BRANCH  59  62
ATOM     62  C   UNL     1      46.895 -23.177 -41.135  0.00  0.00    -0.091 C 
ATOM     63  C   UNL     1      47.105 -23.678 -42.565  0.00  0.00    -0.080 C 
ENDBRANCH  59  62
BRANCH  59  64
ATOM     64  C   UNL     1      45.558 -21.540 -41.156  0.00  0.00    -0.091 C 
ATOM     65  C   UNL     1      44.764 -20.607 -42.131  0.00  0.00    -0.080 C 
ENDBRANCH  59  64
ENDBRANCH  58  59
ENDBRANCH  57  58
ENDBRANCH  56  57
ENDBRANCH   3  56
TORSDOF 30
ENDMDL
MODEL 3
REMARK VINA RESULT:    -6.755      0.202      2.332
REMARK INTER + INTRA:         -10.440
REMARK INTER:                 -15.341
REMARK INTRA:                   4.901
REMARK UNBOUND:                 5.003
REMARK  Name = cpd124.pdb
REMARK  39 active torsions:
REMARK  status: ('A' for Active; 'I' for Inactive)
REMARK    1  A    between atoms: C_1  and  C_2
REMARK    2  A    between atoms: C_2  and  N_3
REMARK    3  A    between atoms: N_3  and  C_4
REMARK    4  A    between atoms: N_3  and  C_6
REMARK    5  A    between atoms: N_3  and  C_8
REMARK    6  A    between atoms: C_4  and  C_5
REMARK    7  A    between atoms: C_6  and  C_7
REMARK    8  A    between atoms: C_8  and  C_9
REMARK    9  A    between atoms: C_9  and  O_10
REMARK   10  A    between atoms: O_10  and  C_11
REMARK   11  A    between atoms: C_13  and  O_14
REMARK   12  A    between atoms: O_14  and  C_15
REMARK   13  A    between atoms: C_15  and  C_16
REMARK   14  A    between atoms: C_16  and  N_17
REMARK   15  A    between atoms: N_17  and  C_18
REMARK   16  A    between atoms: N_17  and  C_20
REMARK   17  A    between atoms: N_17  and  C_22
REMARK   18  A    between atoms: C_18  and  C_19
REMARK   19  A    between atoms: C_20  and  C_21
REMARK   20  A    between atoms: C_22  and  C_23
REMARK   21  A    between atoms: C_24  and  C_25
REMARK   22  A    between atoms: N_27  and  C_28
REMARK   23  A    between atoms: C_28  and  C_29
REMARK   24  A    between atoms: C_29  and  C_30
REMARK   25  A    between atoms: C_30  and  C_31
REMARK   26  A    between atoms: C_31  and  C_32
REMARK   27  A    between atoms: C_32  and  C_33
REMARK   28  A    between atoms: N_35  and  N_36
REMARK   29  A    between atoms: N_36  and  C_37
REMARK   30  A    between atoms: C_52  and  O_53
REMARK   31  A    between atoms: O_53  and  C_54
REMARK   32  A    between atoms: C_54  and  C_55
REMARK   33  A    between atoms: C_55  and  N_56
REMARK   34  A    between atoms: N_56  and  C_57
REMARK   35  A    between atoms: N_56  and  C_59
REMARK   36  A    between atoms: N_56  and  C_61
REMARK   37  A    between atoms: C_57  and  C_58
REMARK   38  A    between atoms: C_59  and  C_60
REMARK   39  A    between atoms: C_61  and  C_62
REMARK                            x       y       z     vdW  Elec       q    Type
REMARK                         _______ _______ _______ _____ _____    ______ ____
ROOT
ATOM      1  C   UNL     1      44.940 -19.231 -35.044  0.00  0.00    +0.165 A 
ATOM      2  C   UNL     1      45.273 -19.596 -36.333  0.00  0.00    +0.026 A 
ATOM      3  C   UNL     1      45.868 -18.658 -37.165  0.00  0.00    +0.136 A 
ATOM      4  C   UNL     1      46.284 -17.421 -36.650  0.00  0.00    +0.082 A 
ATOM      5  C   UNL     1      46.107 -17.158 -35.272  0.00  0.00    -0.001 A 
ATOM      6  C   UNL     1      45.411 -18.051 -34.467  0.00  0.00    +0.163 A 
ENDROOT
BRANCH   4   7
ATOM      7  C   UNL     1      46.721 -16.262 -37.478  0.00  0.00    +0.248 C 
ATOM      8  O   UNL     1      46.336 -15.143 -37.153  0.00  0.00    -0.270 OA
ATOM      9  N   UNL     1      47.446 -16.516 -38.615  0.00  0.00    -0.311 N 
ATOM     10  H   UNL     1      47.828 -17.413 -38.752  0.00  0.00    +0.000 HD
BRANCH   9  11
ATOM     11  C   UNL     1      47.663 -15.489 -39.622  0.00  0.00    +0.012 C 
BRANCH  11  12
ATOM     12  C   UNL     1      46.861 -15.798 -40.887  0.00  0.00    -0.037 C 
BRANCH  12  13
ATOM     13  C   UNL     1      46.338 -14.536 -41.569  0.00  0.00    -0.051 C 
BRANCH  13  14
ATOM     14  C   UNL     1      44.899 -14.239 -41.128  0.00  0.00    -0.045 C 
BRANCH  14  15
ATOM     15  C   UNL     1      44.032 -15.498 -41.064  0.00  0.00    +0.025 C 
BRANCH  15  16
ATOM     16  C   UNL     1      43.639 -15.827 -39.637  0.00  0.00    +0.229 C 
ATOM     17  O   UNL     1      43.428 -14.951 -38.806  0.00  0.00    -0.274 OA
ATOM     18  N   UNL     1      43.491 -17.187 -39.417  0.00  0.00    -0.236 N 
ATOM     19  H   UNL     1      43.795 -17.841 -40.088  0.00  0.00    +0.000 HD
BRANCH  18  20
ATOM     20  N   UNL     1      42.898 -17.613 -38.215  0.00  0.00    -0.264 N 
ATOM     21  H   UNL     1      43.299 -17.484 -37.325  0.00  0.00    +0.000 HD
BRANCH  20  22
ATOM     22  C   UNL     1      41.647 -18.253 -38.446  0.00  0.00    +0.058 A 
ATOM     23  C   UNL     1      41.584 -19.598 -38.858  0.00  0.00    -0.003 A 
ATOM     24  C   UNL     1      40.316 -20.143 -39.096  0.00  0.00    +0.047 A 
ATOM     25  N   UNL     1      39.161 -19.431 -38.994  0.00  0.00    -0.251 NA
ATOM     26  C   UNL     1      39.232 -18.164 -38.551  0.00  0.00    +0.073 A 
ATOM     27  C   UNL     1      38.043 -17.485 -38.311  0.00  0.00    -0.036 A 
ATOM     28  C   UNL     1      38.016 -16.155 -37.883  0.00  0.00    -0.060 A 
ATOM     29  C   UNL     1      39.209 -15.486 -37.670  0.00  0.00    -0.061 A 
ATOM     30  C   UNL     1      40.414 -16.158 -37.863  0.00  0.00    -0.051 A 
ATOM     31  C   UNL     1      40.449 -17.505 -38.299  0.00  0.00    +0.023 A 
ATOM     32  C   UNL     1      40.151 -21.583 -39.521  0.00  0.00    -0.010 C 
ATOM     33  C   UNL     1      41.347 -22.460 -39.166  0.00  0.00    -0.047 C 
ATOM     34  C   UNL     1      42.628 -21.794 -39.644  0.00  0.00    -0.049 C 
ATOM     35  C   UNL     1      42.829 -20.453 -38.940  0.00  0.00    -0.024 C 
ENDBRANCH  20  22
ENDBRANCH  18  20
ENDBRANCH  15  16
ENDBRANCH  14  15
ENDBRANCH  13  14
ENDBRANCH  12  13
ENDBRANCH  11  12
ENDBRANCH   9  11
ENDBRANCH   4   7
BRANCH   1  36
ATOM     36  O   UNL     1      43.911 -19.927 -34.465  0.00  0.00    -0.490 OA
BRANCH  36  37
ATOM     37  C   UNL     1      42.748 -19.871 -35.274  0.00  0.00    +0.076 C 
BRANCH  37  38
ATOM     38  C   UNL     1      41.537 -20.878 -34.493  0.00  0.00    -0.053 C 
BRANCH  38  39
ATOM     39  N   UNL     1      40.568 -20.737 -34.693  0.00  0.00    +0.382 N 
BRANCH  39  41
ATOM     40  C   UNL     1      40.195 -21.158 -32.322  0.00  0.00    -0.080 C 
ATOM     41  C   UNL     1      40.438 -20.339 -33.785  0.00  0.00    -0.091 C 
ENDBRANCH  39  41
BRANCH  39  42
ATOM     42  C   UNL     1      39.598 -20.596 -34.893  0.00  0.00    -0.091 C 
ATOM     43  C   UNL     1      38.931 -19.055 -35.098  0.00  0.00    -0.080 C 
ENDBRANCH  39  42
BRANCH  39  44
ATOM     44  C   UNL     1      40.697 -21.135 -35.601  0.00  0.00    -0.091 C 
ATOM     45  C   UNL     1      40.143 -22.765 -35.788  0.00  0.00    -0.080 C 
ENDBRANCH  39  44
ENDBRANCH  38  39
ENDBRANCH  37  38
ENDBRANCH  36  37
ENDBRANCH   1  36
BRANCH   6  46
ATOM     46  O   UNL     1      45.087 -17.889 -33.158  0.00  0.00    -0.490 OA
BRANCH  46  47
ATOM     47  C   UNL     1      45.512 -16.741 -32.429  0.00  0.00    +0.076 C 
BRANCH  47  48
ATOM     48  C   UNL     1      44.311 -15.994 -31.774  0.00  0.00    -0.053 C 
BRANCH  48  49
ATOM     49  N   UNL     1      43.170 -15.173 -33.006  0.00  0.00    +0.382 N 
BRANCH  49  50
ATOM     50  C   UNL     1      43.876 -14.479 -33.148  0.00  0.00    -0.091 C 
ATOM     51  C   UNL     1      44.537 -13.709 -34.363  0.00  0.00    -0.080 C 
ENDBRANCH  49  50
BRANCH  49  52
ATOM     52  C   UNL     1      42.037 -13.894 -32.267  0.00  0.00    -0.091 C 
ATOM     53  C   UNL     1      41.091 -13.332 -33.342  0.00  0.00    -0.080 C 
ENDBRANCH  49  52
BRANCH  49  54
ATOM     54  C   UNL     1      42.463 -15.867 -32.865  0.00  0.00    -0.091 C 
ATOM     55  C   UNL     1      41.672 -16.889 -33.781  0.00  0.00    -0.080 C 
ENDBRANCH  49  54
ENDBRANCH  48  49
ENDBRANCH  47  48
ENDBRANCH  46  47
ENDBRANCH   6  46
BRANCH   3  56
ATOM     56  O   UNL     1      45.892 -18.966 -38.502  0.00  0.00    -0.493 OA
BRANCH  56  57
ATOM     57  C   UNL     1      46.949 -19.910 -38.764  0.00  0.00    +0.075 C 
BRANCH  57  58
ATOM     58  C   UNL     1      46.390 -21.257 -39.332  0.00  0.00    -0.053 C 
BRANCH  58  59
ATOM     59  N   UNL     1      46.757 -21.426 -41.168  0.00  0.00    +0.382 N 
BRANCH  59  60
ATOM     60  C   UNL     1      47.704 -21.168 -40.976  0.00  0.00    -0.091 C 
ATOM     61  C   UNL     1      48.337 -20.281 -42.114  0.00  0.00    -0.080 C 
ENDBRANCH  59  60
BRANCH  59  62
ATOM     62  C   UNL     1      47.236 -23.239 -41.235  0.00  0.00    -0.091 C 
ATOM     63  C   UNL     1      47.343 -23.795 -42.656  0.00  0.00    -0.080 C 
ENDBRANCH  59  62
BRANCH  59  64
ATOM     64  C   UNL     1      45.810 -21.683 -41.360  0.00  0.00    -0.091 C 
ATOM     65  C   UNL     1      45.007 -20.764 -42.340  0.00  0.00    -0.080 C 
ENDBRANCH  59  64
ENDBRANCH  58  59
ENDBRANCH  57  58
ENDBRANCH  56  57
ENDBRANCH   3  56
TORSDOF 30
ENDMDL
MODEL 4
REMARK VINA RESULT:    -6.655      1.878      8.102
REMARK INTER + INTRA:         -10.212
REMARK INTER:                 -14.700
REMARK INTRA:                   4.488
REMARK UNBOUND:                 5.003
REMARK  Name = cpd124.pdb
REMARK  39 active torsions:
REMARK  status: ('A' for Active; 'I' for Inactive)
REMARK    1  A    between atoms: C_1  and  C_2
REMARK    2  A    between atoms: C_2  and  N_3
REMARK    3  A    between atoms: N_3  and  C_4
REMARK    4  A    between atoms: N_3  and  C_6
REMARK    5  A    between atoms: N_3  and  C_8
REMARK    6  A    between atoms: C_4  and  C_5
REMARK    7  A    between atoms: C_6  and  C_7
REMARK    8  A    between atoms: C_8  and  C_9
REMARK    9  A    between atoms: C_9  and  O_10
REMARK   10  A    between atoms: O_10  and  C_11
REMARK   11  A    between atoms: C_13  and  O_14
REMARK   12  A    between atoms: O_14  and  C_15
REMARK   13  A    between atoms: C_15  and  C_16
REMARK   14  A    between atoms: C_16  and  N_17
REMARK   15  A    between atoms: N_17  and  C_18
REMARK   16  A    between atoms: N_17  and  C_20
REMARK   17  A    between atoms: N_17  and  C_22
REMARK   18  A    between atoms: C_18  and  C_19
REMARK   19  A    between atoms: C_20  and  C_21
REMARK   20  A    between atoms: C_22  and  C_23
REMARK   21  A    between atoms: C_24  and  C_25
REMARK   22  A    between atoms: N_27  and  C_28
REMARK   23  A    between atoms: C_28  and  C_29
REMARK   24  A    between atoms: C_29  and  C_30
REMARK   25  A    between atoms: C_30  and  C_31
REMARK   26  A    between atoms: C_31  and  C_32
REMARK   27  A    between atoms: C_32  and  C_33
REMARK   28  A    between atoms: N_35  and  N_36
REMARK   29  A    between atoms: N_36  and  C_37
REMARK   30  A    between atoms: C_52  and  O_53
REMARK   31  A    between atoms: O_53  and  C_54
REMARK   32  A    between atoms: C_54  and  C_55
REMARK   33  A    between atoms: C_55  and  N_56
REMARK   34  A    between atoms: N_56  and  C_57
REMARK   35  A    between atoms: N_56  and  C_59
REMARK   36  A    between atoms: N_56  and  C_61
REMARK   37  A    between atoms: C_57  and  C_58
REMARK   38  A    between atoms: C_59  and  C_60
REMARK   39  A    between atoms: C_61  and  C_62
REMARK                            x       y       z     vdW  Elec       q    Type
REMARK                         _______ _______ _______ _____ _____    ______ ____
ROOT
ATOM      1  C   UNL     1      47.207 -18.193 -36.107  0.00  0.00    +0.165 A 
ATOM      2  C   UNL     1      46.776 -18.069 -34.801  0.00  0.00    +0.026 A 
ATOM      3  C   UNL     1      45.616 -18.724 -34.411  0.00  0.00    +0.136 A 
ATOM      4  C   UNL     1      44.995 -19.636 -35.277  0.00  0.00    +0.082 A 
ATOM      5  C   UNL     1      45.580 -19.889 -36.539  0.00  0.00    -0.001 A 
ATOM      6  C   UNL     1      46.674 -19.150 -36.971  0.00  0.00    +0.163 A 
ENDROOT
BRANCH   4   7
ATOM      7  C   UNL     1      43.641 -20.220 -35.063  0.00  0.00    +0.248 C 
ATOM      8  O   UNL     1      42.827 -20.143 -35.980  0.00  0.00    -0.270 OA
ATOM      9  N   UNL     1      43.342 -20.723 -33.822  0.00  0.00    -0.311 N 
ATOM     10  H   UNL     1      44.069 -20.870 -33.174  0.00  0.00    +0.000 HD
BRANCH   9  11
ATOM     11  C   UNL     1      41.975 -21.043 -33.442  0.00  0.00    +0.012 C 
BRANCH  11  12
ATOM     12  C   UNL     1      41.331 -19.865 -32.709  0.00  0.00    -0.037 C 
BRANCH  12  13
ATOM     13  C   UNL     1      39.929 -19.552 -33.227  0.00  0.00    -0.051 C 
BRANCH  13  14
ATOM     14  C   UNL     1      39.325 -20.776 -33.927  0.00  0.00    -0.045 C 
BRANCH  14  15
ATOM     15  C   UNL     1      38.517 -20.403 -35.171  0.00  0.00    +0.025 C 
BRANCH  15  16
ATOM     16  C   UNL     1      39.321 -20.614 -36.438  0.00  0.00    +0.229 C 
ATOM     17  O   UNL     1      39.345 -21.695 -37.016  0.00  0.00    -0.274 OA
ATOM     18  N   UNL     1      39.949 -19.460 -36.879  0.00  0.00    -0.236 N 
ATOM     19  H   UNL     1      39.991 -18.660 -36.306  0.00  0.00    +0.000 HD
BRANCH  18  20
ATOM     20  N   UNL     1      40.523 -19.456 -38.163  0.00  0.00    -0.264 N 
ATOM     21  H   UNL     1      40.911 -20.250 -38.598  0.00  0.00    +0.000 HD
BRANCH  20  22
ATOM     22  C   UNL     1      40.475 -18.162 -38.755  0.00  0.00    +0.058 A 
ATOM     23  C   UNL     1      39.329 -17.720 -39.443  0.00  0.00    -0.003 A 
ATOM     24  C   UNL     1      39.375 -16.447 -40.025  0.00  0.00    +0.047 A 
ATOM     25  N   UNL     1      40.476 -15.647 -39.997  0.00  0.00    -0.251 NA
ATOM     26  C   UNL     1      41.544 -16.060 -39.294  0.00  0.00    +0.073 A 
ATOM     27  C   UNL     1      42.612 -15.182 -39.147  0.00  0.00    -0.036 A 
ATOM     28  C   UNL     1      43.779 -15.534 -38.463  0.00  0.00    -0.060 A 
ATOM     29  C   UNL     1      43.879 -16.792 -37.893  0.00  0.00    -0.061 A 
ATOM     30  C   UNL     1      42.805 -17.674 -37.991  0.00  0.00    -0.051 A 
ATOM     31  C   UNL     1      41.621 -17.325 -38.684  0.00  0.00    +0.023 A 
ATOM     32  C   UNL     1      38.186 -15.882 -40.765  0.00  0.00    -0.010 C 
ATOM     33  C   UNL     1      36.866 -16.541 -40.382  0.00  0.00    -0.047 C 
ATOM     34  C   UNL     1      37.008 -18.053 -40.459  0.00  0.00    -0.049 C 
ATOM     35  C   UNL     1      38.060 -18.543 -39.465  0.00  0.00    -0.024 C 
ENDBRANCH  20  22
ENDBRANCH  18  20
ENDBRANCH  15  16
ENDBRANCH  14  15
ENDBRANCH  13  14
ENDBRANCH  12  13
ENDBRANCH  11  12
ENDBRANCH   9  11
ENDBRANCH   4   7
BRANCH   1  36
ATOM     36  O   UNL     1      47.966 -17.162 -36.593  0.00  0.00    -0.490 OA
BRANCH  36  37
ATOM     37  C   UNL     1      47.167 -16.014 -36.827  0.00  0.00    +0.076 C 
BRANCH  37  38
ATOM     38  C   UNL     1      47.998 -15.055 -38.043  0.00  0.00    -0.053 C 
BRANCH  38  39
ATOM     39  N   UNL     1      47.616 -14.177 -38.331  0.00  0.00    +0.382 N 
BRANCH  39  41
ATOM     40  C   UNL     1      47.300 -15.173 -40.533  0.00  0.00    -0.080 C 
ATOM     41  C   UNL     1      46.991 -14.652 -38.950  0.00  0.00    -0.091 C 
ENDBRANCH  39  41
BRANCH  39  42
ATOM     42  C   UNL     1      47.235 -13.299 -38.619  0.00  0.00    -0.091 C 
ATOM     43  C   UNL     1      45.839 -12.646 -37.922  0.00  0.00    -0.080 C 
ENDBRANCH  39  42
BRANCH  39  44
ATOM     44  C   UNL     1      48.242 -13.702 -37.712  0.00  0.00    -0.091 C 
ATOM     45  C   UNL     1      49.673 -13.059 -38.445  0.00  0.00    -0.080 C 
ENDBRANCH  39  44
ENDBRANCH  38  39
ENDBRANCH  37  38
ENDBRANCH  36  37
ENDBRANCH   1  36
BRANCH   6  46
ATOM     46  O   UNL     1      47.279 -19.221 -38.185  0.00  0.00    -0.490 OA
BRANCH  46  47
ATOM     47  C   UNL     1      47.117 -20.359 -39.025  0.00  0.00    +0.076 C 
BRANCH  47  48
ATOM     48  C   UNL     1      46.795 -19.952 -40.495  0.00  0.00    -0.053 C 
BRANCH  48  49
ATOM     49  N   UNL     1      45.039 -20.327 -41.016  0.00  0.00    +0.382 N 
BRANCH  49  50
ATOM     50  C   UNL     1      44.798 -19.392 -40.756  0.00  0.00    -0.091 C 
ATOM     51  C   UNL     1      44.260 -18.080 -41.461  0.00  0.00    -0.080 C 
ENDBRANCH  49  50
BRANCH  49  52
ATOM     52  C   UNL     1      43.964 -21.001 -39.654  0.00  0.00    -0.091 C 
ATOM     53  C   UNL     1      42.545 -21.278 -40.181  0.00  0.00    -0.080 C 
ENDBRANCH  49  52
BRANCH  49  54
ATOM     54  C   UNL     1      45.281 -21.262 -41.276  0.00  0.00    -0.091 C 
ATOM     55  C   UNL     1      45.244 -22.119 -42.607  0.00  0.00    -0.080 C 
ENDBRANCH  49  54
ENDBRANCH  48  49
ENDBRANCH  47  48
ENDBRANCH  46  47
ENDBRANCH   6  46
BRANCH   3  56
ATOM     56  O   UNL     1      45.071 -18.325 -33.216  0.00  0.00    -0.493 OA
BRANCH  56  57
ATOM     57  C   UNL     1      44.670 -16.944 -33.301  0.00  0.00    +0.075 C 
BRANCH  57  58
ATOM     58  C   UNL     1      43.371 -16.772 -34.157  0.00  0.00    -0.053 C 
BRANCH  58  59
ATOM     59  N   UNL     1      42.788 -14.985 -34.157  0.00  0.00    +0.382 N 
BRANCH  59  60
ATOM     60  C   UNL     1      43.494 -14.781 -34.835  0.00  0.00    -0.091 C 
ATOM     61  C   UNL     1      44.286 -13.458 -34.512  0.00  0.00    -0.080 C 
ENDBRANCH  59  60
BRANCH  59  62
ATOM     62  C   UNL     1      41.483 -15.073 -35.503  0.00  0.00    -0.091 C 
ATOM     63  C   UNL     1      40.552 -16.280 -35.380  0.00  0.00    -0.080 C 
ENDBRANCH  59  62
BRANCH  59  64
ATOM     64  C   UNL     1      42.082 -15.189 -33.479  0.00  0.00    -0.091 C 
ATOM     65  C   UNL     1      41.913 -14.175 -32.299  0.00  0.00    -0.080 C 
ENDBRANCH  59  64
ENDBRANCH  58  59
ENDBRANCH  57  58
ENDBRANCH  56  57
ENDBRANCH   3  56
TORSDOF 30
ENDMDL
MODEL 5
REMARK VINA RESULT:    -6.602      2.127      6.903
REMARK INTER + INTRA:         -10.091
REMARK INTER:                 -13.934
REMARK INTRA:                   3.843
REMARK UNBOUND:                 5.003
REMARK  Name = cpd124.pdb
REMARK  39 active torsions:
REMARK  status: ('A' for Active; 'I' for Inactive)
REMARK    1  A    between atoms: C_1  and  C_2
REMARK    2  A    between atoms: C_2  and  N_3
REMARK    3  A    between atoms: N_3  and  C_4
REMARK    4  A    between atoms: N_3  and  C_6
REMARK    5  A    between atoms: N_3  and  C_8
REMARK    6  A    between atoms: C_4  and  C_5
REMARK    7  A    between atoms: C_6  and  C_7
REMARK    8  A    between atoms: C_8  and  C_9
REMARK    9  A    between atoms: C_9  and  O_10
REMARK   10  A    between atoms: O_10  and  C_11
REMARK   11  A    between atoms: C_13  and  O_14
REMARK   12  A    between atoms: O_14  and  C_15
REMARK   13  A    between atoms: C_15  and  C_16
REMARK   14  A    between atoms: C_16  and  N_17
REMARK   15  A    between atoms: N_17  and  C_18
REMARK   16  A    between atoms: N_17  and  C_20
REMARK   17  A    between atoms: N_17  and  C_22
REMARK   18  A    between atoms: C_18  and  C_19
REMARK   19  A    between atoms: C_20  and  C_21
REMARK   20  A    between atoms: C_22  and  C_23
REMARK   21  A    between atoms: C_24  and  C_25
REMARK   22  A    between atoms: N_27  and  C_28
REMARK   23  A    between atoms: C_28  and  C_29
REMARK   24  A    between atoms: C_29  and  C_30
REMARK   25  A    between atoms: C_30  and  C_31
REMARK   26  A    between atoms: C_31  and  C_32
REMARK   27  A    between atoms: C_32  and  C_33
REMARK   28  A    between atoms: N_35  and  N_36
REMARK   29  A    between atoms: N_36  and  C_37
REMARK   30  A    between atoms: C_52  and  O_53
REMARK   31  A    between atoms: O_53  and  C_54
REMARK   32  A    between atoms: C_54  and  C_55
REMARK   33  A    between atoms: C_55  and  N_56
REMARK   34  A    between atoms: N_56  and  C_57
REMARK   35  A    between atoms: N_56  and  C_59
REMARK   36  A    between atoms: N_56  and  C_61
REMARK   37  A    between atoms: C_57  and  C_58
REMARK   38  A    between atoms: C_59  and  C_60
REMARK   39  A    between atoms: C_61  and  C_62
REMARK                            x       y       z     vdW  Elec       q    Type
REMARK                         _______ _______ _______ _____ _____    ______ ____
ROOT
ATOM      1  C   UNL     1      44.079 -20.445 -37.410  0.00  0.00    +0.165 A 
ATOM      2  C   UNL     1      45.323 -20.207 -36.861  0.00  0.00    +0.026 A 
ATOM      3  C   UNL     1      45.403 -19.711 -35.567  0.00  0.00    +0.136 A 
ATOM      4  C   UNL     1      44.250 -19.623 -34.773  0.00  0.00    +0.082 A 
ATOM      5  C   UNL     1      43.016 -20.065 -35.303  0.00  0.00    -0.001 A 
ATOM      6  C   UNL     1      42.920 -20.455 -36.633  0.00  0.00    +0.163 A 
ENDROOT
BRANCH   4   7
ATOM      7  C   UNL     1      44.171 -18.905 -33.469  0.00  0.00    +0.248 C 
ATOM      8  O   UNL     1      43.195 -19.111 -32.754  0.00  0.00    -0.270 OA
ATOM      9  N   UNL     1      45.141 -17.978 -33.181  0.00  0.00    -0.311 N 
ATOM     10  H   UNL     1      45.958 -17.950 -33.730  0.00  0.00    +0.000 HD
BRANCH   9  11
ATOM     11  C   UNL     1      44.990 -17.037 -32.083  0.00  0.00    +0.012 C 
BRANCH  11  12
ATOM     12  C   UNL     1      44.591 -15.657 -32.609  0.00  0.00    -0.037 C 
BRANCH  12  13
ATOM     13  C   UNL     1      43.299 -15.143 -31.976  0.00  0.00    -0.051 C 
BRANCH  13  14
ATOM     14  C   UNL     1      42.084 -15.554 -32.818  0.00  0.00    -0.045 C 
BRANCH  14  15
ATOM     15  C   UNL     1      40.756 -15.183 -32.154  0.00  0.00    +0.025 C 
BRANCH  15  16
ATOM     16  C   UNL     1      39.686 -14.882 -33.185  0.00  0.00    +0.229 C 
ATOM     17  O   UNL     1      38.522 -14.669 -32.864  0.00  0.00    -0.274 OA
ATOM     18  N   UNL     1      40.182 -14.816 -34.477  0.00  0.00    -0.236 N 
ATOM     19  H   UNL     1      41.097 -15.118 -34.680  0.00  0.00    +0.000 HD
BRANCH  18  20
ATOM     20  N   UNL     1      39.351 -14.309 -35.491  0.00  0.00    -0.264 N 
ATOM     21  H   UNL     1      38.888 -13.441 -35.445  0.00  0.00    +0.000 HD
BRANCH  20  22
ATOM     22  C   UNL     1      39.261 -15.208 -36.593  0.00  0.00    +0.058 A 
ATOM     23  C   UNL     1      40.184 -15.151 -37.654  0.00  0.00    -0.003 A 
ATOM     24  C   UNL     1      40.006 -16.047 -38.715  0.00  0.00    +0.047 A 
ATOM     25  N   UNL     1      38.969 -16.926 -38.790  0.00  0.00    -0.251 NA
ATOM     26  C   UNL     1      38.125 -17.005 -37.748  0.00  0.00    +0.073 A 
ATOM     27  C   UNL     1      37.154 -18.000 -37.763  0.00  0.00    -0.036 A 
ATOM     28  C   UNL     1      36.212 -18.138 -36.740  0.00  0.00    -0.060 A 
ATOM     29  C   UNL     1      36.247 -17.271 -35.662  0.00  0.00    -0.061 A 
ATOM     30  C   UNL     1      37.236 -16.292 -35.604  0.00  0.00    -0.051 A 
ATOM     31  C   UNL     1      38.194 -16.144 -36.637  0.00  0.00    +0.023 A 
ATOM     32  C   UNL     1      40.959 -16.072 -39.886  0.00  0.00    -0.010 C 
ATOM     33  C   UNL     1      42.321 -15.464 -39.571  0.00  0.00    -0.047 C 
ATOM     34  C   UNL     1      42.134 -14.099 -38.927  0.00  0.00    -0.049 C 
ATOM     35  C   UNL     1      41.383 -14.230 -37.603  0.00  0.00    -0.024 C 
ENDBRANCH  20  22
ENDBRANCH  18  20
ENDBRANCH  15  16
ENDBRANCH  14  15
ENDBRANCH  13  14
ENDBRANCH  12  13
ENDBRANCH  11  12
ENDBRANCH   9  11
ENDBRANCH   4   7
BRANCH   1  36
ATOM     36  O   UNL     1      44.001 -20.388 -38.777  0.00  0.00    -0.490 OA
BRANCH  36  37
ATOM     37  C   UNL     1      44.737 -21.447 -39.367  0.00  0.00    +0.076 C 
BRANCH  37  38
ATOM     38  C   UNL     1      45.634 -20.754 -40.711  0.00  0.00    -0.053 C 
BRANCH  38  39
ATOM     39  N   UNL     1      46.430 -21.236 -41.079  0.00  0.00    +0.382 N 
BRANCH  39  41
ATOM     40  C   UNL     1      45.146 -21.914 -43.036  0.00  0.00    -0.080 C 
ATOM     41  C   UNL     1      45.827 -21.923 -41.484  0.00  0.00    -0.091 C 
ENDBRANCH  39  41
BRANCH  39  42
ATOM     42  C   UNL     1      47.225 -21.717 -41.447  0.00  0.00    -0.091 C 
ATOM     43  C   UNL     1      47.809 -23.152 -40.768  0.00  0.00    -0.080 C 
ENDBRANCH  39  42
BRANCH  39  44
ATOM     44  C   UNL     1      47.033 -20.549 -40.673  0.00  0.00    -0.091 C 
ATOM     45  C   UNL     1      47.389 -19.182 -41.675  0.00  0.00    -0.080 C 
ENDBRANCH  39  44
ENDBRANCH  38  39
ENDBRANCH  37  38
ENDBRANCH  36  37
ENDBRANCH   1  36
BRANCH   6  46
ATOM     46  O   UNL     1      41.792 -20.815 -37.299  0.00  0.00    -0.490 OA
BRANCH  46  47
ATOM     47  C   UNL     1      40.655 -19.958 -37.341  0.00  0.00    +0.076 C 
BRANCH  47  48
ATOM     48  C   UNL     1      39.384 -20.654 -36.767  0.00  0.00    -0.053 C 
BRANCH  48  49
ATOM     49  N   UNL     1      39.298 -20.649 -34.899  0.00  0.00    +0.382 N 
BRANCH  49  50
ATOM     50  C   UNL     1      39.431 -21.639 -34.924  0.00  0.00    -0.091 C 
ATOM     51  C   UNL     1      40.488 -22.695 -34.397  0.00  0.00    -0.080 C 
ENDBRANCH  49  50
BRANCH  49  52
ATOM     52  C   UNL     1      37.584 -20.879 -34.211  0.00  0.00    -0.091 C 
ATOM     53  C   UNL     1      37.641 -21.054 -32.684  0.00  0.00    -0.080 C 
ENDBRANCH  49  52
BRANCH  49  54
ATOM     54  C   UNL     1      39.165 -19.658 -34.875  0.00  0.00    -0.091 C 
ATOM     55  C   UNL     1      39.839 -18.437 -34.124  0.00  0.00    -0.080 C 
ENDBRANCH  49  54
ENDBRANCH  48  49
ENDBRANCH  47  48
ENDBRANCH  46  47
ENDBRANCH   6  46
BRANCH   3  56
ATOM     56  O   UNL     1      46.621 -19.206 -35.188  0.00  0.00    -0.493 OA
BRANCH  56  57
ATOM     57  C   UNL     1      47.297 -18.654 -36.334  0.00  0.00    +0.075 C 
BRANCH  57  58
ATOM     58  C   UNL     1      47.398 -17.094 -36.249  0.00  0.00    -0.053 C 
BRANCH  58  59
ATOM     59  N   UNL     1      45.971 -16.270 -37.154  0.00  0.00    +0.382 N 
BRANCH  59  60
ATOM     60  C   UNL     1      45.555 -16.074 -36.266  0.00  0.00    -0.091 C 
ATOM     61  C   UNL     1      44.002 -16.338 -36.249  0.00  0.00    -0.080 C 
ENDBRANCH  59  60
BRANCH  59  62
ATOM     62  C   UNL     1      46.630 -14.517 -37.262  0.00  0.00    -0.091 C 
ATOM     63  C   UNL     1      45.853 -13.626 -38.233  0.00  0.00    -0.080 C 
ENDBRANCH  59  62
BRANCH  59  64
ATOM     64  C   UNL     1      46.388 -16.466 -38.041  0.00  0.00    -0.091 C 
ATOM     65  C   UNL     1      45.498 -17.203 -39.098  0.00  0.00    -0.080 C 
ENDBRANCH  59  64
ENDBRANCH  58  59
ENDBRANCH  57  58
ENDBRANCH  56  57
ENDBRANCH   3  56
TORSDOF 30
ENDMDL
MODEL 6
REMARK VINA RESULT:    -6.507      1.738      7.775
REMARK INTER + INTRA:          -9.874
REMARK INTER:                 -16.224
REMARK INTRA:                   6.350
REMARK UNBOUND:                 5.003
REMARK  Name = cpd124.pdb
REMARK  39 active torsions:
REMARK  status: ('A' for Active; 'I' for Inactive)
REMARK    1  A    between atoms: C_1  and  C_2
REMARK    2  A    between atoms: C_2  and  N_3
REMARK    3  A    between atoms: N_3  and  C_4
REMARK    4  A    between atoms: N_3  and  C_6
REMARK    5  A    between atoms: N_3  and  C_8
REMARK    6  A    between atoms: C_4  and  C_5
REMARK    7  A    between atoms: C_6  and  C_7
REMARK    8  A    between atoms: C_8  and  C_9
REMARK    9  A    between atoms: C_9  and  O_10
REMARK   10  A    between atoms: O_10  and  C_11
REMARK   11  A    between atoms: C_13  and  O_14
REMARK   12  A    between atoms: O_14  and  C_15
REMARK   13  A    between atoms: C_15  and  C_16
REMARK   14  A    between atoms: C_16  and  N_17
REMARK   15  A    between atoms: N_17  and  C_18
REMARK   16  A    between atoms: N_17  and  C_20
REMARK   17  A    between atoms: N_17  and  C_22
REMARK   18  A    between atoms: C_18  and  C_19
REMARK   19  A    between atoms: C_20  and  C_21
REMARK   20  A    between atoms: C_22  and  C_23
REMARK   21  A    between atoms: C_24  and  C_25
REMARK   22  A    between atoms: N_27  and  C_28
REMARK   23  A    between atoms: C_28  and  C_29
REMARK   24  A    between atoms: C_29  and  C_30
REMARK   25  A    between atoms: C_30  and  C_31
REMARK   26  A    between atoms: C_31  and  C_32
REMARK   27  A    between atoms: C_32  and  C_33
REMARK   28  A    between atoms: N_35  and  N_36
REMARK   29  A    between atoms: N_36  and  C_37
REMARK   30  A    between atoms: C_52  and  O_53
REMARK   31  A    between atoms: O_53  and  C_54
REMARK   32  A    between atoms: C_54  and  C_55
REMARK   33  A    between atoms: C_55  and  N_56
REMARK   34  A    between atoms: N_56  and  C_57
REMARK   35  A    between atoms: N_56  and  C_59
REMARK   36  A    between atoms: N_56  and  C_61
REMARK   37  A    between atoms: C_57  and  C_58
REMARK   38  A    between atoms: C_59  and  C_60
REMARK   39  A    between atoms: C_61  and  C_62
REMARK                            x       y       z     vdW  Elec       q    Type
REMARK                         _______ _______ _______ _____ _____    ______ ____
ROOT
ATOM      1  C   UNL     1      45.864 -19.455 -37.269  0.00  0.00    +0.165 A 
ATOM      2  C   UNL     1      45.044 -20.156 -36.407  0.00  0.00    +0.026 A 
ATOM      3  C   UNL     1      44.386 -19.469 -35.398  0.00  0.00    +0.136 A 
ATOM      4  C   UNL     1      44.411 -18.066 -35.365  0.00  0.00    +0.082 A 
ATOM      5  C   UNL     1      45.099 -17.370 -36.386  0.00  0.00    -0.001 A 
ATOM      6  C   UNL     1      45.850 -18.061 -37.328  0.00  0.00    +0.163 A 
ENDROOT
BRANCH   4   7
ATOM      7  C   UNL     1      43.940 -17.235 -34.221  0.00  0.00    +0.248 C 
ATOM      8  O   UNL     1      44.774 -16.850 -33.406  0.00  0.00    -0.270 OA
ATOM      9  N   UNL     1      42.591 -17.030 -34.084  0.00  0.00    -0.311 N 
ATOM     10  H   UNL     1      41.991 -17.255 -34.831  0.00  0.00    +0.000 HD
BRANCH   9  11
ATOM     11  C   UNL     1      42.027 -16.487 -32.858  0.00  0.00    +0.012 C 
BRANCH  11  12
ATOM     12  C   UNL     1      40.552 -16.135 -33.054  0.00  0.00    -0.037 C 
BRANCH  12  13
ATOM     13  C   UNL     1      39.756 -17.283 -33.674  0.00  0.00    -0.051 C 
BRANCH  13  14
ATOM     14  C   UNL     1      38.748 -16.751 -34.700  0.00  0.00    -0.045 C 
BRANCH  14  15
ATOM     15  C   UNL     1      37.646 -17.762 -35.021  0.00  0.00    +0.025 C 
BRANCH  15  16
ATOM     16  C   UNL     1      37.923 -18.490 -36.322  0.00  0.00    +0.229 C 
ATOM     17  O   UNL     1      37.529 -19.634 -36.519  0.00  0.00    -0.274 OA
ATOM     18  N   UNL     1      38.596 -17.707 -37.246  0.00  0.00    -0.236 N 
ATOM     19  H   UNL     1      38.992 -16.845 -36.983  0.00  0.00    +0.000 HD
BRANCH  18  20
ATOM     20  N   UNL     1      38.702 -18.172 -38.569  0.00  0.00    -0.264 N 
ATOM     21  H   UNL     1      37.933 -18.429 -39.129  0.00  0.00    +0.000 HD
BRANCH  20  22
ATOM     22  C   UNL     1      40.058 -18.225 -39.000  0.00  0.00    +0.058 A 
ATOM     23  C   UNL     1      40.796 -19.422 -38.932  0.00  0.00    -0.003 A 
ATOM     24  C   UNL     1      42.134 -19.382 -39.343  0.00  0.00    +0.047 A 
ATOM     25  N   UNL     1      42.759 -18.245 -39.755  0.00  0.00    -0.251 NA
ATOM     26  C   UNL     1      42.030 -17.122 -39.864  0.00  0.00    +0.073 A 
ATOM     27  C   UNL     1      42.633 -15.999 -40.419  0.00  0.00    -0.036 A 
ATOM     28  C   UNL     1      41.966 -14.777 -40.542  0.00  0.00    -0.060 A 
ATOM     29  C   UNL     1      40.653 -14.674 -40.113  0.00  0.00    -0.061 A 
ATOM     30  C   UNL     1      40.015 -15.796 -39.591  0.00  0.00    -0.051 A 
ATOM     31  C   UNL     1      40.684 -17.037 -39.462  0.00  0.00    +0.023 A 
ATOM     32  C   UNL     1      42.996 -20.622 -39.325  0.00  0.00    -0.010 C 
ATOM     33  C   UNL     1      42.192 -21.918 -39.336  0.00  0.00    -0.047 C 
ATOM     34  C   UNL     1      41.123 -21.865 -38.257  0.00  0.00    -0.049 C 
ATOM     35  C   UNL     1      40.142 -20.726 -38.530  0.00  0.00    -0.024 C 
ENDBRANCH  20  22
ENDBRANCH  18  20
ENDBRANCH  15  16
ENDBRANCH  14  15
ENDBRANCH  13  14
ENDBRANCH  12  13
ENDBRANCH  11  12
ENDBRANCH   9  11
ENDBRANCH   4   7
BRANCH   1  36
ATOM     36  O   UNL     1      46.880 -20.167 -37.851  0.00  0.00    -0.490 OA
BRANCH  36  37
ATOM     37  C   UNL     1      46.364 -21.212 -38.658  0.00  0.00    +0.076 C 
BRANCH  37  38
ATOM     38  C   UNL     1      47.172 -21.097 -40.215  0.00  0.00    -0.053 C 
BRANCH  38  39
ATOM     39  N   UNL     1      46.763 -21.526 -41.021  0.00  0.00    +0.382 N 
BRANCH  39  41
ATOM     40  C   UNL     1      48.569 -23.134 -41.325  0.00  0.00    -0.080 C 
ATOM     41  C   UNL     1      47.152 -22.406 -40.749  0.00  0.00    -0.091 C 
ENDBRANCH  39  41
BRANCH  39  42
ATOM     42  C   UNL     1      46.355 -21.955 -41.827  0.00  0.00    -0.091 C 
ATOM     43  C   UNL     1      44.766 -21.642 -42.311  0.00  0.00    -0.080 C 
ENDBRANCH  39  42
BRANCH  39  44
ATOM     44  C   UNL     1      46.375 -20.646 -41.293  0.00  0.00    -0.091 C 
ATOM     45  C   UNL     1      47.518 -19.455 -41.817  0.00  0.00    -0.080 C 
ENDBRANCH  39  44
ENDBRANCH  38  39
ENDBRANCH  37  38
ENDBRANCH  36  37
ENDBRANCH   1  36
BRANCH   6  46
ATOM     46  O   UNL     1      46.630 -17.525 -38.303  0.00  0.00    -0.490 OA
BRANCH  46  47
ATOM     47  C   UNL     1      46.056 -16.875 -39.433  0.00  0.00    +0.076 C 
BRANCH  47  48
ATOM     48  C   UNL     1      46.129 -15.324 -39.307  0.00  0.00    -0.053 C 
BRANCH  48  49
ATOM     49  N   UNL     1      47.266 -14.517 -40.553  0.00  0.00    +0.382 N 
BRANCH  49  50
ATOM     50  C   UNL     1      46.479 -14.428 -41.164  0.00  0.00    -0.091 C 
ATOM     51  C   UNL     1      45.813 -13.308 -42.063  0.00  0.00    -0.080 C 
ENDBRANCH  49  50
BRANCH  49  52
ATOM     52  C   UNL     1      48.071 -15.706 -41.738  0.00  0.00    -0.091 C 
ATOM     53  C   UNL     1      49.035 -14.958 -42.674  0.00  0.00    -0.080 C 
ENDBRANCH  49  52
BRANCH  49  54
ATOM     54  C   UNL     1      48.053 -14.607 -39.943  0.00  0.00    -0.091 C 
ATOM     55  C   UNL     1      48.995 -13.613 -39.147  0.00  0.00    -0.080 C 
ENDBRANCH  49  54
ENDBRANCH  48  49
ENDBRANCH  47  48
ENDBRANCH  46  47
ENDBRANCH   6  46
BRANCH   3  56
ATOM     56  O   UNL     1      43.844 -20.237 -34.398  0.00  0.00    -0.493 OA
BRANCH  56  57
ATOM     57  C   UNL     1      42.498 -20.613 -34.748  0.00  0.00    +0.075 C 
BRANCH  57  58
ATOM     58  C   UNL     1      41.489 -20.278 -33.599  0.00  0.00    -0.053 C 
BRANCH  58  59
ATOM     59  N   UNL     1      40.176 -21.613 -33.437  0.00  0.00    +0.382 N 
BRANCH  59  60
ATOM     60  C   UNL     1      40.527 -21.811 -32.521  0.00  0.00    -0.091 C 
ATOM     61  C   UNL     1      40.913 -23.327 -32.331  0.00  0.00    -0.080 C 
ENDBRANCH  59  60
BRANCH  59  62
ATOM     62  C   UNL     1      38.775 -20.599 -32.709  0.00  0.00    -0.091 C 
ATOM     63  C   UNL     1      37.463 -21.374 -32.568  0.00  0.00    -0.080 C 
ENDBRANCH  59  62
BRANCH  59  64
ATOM     64  C   UNL     1      39.825 -21.415 -34.352  0.00  0.00    -0.091 C 
ATOM     65  C   UNL     1      39.400 -22.638 -35.232  0.00  0.00    -0.080 C 
ENDBRANCH  59  64
ENDBRANCH  58  59
ENDBRANCH  57  58
ENDBRANCH  56  57
ENDBRANCH   3  56
TORSDOF 30
ENDMDL
MODEL 7
REMARK VINA RESULT:    -6.363      1.709      6.504
REMARK INTER + INTRA:          -9.544
REMARK INTER:                 -15.947
REMARK INTRA:                   6.403
REMARK UNBOUND:                 5.003
REMARK  Name = cpd124.pdb
REMARK  39 active torsions:
REMARK  status: ('A' for Active; 'I' for Inactive)
REMARK    1  A    between atoms: C_1  and  C_2
REMARK    2  A    between atoms: C_2  and  N_3
REMARK    3  A    between atoms: N_3  and  C_4
REMARK    4  A    between atoms: N_3  and  C_6
REMARK    5  A    between atoms: N_3  and  C_8
REMARK    6  A    between atoms: C_4  and  C_5
REMARK    7  A    between atoms: C_6  and  C_7
REMARK    8  A    between atoms: C_8  and  C_9
REMARK    9  A    between atoms: C_9  and  O_10
REMARK   10  A    between atoms: O_10  and  C_11
REMARK   11  A    between atoms: C_13  and  O_14
REMARK   12  A    between atoms: O_14  and  C_15
REMARK   13  A    between atoms: C_15  and  C_16
REMARK   14  A    between atoms: C_16  and  N_17
REMARK   15  A    between atoms: N_17  and  C_18
REMARK   16  A    between atoms: N_17  and  C_20
REMARK   17  A    between atoms: N_17  and  C_22
REMARK   18  A    between atoms: C_18  and  C_19
REMARK   19  A    between atoms: C_20  and  C_21
REMARK   20  A    between atoms: C_22  and  C_23
REMARK   21  A    between atoms: C_24  and  C_25
REMARK   22  A    between atoms: N_27  and  C_28
REMARK   23  A    between atoms: C_28  and  C_29
REMARK   24  A    between atoms: C_29  and  C_30
REMARK   25  A    between atoms: C_30  and  C_31
REMARK   26  A    between atoms: C_31  and  C_32
REMARK   27  A    between atoms: C_32  and  C_33
REMARK   28  A    between atoms: N_35  and  N_36
REMARK   29  A    between atoms: N_36  and  C_37
REMARK   30  A    between atoms: C_52  and  O_53
REMARK   31  A    between atoms: O_53  and  C_54
REMARK   32  A    between atoms: C_54  and  C_55
REMARK   33  A    between atoms: C_55  and  N_56
REMARK   34  A    between atoms: N_56  and  C_57
REMARK   35  A    between atoms: N_56  and  C_59
REMARK   36  A    between atoms: N_56  and  C_61
REMARK   37  A    between atoms: C_57  and  C_58
REMARK   38  A    between atoms: C_59  and  C_60
REMARK   39  A    between atoms: C_61  and  C_62
REMARK                            x       y       z     vdW  Elec       q    Type
REMARK                         _______ _______ _______ _____ _____    ______ ____
ROOT
ATOM      1  C   UNL     1      45.212 -19.960 -36.765  0.00  0.00    +0.165 A 
ATOM      2  C   UNL     1      46.328 -19.148 -36.732  0.00  0.00    +0.026 A 
ATOM      3  C   UNL     1      46.443 -18.204 -35.721  0.00  0.00    +0.136 A 
ATOM      4  C   UNL     1      45.532 -18.199 -34.653  0.00  0.00    +0.082 A 
ATOM      5  C   UNL     1      44.514 -19.179 -34.616  0.00  0.00    -0.001 A 
ATOM      6  C   UNL     1      44.333 -20.048 -35.685  0.00  0.00    +0.163 A 
ENDROOT
BRANCH   4   7
ATOM      7  C   UNL     1      45.418 -17.110 -33.642  0.00  0.00    +0.248 C 
ATOM      8  O   UNL     1      46.077 -17.208 -32.611  0.00  0.00    -0.270 OA
ATOM      9  N   UNL     1      44.508 -16.108 -33.871  0.00  0.00    -0.311 N 
ATOM     10  H   UNL     1      44.105 -16.018 -34.764  0.00  0.00    +0.000 HD
BRANCH   9  11
ATOM     11  C   UNL     1      44.125 -15.177 -32.821  0.00  0.00    +0.012 C 
BRANCH  11  12
ATOM     12  C   UNL     1      42.603 -15.091 -32.708  0.00  0.00    -0.037 C 
BRANCH  12  13
ATOM     13  C   UNL     1      41.929 -16.455 -32.842  0.00  0.00    -0.051 C 
BRANCH  13  14
ATOM     14  C   UNL     1      41.293 -16.611 -34.229  0.00  0.00    -0.045 C 
BRANCH  14  15
ATOM     15  C   UNL     1      39.956 -15.879 -34.348  0.00  0.00    +0.025 C 
BRANCH  15  16
ATOM     16  C   UNL     1      39.359 -16.036 -35.732  0.00  0.00    +0.229 C 
ATOM     17  O   UNL     1      38.774 -15.115 -36.292  0.00  0.00    -0.274 OA
ATOM     18  N   UNL     1      39.602 -17.282 -36.288  0.00  0.00    -0.236 N 
ATOM     19  H   UNL     1      39.967 -18.014 -35.740  0.00  0.00    +0.000 HD
BRANCH  18  20
ATOM     20  N   UNL     1      39.317 -17.476 -37.651  0.00  0.00    -0.264 N 
ATOM     21  H   UNL     1      38.502 -17.150 -38.098  0.00  0.00    +0.000 HD
BRANCH  20  22
ATOM     22  C   UNL     1      40.352 -18.204 -38.305  0.00  0.00    +0.058 A 
ATOM     23  C   UNL     1      41.467 -17.544 -38.855  0.00  0.00    -0.003 A 
ATOM     24  C   UNL     1      42.424 -18.329 -39.510  0.00  0.00    +0.047 A 
ATOM     25  N   UNL     1      42.306 -19.675 -39.679  0.00  0.00    -0.251 NA
ATOM     26  C   UNL     1      41.263 -20.297 -39.104  0.00  0.00    +0.073 A 
ATOM     27  C   UNL     1      41.219 -21.686 -39.154  0.00  0.00    -0.036 A 
ATOM     28  C   UNL     1      40.158 -22.419 -38.616  0.00  0.00    -0.060 A 
ATOM     29  C   UNL     1      39.118 -21.751 -37.993  0.00  0.00    -0.061 A 
ATOM     30  C   UNL     1      39.160 -20.362 -37.893  0.00  0.00    -0.051 A 
ATOM     31  C   UNL     1      40.230 -19.613 -38.438  0.00  0.00    +0.023 A 
ATOM     32  C   UNL     1      43.663 -17.710 -40.113  0.00  0.00    -0.010 C 
ATOM     33  C   UNL     1      44.013 -16.351 -39.518  0.00  0.00    -0.047 C 
ATOM     34  C   UNL     1      42.782 -15.458 -39.526  0.00  0.00    -0.049 C 
ATOM     35  C   UNL     1      41.678 -16.060 -38.658  0.00  0.00    -0.024 C 
ENDBRANCH  20  22
ENDBRANCH  18  20
ENDBRANCH  15  16
ENDBRANCH  14  15
ENDBRANCH  13  14
ENDBRANCH  12  13
ENDBRANCH  11  12
ENDBRANCH   9  11
ENDBRANCH   4   7
BRANCH   1  36
ATOM     36  O   UNL     1      44.857 -20.449 -37.994  0.00  0.00    -0.490 OA
BRANCH  36  37
ATOM     37  C   UNL     1      45.988 -20.960 -38.679  0.00  0.00    +0.076 C 
BRANCH  37  38
ATOM     38  C   UNL     1      45.824 -20.478 -40.361  0.00  0.00    -0.053 C 
BRANCH  38  39
ATOM     39  N   UNL     1      46.445 -20.853 -41.049  0.00  0.00    +0.382 N 
BRANCH  39  41
ATOM     40  C   UNL     1      47.204 -18.541 -41.177  0.00  0.00    -0.080 C 
ATOM     41  C   UNL     1      47.143 -20.188 -40.783  0.00  0.00    -0.091 C 
ENDBRANCH  39  41
BRANCH  39  42
ATOM     42  C   UNL     1      47.066 -21.228 -41.738  0.00  0.00    -0.091 C 
ATOM     43  C   UNL     1      48.321 -22.291 -41.342  0.00  0.00    -0.080 C 
ENDBRANCH  39  42
BRANCH  39  44
ATOM     44  C   UNL     1      45.748 -21.518 -41.316  0.00  0.00    -0.091 C 
ATOM     45  C   UNL     1      44.734 -21.049 -42.639  0.00  0.00    -0.080 C 
ENDBRANCH  39  44
ENDBRANCH  38  39
ENDBRANCH  37  38
ENDBRANCH  36  37
ENDBRANCH   1  36
BRANCH   6  46
ATOM     46  O   UNL     1      43.348 -20.973 -35.827  0.00  0.00    -0.490 OA
BRANCH  46  47
ATOM     47  C   UNL     1      41.998 -20.670 -35.492  0.00  0.00    +0.076 C 
BRANCH  47  48
ATOM     48  C   UNL     1      41.190 -21.952 -35.126  0.00  0.00    -0.053 C 
BRANCH  48  49
ATOM     49  N   UNL     1      40.142 -21.771 -33.589  0.00  0.00    +0.382 N 
BRANCH  49  50
ATOM     50  C   UNL     1      40.638 -22.547 -33.200  0.00  0.00    -0.091 C 
ATOM     51  C   UNL     1      41.226 -22.978 -31.794  0.00  0.00    -0.080 C 
ENDBRANCH  49  50
BRANCH  49  52
ATOM     52  C   UNL     1      38.569 -22.766 -33.612  0.00  0.00    -0.091 C 
ATOM     53  C   UNL     1      38.555 -23.716 -34.821  0.00  0.00    -0.080 C 
ENDBRANCH  49  52
BRANCH  49  54
ATOM     54  C   UNL     1      39.646 -20.994 -33.978  0.00  0.00    -0.091 C 
ATOM     55  C   UNL     1      39.112 -19.602 -33.444  0.00  0.00    -0.080 C 
ENDBRANCH  49  54
ENDBRANCH  48  49
ENDBRANCH  47  48
ENDBRANCH  46  47
ENDBRANCH   6  46
BRANCH   3  56
ATOM     56  O   UNL     1      47.393 -17.232 -35.907  0.00  0.00    -0.493 OA
BRANCH  56  57
ATOM     57  C   UNL     1      46.838 -16.150 -36.680  0.00  0.00    +0.075 C 
BRANCH  57  58
ATOM     58  C   UNL     1      47.471 -16.079 -38.110  0.00  0.00    -0.053 C 
BRANCH  58  59
ATOM     59  N   UNL     1      47.640 -14.299 -38.691  0.00  0.00    +0.382 N 
BRANCH  59  60
ATOM     60  C   UNL     1      48.575 -14.299 -38.336  0.00  0.00    -0.091 C 
ATOM     61  C   UNL     1      49.020 -12.890 -37.790  0.00  0.00    -0.080 C 
ENDBRANCH  59  60
BRANCH  59  62
ATOM     62  C   UNL     1      48.273 -14.589 -40.433  0.00  0.00    -0.091 C 
ATOM     63  C   UNL     1      47.179 -14.539 -41.502  0.00  0.00    -0.080 C 
ENDBRANCH  59  62
BRANCH  59  64
ATOM     64  C   UNL     1      46.705 -14.299 -39.045  0.00  0.00    -0.091 C 
ATOM     65  C   UNL     1      45.744 -13.182 -38.519  0.00  0.00    -0.080 C 
ENDBRANCH  59  64
ENDBRANCH  58  59
ENDBRANCH  57  58
ENDBRANCH  56  57
ENDBRANCH   3  56
TORSDOF 30
ENDMDL
MODEL 8
REMARK VINA RESULT:    -6.353      2.110      7.906
REMARK INTER + INTRA:          -9.521
REMARK INTER:                 -14.307
REMARK INTRA:                   4.786
REMARK UNBOUND:                 5.003
REMARK  Name = cpd124.pdb
REMARK  39 active torsions:
REMARK  status: ('A' for Active; 'I' for Inactive)
REMARK    1  A    between atoms: C_1  and  C_2
REMARK    2  A    between atoms: C_2  and  N_3
REMARK    3  A    between atoms: N_3  and  C_4
REMARK    4  A    between atoms: N_3  and  C_6
REMARK    5  A    between atoms: N_3  and  C_8
REMARK    6  A    between atoms: C_4  and  C_5
REMARK    7  A    between atoms: C_6  and  C_7
REMARK    8  A    between atoms: C_8  and  C_9
REMARK    9  A    between atoms: C_9  and  O_10
REMARK   10  A    between atoms: O_10  and  C_11
REMARK   11  A    between atoms: C_13  and  O_14
REMARK   12  A    between atoms: O_14  and  C_15
REMARK   13  A    between atoms: C_15  and  C_16
REMARK   14  A    between atoms: C_16  and  N_17
REMARK   15  A    between atoms: N_17  and  C_18
REMARK   16  A    between atoms: N_17  and  C_20
REMARK   17  A    between atoms: N_17  and  C_22
REMARK   18  A    between atoms: C_18  and  C_19
REMARK   19  A    between atoms: C_20  and  C_21
REMARK   20  A    between atoms: C_22  and  C_23
REMARK   21  A    between atoms: C_24  and  C_25
REMARK   22  A    between atoms: N_27  and  C_28
REMARK   23  A    between atoms: C_28  and  C_29
REMARK   24  A    between atoms: C_29  and  C_30
REMARK   25  A    between atoms: C_30  and  C_31
REMARK   26  A    between atoms: C_31  and  C_32
REMARK   27  A    between atoms: C_32  and  C_33
REMARK   28  A    between atoms: N_35  and  N_36
REMARK   29  A    between atoms: N_36  and  C_37
REMARK   30  A    between atoms: C_52  and  O_53
REMARK   31  A    between atoms: O_53  and  C_54
REMARK   32  A    between atoms: C_54  and  C_55
REMARK   33  A    between atoms: C_55  and  N_56
REMARK   34  A    between atoms: N_56  and  C_57
REMARK   35  A    between atoms: N_56  and  C_59
REMARK   36  A    between atoms: N_56  and  C_61
REMARK   37  A    between atoms: C_57  and  C_58
REMARK   38  A    between atoms: C_59  and  C_60
REMARK   39  A    between atoms: C_61  and  C_62
REMARK                            x       y       z     vdW  Elec       q    Type
REMARK                         _______ _______ _______ _____ _____    ______ ____
ROOT
ATOM      1  C   UNL     1      41.847 -20.164 -38.995  0.00  0.00    +0.165 A 
ATOM      2  C   UNL     1      42.235 -18.873 -39.289  0.00  0.00    +0.026 A 
ATOM      3  C   UNL     1      41.416 -17.820 -38.902  0.00  0.00    +0.136 A 
ATOM      4  C   UNL     1      40.310 -18.055 -38.072  0.00  0.00    +0.082 A 
ATOM      5  C   UNL     1      40.057 -19.372 -37.623  0.00  0.00    -0.001 A 
ATOM      6  C   UNL     1      40.809 -20.437 -38.103  0.00  0.00    +0.163 A 
ENDROOT
BRANCH   4   7
ATOM      7  C   UNL     1      39.243 -17.057 -37.779  0.00  0.00    +0.248 C 
ATOM      8  O   UNL     1      39.580 -15.966 -37.331  0.00  0.00    -0.270 OA
ATOM      9  N   UNL     1      37.935 -17.446 -37.929  0.00  0.00    -0.311 N 
ATOM     10  H   UNL     1      37.733 -18.282 -38.407  0.00  0.00    +0.000 HD
BRANCH   9  11
ATOM     11  C   UNL     1      36.841 -16.649 -37.398  0.00  0.00    +0.012 C 
BRANCH  11  12
ATOM     12  C   UNL     1      36.118 -17.404 -36.282  0.00  0.00    -0.037 C 
BRANCH  12  13
ATOM     13  C   UNL     1      37.087 -18.080 -35.313  0.00  0.00    -0.051 C 
BRANCH  13  14
ATOM     14  C   UNL     1      37.222 -17.260 -34.023  0.00  0.00    -0.045 C 
BRANCH  14  15
ATOM     15  C   UNL     1      38.588 -17.433 -33.357  0.00  0.00    +0.025 C 
BRANCH  15  16
ATOM     16  C   UNL     1      39.633 -16.537 -33.991  0.00  0.00    +0.229 C 
ATOM     17  O   UNL     1      39.567 -15.315 -33.916  0.00  0.00    -0.274 OA
ATOM     18  N   UNL     1      40.663 -17.246 -34.587  0.00  0.00    -0.236 N 
ATOM     19  H   UNL     1      40.593 -18.219 -34.721  0.00  0.00    +0.000 HD
BRANCH  18  20
ATOM     20  N   UNL     1      41.811 -16.545 -34.997  0.00  0.00    -0.264 N 
ATOM     21  H   UNL     1      41.816 -15.851 -35.696  0.00  0.00    +0.000 HD
BRANCH  20  22
ATOM     22  C   UNL     1      42.966 -16.963 -34.276  0.00  0.00    +0.058 A 
ATOM     23  C   UNL     1      43.624 -18.166 -34.592  0.00  0.00    -0.003 A 
ATOM     24  C   UNL     1      44.732 -18.521 -33.813  0.00  0.00    +0.047 A 
ATOM     25  N   UNL     1      45.168 -17.792 -32.750  0.00  0.00    -0.251 NA
ATOM     26  C   UNL     1      44.562 -16.621 -32.491  0.00  0.00    +0.073 A 
ATOM     27  C   UNL     1      45.098 -15.811 -31.496  0.00  0.00    -0.036 A 
ATOM     28  C   UNL     1      44.518 -14.592 -31.133  0.00  0.00    -0.060 A 
ATOM     29  C   UNL     1      43.380 -14.159 -31.791  0.00  0.00    -0.061 A 
ATOM     30  C   UNL     1      42.849 -14.934 -32.820  0.00  0.00    -0.051 A 
ATOM     31  C   UNL     1      43.430 -16.170 -33.192  0.00  0.00    +0.023 A 
ATOM     32  C   UNL     1      45.512 -19.784 -34.093  0.00  0.00    -0.010 C 
ATOM     33  C   UNL     1      45.332 -20.305 -35.514  0.00  0.00    -0.047 C 
ATOM     34  C   UNL     1      43.850 -20.382 -35.846  0.00  0.00    -0.049 C 
ATOM     35  C   UNL     1      43.217 -18.992 -35.792  0.00  0.00    -0.024 C 
ENDBRANCH  20  22
ENDBRANCH  18  20
ENDBRANCH  15  16
ENDBRANCH  14  15
ENDBRANCH  13  14
ENDBRANCH  12  13
ENDBRANCH  11  12
ENDBRANCH   9  11
ENDBRANCH   4   7
BRANCH   1  36
ATOM     36  O   UNL     1      42.330 -21.144 -39.822  0.00  0.00    -0.490 OA
BRANCH  36  37
ATOM     37  C   UNL     1      43.636 -21.533 -39.432  0.00  0.00    +0.076 C 
BRANCH  37  38
ATOM     38  C   UNL     1      44.691 -21.215 -40.801  0.00  0.00    -0.053 C 
BRANCH  38  39
ATOM     39  N   UNL     1      45.647 -20.967 -40.646  0.00  0.00    +0.382 N 
BRANCH  39  41
ATOM     40  C   UNL     1      44.888 -19.095 -42.009  0.00  0.00    -0.080 C 
ATOM     41  C   UNL     1      45.400 -19.998 -40.670  0.00  0.00    -0.091 C 
ENDBRANCH  39  41
BRANCH  39  42
ATOM     42  C   UNL     1      46.604 -20.718 -40.490  0.00  0.00    -0.091 C 
ATOM     43  C   UNL     1      47.217 -20.402 -38.946  0.00  0.00    -0.080 C 
ENDBRANCH  39  42
BRANCH  39  44
ATOM     44  C   UNL     1      45.895 -21.935 -40.622  0.00  0.00    -0.091 C 
ATOM     45  C   UNL     1      46.351 -22.628 -42.142  0.00  0.00    -0.080 C 
ENDBRANCH  39  44
ENDBRANCH  38  39
ENDBRANCH  37  38
ENDBRANCH  36  37
ENDBRANCH   1  36
BRANCH   6  46
ATOM     46  O   UNL     1      40.622 -21.756 -37.833  0.00  0.00    -0.490 OA
BRANCH  46  47
ATOM     47  C   UNL     1      39.882 -22.178 -36.692  0.00  0.00    +0.076 C 
BRANCH  47  48
ATOM     48  C   UNL     1      40.787 -22.306 -35.430  0.00  0.00    -0.053 C 
BRANCH  48  49
ATOM     49  N   UNL     1      39.906 -21.923 -33.826  0.00  0.00    +0.382 N 
BRANCH  49  50
ATOM     50  C   UNL     1      39.534 -22.851 -33.847  0.00  0.00    -0.091 C 
ATOM     51  C   UNL     1      39.579 -24.153 -32.948  0.00  0.00    -0.080 C 
ENDBRANCH  49  50
BRANCH  49  52
ATOM     52  C   UNL     1      38.198 -21.215 -34.040  0.00  0.00    -0.091 C 
ATOM     53  C   UNL     1      37.528 -21.011 -32.671  0.00  0.00    -0.080 C 
ENDBRANCH  49  52
BRANCH  49  54
ATOM     54  C   UNL     1      40.278 -20.994 -33.805  0.00  0.00    -0.091 C 
ATOM     55  C   UNL     1      41.167 -20.147 -32.805  0.00  0.00    -0.080 C 
ENDBRANCH  49  54
ENDBRANCH  48  49
ENDBRANCH  47  48
ENDBRANCH  46  47
ENDBRANCH   6  46
BRANCH   3  56
ATOM     56  O   UNL     1      41.682 -16.604 -39.479  0.00  0.00    -0.493 OA
BRANCH  56  57
ATOM     57  C   UNL     1      42.865 -16.033 -38.888  0.00  0.00    +0.075 C 
BRANCH  57  58
ATOM     58  C   UNL     1      44.041 -15.947 -39.917  0.00  0.00    -0.053 C 
BRANCH  58  59
ATOM     59  N   UNL     1      45.690 -15.704 -39.048  0.00  0.00    +0.382 N 
BRANCH  59  60
ATOM     60  C   UNL     1      45.218 -15.147 -38.365  0.00  0.00    -0.091 C 
ATOM     61  C   UNL     1      45.897 -13.740 -38.153  0.00  0.00    -0.080 C 
ENDBRANCH  59  60
BRANCH  59  62
ATOM     62  C   UNL     1      45.666 -17.184 -37.896  0.00  0.00    -0.091 C 
ATOM     63  C   UNL     1      46.777 -17.163 -36.844  0.00  0.00    -0.080 C 
ENDBRANCH  59  62
BRANCH  59  64
ATOM     64  C   UNL     1      46.161 -16.262 -39.732  0.00  0.00    -0.091 C 
ATOM     65  C   UNL     1      47.477 -15.677 -40.343  0.00  0.00    -0.080 C 
ENDBRANCH  59  64
ENDBRANCH  58  59
ENDBRANCH  57  58
ENDBRANCH  56  57
ENDBRANCH   3  56
TORSDOF 30
ENDMDL
MODEL 9
REMARK VINA RESULT:    -6.347      1.655      3.284
REMARK INTER + INTRA:          -9.507
REMARK INTER:                 -15.130
REMARK INTRA:                   5.624
REMARK UNBOUND:                 5.003
REMARK  Name = cpd124.pdb
REMARK  39 active torsions:
REMARK  status: ('A' for Active; 'I' for Inactive)
REMARK    1  A    between atoms: C_1  and  C_2
REMARK    2  A    between atoms: C_2  and  N_3
REMARK    3  A    between atoms: N_3  and  C_4
REMARK    4  A    between atoms: N_3  and  C_6
REMARK    5  A    between atoms: N_3  and  C_8
REMARK    6  A    between atoms: C_4  and  C_5
REMARK    7  A    between atoms: C_6  and  C_7
REMARK    8  A    between atoms: C_8  and  C_9
REMARK    9  A    between atoms: C_9  and  O_10
REMARK   10  A    between atoms: O_10  and  C_11
REMARK   11  A    between atoms: C_13  and  O_14
REMARK   12  A    between atoms: O_14  and  C_15
REMARK   13  A    between atoms: C_15  and  C_16
REMARK   14  A    between atoms: C_16  and  N_17
REMARK   15  A    between atoms: N_17  and  C_18
REMARK   16  A    between atoms: N_17  and  C_20
REMARK   17  A    between atoms: N_17  and  C_22
REMARK   18  A    between atoms: C_18  and  C_19
REMARK   19  A    between atoms: C_20  and  C_21
REMARK   20  A    between atoms: C_22  and  C_23
REMARK   21  A    between atoms: C_24  and  C_25
REMARK   22  A    between atoms: N_27  and  C_28
REMARK   23  A    between atoms: C_28  and  C_29
REMARK   24  A    between atoms: C_29  and  C_30
REMARK   25  A    between atoms: C_30  and  C_31
REMARK   26  A    between atoms: C_31  and  C_32
REMARK   27  A    between atoms: C_32  and  C_33
REMARK   28  A    between atoms: N_35  and  N_36
REMARK   29  A    between atoms: N_36  and  C_37
REMARK   30  A    between atoms: C_52  and  O_53
REMARK   31  A    between atoms: O_53  and  C_54
REMARK   32  A    between atoms: C_54  and  C_55
REMARK   33  A    between atoms: C_55  and  N_56
REMARK   34  A    between atoms: N_56  and  C_57
REMARK   35  A    between atoms: N_56  and  C_59
REMARK   36  A    between atoms: N_56  and  C_61
REMARK   37  A    between atoms: C_57  and  C_58
REMARK   38  A    between atoms: C_59  and  C_60
REMARK   39  A    between atoms: C_61  and  C_62
REMARK                            x       y       z     vdW  Elec       q    Type
REMARK                         _______ _______ _______ _____ _____    ______ ____
ROOT
ATOM      1  C   UNL     1      44.837 -19.534 -34.891  0.00  0.00    +0.165 A 
ATOM      2  C   UNL     1      45.174 -19.933 -36.169  0.00  0.00    +0.026 A 
ATOM      3  C   UNL     1      45.963 -19.098 -36.947  0.00  0.00    +0.136 A 
ATOM      4  C   UNL     1      46.554 -17.957 -36.384  0.00  0.00    +0.082 A 
ATOM      5  C   UNL     1      46.348 -17.686 -35.011  0.00  0.00    -0.001 A 
ATOM      6  C   UNL     1      45.468 -18.459 -34.264  0.00  0.00    +0.163 A 
ENDROOT
BRANCH   4   7
ATOM      7  C   UNL     1      47.225 -16.878 -37.162  0.00  0.00    +0.248 C 
ATOM      8  O   UNL     1      47.732 -15.948 -36.541  0.00  0.00    -0.270 OA
ATOM      9  N   UNL     1      47.152 -16.927 -38.531  0.00  0.00    -0.311 N 
ATOM     10  H   UNL     1      46.845 -17.754 -38.968  0.00  0.00    +0.000 HD
BRANCH   9  11
ATOM     11  C   UNL     1      47.520 -15.784 -39.352  0.00  0.00    +0.012 C 
BRANCH  11  12
ATOM     12  C   UNL     1      46.338 -14.825 -39.499  0.00  0.00    -0.037 C 
BRANCH  12  13
ATOM     13  C   UNL     1      46.761 -13.360 -39.411  0.00  0.00    -0.051 C 
BRANCH  13  14
ATOM     14  C   UNL     1      45.712 -12.538 -38.651  0.00  0.00    -0.045 C 
BRANCH  14  15
ATOM     15  C   UNL     1      44.965 -11.557 -39.556  0.00  0.00    +0.025 C 
BRANCH  15  16
ATOM     16  C   UNL     1      43.835 -12.240 -40.300  0.00  0.00    +0.229 C 
ATOM     17  O   UNL     1      43.831 -12.335 -41.523  0.00  0.00    -0.274 OA
ATOM     18  N   UNL     1      42.877 -12.778 -39.455  0.00  0.00    -0.236 N 
ATOM     19  H   UNL     1      42.875 -12.560 -38.495  0.00  0.00    +0.000 HD
BRANCH  18  20
ATOM     20  N   UNL     1      41.910 -13.641 -39.999  0.00  0.00    -0.264 N 
ATOM     21  H   UNL     1      41.306 -13.400 -40.739  0.00  0.00    +0.000 HD
BRANCH  20  22
ATOM     22  C   UNL     1      41.911 -14.907 -39.347  0.00  0.00    +0.058 A 
ATOM     23  C   UNL     1      42.531 -16.027 -39.934  0.00  0.00    -0.003 A 
ATOM     24  C   UNL     1      42.458 -17.243 -39.244  0.00  0.00    +0.047 A 
ATOM     25  N   UNL     1      41.786 -17.402 -38.071  0.00  0.00    -0.251 NA
ATOM     26  C   UNL     1      41.244 -16.315 -37.496  0.00  0.00    +0.073 A 
ATOM     27  C   UNL     1      40.683 -16.452 -36.231  0.00  0.00    -0.036 A 
ATOM     28  C   UNL     1      40.066 -15.387 -35.569  0.00  0.00    -0.060 A 
ATOM     29  C   UNL     1      40.020 -14.144 -36.177  0.00  0.00    -0.061 A 
ATOM     30  C   UNL     1      40.611 -13.972 -37.427  0.00  0.00    -0.051 A 
ATOM     31  C   UNL     1      41.237 -15.047 -38.105  0.00  0.00    +0.023 A 
ATOM     32  C   UNL     1      43.111 -18.491 -39.788  0.00  0.00    -0.010 C 
ATOM     33  C   UNL     1      44.221 -18.205 -40.793  0.00  0.00    -0.047 C 
ATOM     34  C   UNL     1      43.716 -17.235 -41.849  0.00  0.00    -0.049 C 
ATOM     35  C   UNL     1      43.333 -15.901 -41.210  0.00  0.00    -0.024 C 
ENDBRANCH  20  22
ENDBRANCH  18  20
ENDBRANCH  15  16
ENDBRANCH  14  15
ENDBRANCH  13  14
ENDBRANCH  12  13
ENDBRANCH  11  12
ENDBRANCH   9  11
ENDBRANCH   4   7
BRANCH   1  36
ATOM     36  O   UNL     1      43.676 -20.053 -34.382  0.00  0.00    -0.490 OA
BRANCH  36  37
ATOM     37  C   UNL     1      42.559 -19.636 -35.150  0.00  0.00    +0.076 C 
BRANCH  37  38
ATOM     38  C   UNL     1      41.665 -21.088 -35.577  0.00  0.00    -0.053 C 
BRANCH  38  39
ATOM     39  N   UNL     1      40.846 -21.019 -36.146  0.00  0.00    +0.382 N 
BRANCH  39  41
ATOM     40  C   UNL     1      41.894 -21.889 -38.167  0.00  0.00    -0.080 C 
ATOM     41  C   UNL     1      41.417 -20.819 -36.942  0.00  0.00    -0.091 C 
ENDBRANCH  39  41
BRANCH  39  42
ATOM     42  C   UNL     1      40.027 -20.950 -36.715  0.00  0.00    -0.091 C 
ATOM     43  C   UNL     1      39.018 -19.594 -36.689  0.00  0.00    -0.080 C 
ENDBRANCH  39  42
BRANCH  39  44
ATOM     44  C   UNL     1      40.276 -21.219 -35.349  0.00  0.00    -0.091 C 
ATOM     45  C   UNL     1      39.891 -22.890 -35.107  0.00  0.00    -0.080 C 
ENDBRANCH  39  44
ENDBRANCH  38  39
ENDBRANCH  37  38
ENDBRANCH  36  37
ENDBRANCH   1  36
BRANCH   6  46
ATOM     46  O   UNL     1      45.106 -18.262 -32.970  0.00  0.00    -0.490 OA
BRANCH  46  47
ATOM     47  C   UNL     1      44.977 -16.950 -32.431  0.00  0.00    +0.076 C 
BRANCH  47  48
ATOM     48  C   UNL     1      43.592 -16.320 -32.769  0.00  0.00    -0.053 C 
BRANCH  48  49
ATOM     49  N   UNL     1      43.680 -14.515 -33.248  0.00  0.00    +0.382 N 
BRANCH  49  50
ATOM     50  C   UNL     1      43.867 -14.304 -32.288  0.00  0.00    -0.091 C 
ATOM     51  C   UNL     1      44.795 -13.322 -31.462  0.00  0.00    -0.080 C 
ENDBRANCH  49  50
BRANCH  49  52
ATOM     52  C   UNL     1      42.054 -13.614 -33.146  0.00  0.00    -0.091 C 
ATOM     53  C   UNL     1      41.125 -14.302 -32.132  0.00  0.00    -0.080 C 
ENDBRANCH  49  52
BRANCH  49  54
ATOM     54  C   UNL     1      43.493 -14.725 -34.207  0.00  0.00    -0.091 C 
ATOM     55  C   UNL     1      44.279 -14.593 -35.576  0.00  0.00    -0.080 C 
ENDBRANCH  49  54
ENDBRANCH  48  49
ENDBRANCH  47  48
ENDBRANCH  46  47
ENDBRANCH   6  46
BRANCH   3  56
ATOM     56  O   UNL     1      46.008 -19.387 -38.288  0.00  0.00    -0.493 OA
BRANCH  56  57
ATOM     57  C   UNL     1      46.401 -20.761 -38.476  0.00  0.00    +0.075 C 
BRANCH  57  58
ATOM     58  C   UNL     1      45.499 -21.479 -39.535  0.00  0.00    -0.053 C 
BRANCH  58  59
ATOM     59  N   UNL     1      46.336 -21.533 -41.217  0.00  0.00    +0.382 N 
BRANCH  59  60
ATOM     60  C   UNL     1      47.113 -21.047 -40.818  0.00  0.00    -0.091 C 
ATOM     61  C   UNL     1      47.622 -19.863 -41.724  0.00  0.00    -0.080 C 
ENDBRANCH  59  60
BRANCH  59  62
ATOM     62  C   UNL     1      47.248 -23.166 -41.069  0.00  0.00    -0.091 C 
ATOM     63  C   UNL     1      47.809 -23.681 -42.397  0.00  0.00    -0.080 C 
ENDBRANCH  59  62
BRANCH  59  64
ATOM     64  C   UNL     1      45.559 -22.019 -41.617  0.00  0.00    -0.091 C 
ATOM     65  C   UNL     1      44.741 -21.270 -42.721  0.00  0.00    -0.080 C 
ENDBRANCH  59  64
ENDBRANCH  58  59
ENDBRANCH  57  58
ENDBRANCH  56  57
ENDBRANCH   3  56
TORSDOF 30
ENDMDL
MODEL 10
REMARK VINA RESULT:    -6.318      1.805      6.911
REMARK INTER + INTRA:          -9.440
REMARK INTER:                 -15.353
REMARK INTRA:                   5.913
REMARK UNBOUND:                 5.003
REMARK  Name = cpd124.pdb
REMARK  39 active torsions:
REMARK  status: ('A' for Active; 'I' for Inactive)
REMARK    1  A    between atoms: C_1  and  C_2
REMARK    2  A    between atoms: C_2  and  N_3
REMARK    3  A    between atoms: N_3  and  C_4
REMARK    4  A    between atoms: N_3  and  C_6
REMARK    5  A    between atoms: N_3  and  C_8
REMARK    6  A    between atoms: C_4  and  C_5
REMARK    7  A    between atoms: C_6  and  C_7
REMARK    8  A    between atoms: C_8  and  C_9
REMARK    9  A    between atoms: C_9  and  O_10
REMARK   10  A    between atoms: O_10  and  C_11
REMARK   11  A    between atoms: C_13  and  O_14
REMARK   12  A    between atoms: O_14  and  C_15
REMARK   13  A    between atoms: C_15  and  C_16
REMARK   14  A    between atoms: C_16  and  N_17
REMARK   15  A    between atoms: N_17  and  C_18
REMARK   16  A    between atoms: N_17  and  C_20
REMARK   17  A    between atoms: N_17  and  C_22
REMARK   18  A    between atoms: C_18  and  C_19
REMARK   19  A    between atoms: C_20  and  C_21
REMARK   20  A    between atoms: C_22  and  C_23
REMARK   21  A    between atoms: C_24  and  C_25
REMARK   22  A    between atoms: N_27  and  C_28
REMARK   23  A    between atoms: C_28  and  C_29
REMARK   24  A    between atoms: C_29  and  C_30
REMARK   25  A    between atoms: C_30  and  C_31
REMARK   26  A    between atoms: C_31  and  C_32
REMARK   27  A    between atoms: C_32  and  C_33
REMARK   28  A    between atoms: N_35  and  N_36
REMARK   29  A    between atoms: N_36  and  C_37
REMARK   30  A    between atoms: C_52  and  O_53
REMARK   31  A    between atoms: O_53  and  C_54
REMARK   32  A    between atoms: C_54  and  C_55
REMARK   33  A    between atoms: C_55  and  N_56
REMARK   34  A    between atoms: N_56  and  C_57
REMARK   35  A    between atoms: N_56  and  C_59
REMARK   36  A    between atoms: N_56  and  C_61
REMARK   37  A    between atoms: C_57  and  C_58
REMARK   38  A    between atoms: C_59  and  C_60
REMARK   39  A    between atoms: C_61  and  C_62
REMARK                            x       y       z     vdW  Elec       q    Type
REMARK                         _______ _______ _______ _____ _____    ______ ____
ROOT
ATOM      1  C   UNL     1      45.754 -19.580 -36.836  0.00  0.00    +0.165 A 
ATOM      2  C   UNL     1      44.918 -20.051 -35.844  0.00  0.00    +0.026 A 
ATOM      3  C   UNL     1      44.676 -19.252 -34.734  0.00  0.00    +0.136 A 
ATOM      4  C   UNL     1      45.127 -17.924 -34.709  0.00  0.00    +0.082 A 
ATOM      5  C   UNL     1      45.812 -17.411 -35.835  0.00  0.00    -0.001 A 
ATOM      6  C   UNL     1      46.151 -18.243 -36.894  0.00  0.00    +0.163 A 
ENDROOT
BRANCH   4   7
ATOM      7  C   UNL     1      45.127 -17.052 -33.500  0.00  0.00    +0.248 C 
ATOM      8  O   UNL     1      45.629 -17.492 -32.470  0.00  0.00    -0.270 OA
ATOM      9  N   UNL     1      44.478 -15.845 -33.574  0.00  0.00    -0.311 N 
ATOM     10  H   UNL     1      44.208 -15.497 -34.454  0.00  0.00    +0.000 HD
BRANCH   9  11
ATOM     11  C   UNL     1      44.181 -15.069 -32.381  0.00  0.00    +0.012 C 
BRANCH  11  12
ATOM     12  C   UNL     1      43.954 -13.600 -32.737  0.00  0.00    -0.037 C 
BRANCH  12  13
ATOM     13  C   UNL     1      43.258 -13.427 -34.086  0.00  0.00    -0.051 C 
BRANCH  13  14
ATOM     14  C   UNL     1      41.815 -12.944 -33.893  0.00  0.00    -0.045 C 
BRANCH  14  15
ATOM     15  C   UNL     1      40.789 -13.888 -34.522  0.00  0.00    +0.025 C 
BRANCH  15  16
ATOM     16  C   UNL     1      40.913 -15.292 -33.964  0.00  0.00    +0.229 C 
ATOM     17  O   UNL     1      40.742 -15.532 -32.774  0.00  0.00    -0.274 OA
ATOM     18  N   UNL     1      41.170 -16.241 -34.941  0.00  0.00    -0.236 N 
ATOM     19  H   UNL     1      41.418 -15.968 -35.854  0.00  0.00    +0.000 HD
BRANCH  18  20
ATOM     20  N   UNL     1      41.068 -17.601 -34.599  0.00  0.00    -0.264 N 
ATOM     21  H   UNL     1      41.591 -18.033 -33.884  0.00  0.00    +0.000 HD
BRANCH  20  22
ATOM     22  C   UNL     1      40.116 -18.277 -35.415  0.00  0.00    +0.058 A 
ATOM     23  C   UNL     1      38.775 -18.413 -35.006  0.00  0.00    -0.003 A 
ATOM     24  C   UNL     1      37.911 -19.120 -35.850  0.00  0.00    +0.047 A 
ATOM     25  N   UNL     1      38.309 -19.714 -37.008  0.00  0.00    -0.251 NA
ATOM     26  C   UNL     1      39.578 -19.533 -37.411  0.00  0.00    +0.073 A 
ATOM     27  C   UNL     1      39.946 -20.018 -38.661  0.00  0.00    -0.036 A 
ATOM     28  C   UNL     1      41.250 -19.908 -39.151  0.00  0.00    -0.060 A 
ATOM     29  C   UNL     1      42.214 -19.281 -38.381  0.00  0.00    -0.061 A 
ATOM     30  C   UNL     1      41.860 -18.749 -37.142  0.00  0.00    -0.051 A 
ATOM     31  C   UNL     1      40.541 -18.859 -36.638  0.00  0.00    +0.023 A 
ATOM     32  C   UNL     1      36.451 -19.298 -35.503  0.00  0.00    -0.010 C 
ATOM     33  C   UNL     1      35.934 -18.262 -34.511  0.00  0.00    -0.047 C 
ATOM     34  C   UNL     1      36.872 -18.186 -33.317  0.00  0.00    -0.049 C 
ATOM     35  C   UNL     1      38.263 -17.733 -33.756  0.00  0.00    -0.024 C 
ENDBRANCH  20  22
ENDBRANCH  18  20
ENDBRANCH  15  16
ENDBRANCH  14  15
ENDBRANCH  13  14
ENDBRANCH  12  13
ENDBRANCH  11  12
ENDBRANCH   9  11
ENDBRANCH   4   7
BRANCH   1  36
ATOM     36  O   UNL     1      46.396 -20.530 -37.587  0.00  0.00    -0.490 OA
BRANCH  36  37
ATOM     37  C   UNL     1      45.662 -20.821 -38.765  0.00  0.00    +0.076 C 
BRANCH  37  38
ATOM     38  C   UNL     1      46.768 -20.615 -40.116  0.00  0.00    -0.053 C 
BRANCH  38  39
ATOM     39  N   UNL     1      46.511 -20.944 -41.024  0.00  0.00    +0.382 N 
BRANCH  39  41
ATOM     40  C   UNL     1      48.556 -22.141 -40.459  0.00  0.00    -0.080 C 
ATOM     41  C   UNL     1      46.931 -21.828 -40.824  0.00  0.00    -0.091 C 
ENDBRANCH  39  41
BRANCH  39  42
ATOM     42  C   UNL     1      46.253 -21.272 -41.933  0.00  0.00    -0.091 C 
ATOM     43  C   UNL     1      46.315 -22.909 -42.355  0.00  0.00    -0.080 C 
ENDBRANCH  39  42
BRANCH  39  44
ATOM     44  C   UNL     1      46.090 -20.059 -41.225  0.00  0.00    -0.091 C 
ATOM     45  C   UNL     1      44.407 -20.107 -41.632  0.00  0.00    -0.080 C 
ENDBRANCH  39  44
ENDBRANCH  38  39
ENDBRANCH  37  38
ENDBRANCH  36  37
ENDBRANCH   1  36
BRANCH   6  46
ATOM     46  O   UNL     1      46.880 -17.913 -37.991  0.00  0.00    -0.490 OA
BRANCH  46  47
ATOM     47  C   UNL     1      46.455 -16.882 -38.877  0.00  0.00    +0.076 C 
BRANCH  47  48
ATOM     48  C   UNL     1      45.093 -17.225 -39.553  0.00  0.00    -0.053 C 
BRANCH  48  49
ATOM     49  N   UNL     1      43.966 -15.750 -39.774  0.00  0.00    +0.382 N 
BRANCH  49  50
ATOM     50  C   UNL     1      43.669 -15.877 -38.828  0.00  0.00    -0.091 C 
ATOM     51  C   UNL     1      43.581 -15.018 -37.500  0.00  0.00    -0.080 C 
ENDBRANCH  49  50
BRANCH  49  52
ATOM     52  C   UNL     1      42.259 -16.174 -40.384  0.00  0.00    -0.091 C 
ATOM     53  C   UNL     1      41.387 -14.909 -40.455  0.00  0.00    -0.080 C 
ENDBRANCH  49  52
BRANCH  49  54
ATOM     54  C   UNL     1      44.263 -15.623 -40.720  0.00  0.00    -0.091 C 
ATOM     55  C   UNL     1      44.964 -14.469 -41.548  0.00  0.00    -0.080 C 
ENDBRANCH  49  54
ENDBRANCH  48  49
ENDBRANCH  47  48
ENDBRANCH  46  47
ENDBRANCH   6  46
BRANCH   3  56
ATOM     56  O   UNL     1      44.105 -19.876 -33.654  0.00  0.00    -0.493 OA
BRANCH  56  57
ATOM     57  C   UNL     1      42.968 -20.650 -34.085  0.00  0.00    +0.075 C 
BRANCH  57  58
ATOM     58  C   UNL     1      41.796 -20.577 -33.050  0.00  0.00    -0.053 C 
BRANCH  58  59
ATOM     59  N   UNL     1      40.564 -21.971 -33.319  0.00  0.00    +0.382 N 
BRANCH  59  60
ATOM     60  C   UNL     1      40.800 -22.321 -32.413  0.00  0.00    -0.091 C 
ATOM     61  C   UNL     1      40.970 -23.887 -32.388  0.00  0.00    -0.080 C 
ENDBRANCH  59  60
BRANCH  59  62
ATOM     62  C   UNL     1      39.013 -21.166 -32.635  0.00  0.00    -0.091 C 
ATOM     63  C   UNL     1      37.724 -21.909 -32.992  0.00  0.00    -0.080 C 
ENDBRANCH  59  62
BRANCH  59  64
ATOM     64  C   UNL     1      40.328 -21.622 -34.226  0.00  0.00    -0.091 C 
ATOM     65  C   UNL     1      40.346 -22.645 -35.411  0.00  0.00    -0.080 C 
ENDBRANCH  59  64
ENDBRANCH  58  59
ENDBRANCH  57  58
ENDBRANCH  56  57
ENDBRANCH   3  56
TORSDOF 30
ENDMDL
MODEL 11
REMARK VINA RESULT:    -6.232      2.007      6.515
REMARK INTER + INTRA:          -9.244
REMARK INTER:                 -14.287
REMARK INTRA:                   5.043
REMARK UNBOUND:                 5.003
REMARK  Name = cpd124.pdb
REMARK  39 active torsions:
REMARK  status: ('A' for Active; 'I' for Inactive)
REMARK    1  A    between atoms: C_1  and  C_2
REMARK    2  A    between atoms: C_2  and  N_3
REMARK    3  A    between atoms: N_3  and  C_4
REMARK    4  A    between atoms: N_3  and  C_6
REMARK    5  A    between atoms: N_3  and  C_8
REMARK    6  A    between atoms: C_4  and  C_5
REMARK    7  A    between atoms: C_6  and  C_7
REMARK    8  A    between atoms: C_8  and  C_9
REMARK    9  A    between atoms: C_9  and  O_10
REMARK   10  A    between atoms: O_10  and  C_11
REMARK   11  A    between atoms: C_13  and  O_14
REMARK   12  A    between atoms: O_14  and  C_15
REMARK   13  A    between atoms: C_15  and  C_16
REMARK   14  A    between atoms: C_16  and  N_17
REMARK   15  A    between atoms: N_17  and  C_18
REMARK   16  A    between atoms: N_17  and  C_20
REMARK   17  A    between atoms: N_17  and  C_22
REMARK   18  A    between atoms: C_18  and  C_19
REMARK   19  A    between atoms: C_20  and  C_21
REMARK   20  A    between atoms: C_22  and  C_23
REMARK   21  A    between atoms: C_24  and  C_25
REMARK   22  A    between atoms: N_27  and  C_28
REMARK   23  A    between atoms: C_28  and  C_29
REMARK   24  A    between atoms: C_29  and  C_30
REMARK   25  A    between atoms: C_30  and  C_31
REMARK   26  A    between atoms: C_31  and  C_32
REMARK   27  A    between atoms: C_32  and  C_33
REMARK   28  A    between atoms: N_35  and  N_36
REMARK   29  A    between atoms: N_36  and  C_37
REMARK   30  A    between atoms: C_52  and  O_53
REMARK   31  A    between atoms: O_53  and  C_54
REMARK   32  A    between atoms: C_54  and  C_55
REMARK   33  A    between atoms: C_55  and  N_56
REMARK   34  A    between atoms: N_56  and  C_57
REMARK   35  A    between atoms: N_56  and  C_59
REMARK   36  A    between atoms: N_56  and  C_61
REMARK   37  A    between atoms: C_57  and  C_58
REMARK   38  A    between atoms: C_59  and  C_60
REMARK   39  A    between atoms: C_61  and  C_62
REMARK                            x       y       z     vdW  Elec       q    Type
REMARK                         _______ _______ _______ _____ _____    ______ ____
ROOT
ATOM      1  C   UNL     1      46.086 -16.297 -36.512  0.00  0.00    +0.165 A 
ATOM      2  C   UNL     1      46.391 -17.586 -36.902  0.00  0.00    +0.026 A 
ATOM      3  C   UNL     1      45.765 -18.647 -36.262  0.00  0.00    +0.136 A 
ATOM      4  C   UNL     1      44.713 -18.409 -35.365  0.00  0.00    +0.082 A 
ATOM      5  C   UNL     1      44.291 -17.078 -35.141  0.00  0.00    -0.001 A 
ATOM      6  C   UNL     1      44.992 -16.014 -35.694  0.00  0.00    +0.163 A 
ENDROOT
BRANCH   4   7
ATOM      7  C   UNL     1      44.123 -19.435 -34.459  0.00  0.00    +0.248 C 
ATOM      8  O   UNL     1      44.859 -19.966 -33.633  0.00  0.00    -0.270 OA
ATOM      9  N   UNL     1      42.817 -19.803 -34.663  0.00  0.00    -0.311 N 
ATOM     10  H   UNL     1      42.249 -19.256 -35.252  0.00  0.00    +0.000 HD
BRANCH   9  11
ATOM     11  C   UNL     1      42.254 -20.984 -34.027  0.00  0.00    +0.012 C 
BRANCH  11  12
ATOM     12  C   UNL     1      40.978 -20.626 -33.264  0.00  0.00    -0.037 C 
BRANCH  12  13
ATOM     13  C   UNL     1      41.174 -19.435 -32.328  0.00  0.00    -0.051 C 
BRANCH  13  14
ATOM     14  C   UNL     1      39.886 -18.606 -32.230  0.00  0.00    -0.045 C 
BRANCH  14  15
ATOM     15  C   UNL     1      39.945 -17.327 -33.065  0.00  0.00    +0.025 C 
BRANCH  15  16
ATOM     16  C   UNL     1      39.536 -17.583 -34.502  0.00  0.00    +0.229 C 
ATOM     17  O   UNL     1      38.413 -17.977 -34.794  0.00  0.00    -0.274 OA
ATOM     18  N   UNL     1      40.532 -17.267 -35.413  0.00  0.00    -0.236 N 
ATOM     19  H   UNL     1      41.449 -17.075 -35.109  0.00  0.00    +0.000 HD
BRANCH  18  20
ATOM     20  N   UNL     1      40.205 -17.228 -36.780  0.00  0.00    -0.264 N 
ATOM     21  H   UNL     1      39.392 -16.806 -37.142  0.00  0.00    +0.000 HD
BRANCH  20  22
ATOM     22  C   UNL     1      41.194 -17.873 -37.575  0.00  0.00    +0.058 A 
ATOM     23  C   UNL     1      41.204 -19.273 -37.729  0.00  0.00    -0.003 A 
ATOM     24  C   UNL     1      42.231 -19.831 -38.500  0.00  0.00    +0.047 A 
ATOM     25  N   UNL     1      43.233 -19.101 -39.060  0.00  0.00    -0.251 NA
ATOM     26  C   UNL     1      43.183 -17.762 -38.947  0.00  0.00    +0.073 A 
ATOM     27  C   UNL     1      44.126 -17.010 -39.639  0.00  0.00    -0.036 A 
ATOM     28  C   UNL     1      44.175 -15.616 -39.556  0.00  0.00    -0.060 A 
ATOM     29  C   UNL     1      43.247 -14.949 -38.775  0.00  0.00    -0.061 A 
ATOM     30  C   UNL     1      42.267 -15.678 -38.105  0.00  0.00    -0.051 A 
ATOM     31  C   UNL     1      42.212 -17.091 -38.183  0.00  0.00    +0.023 A 
ATOM     32  C   UNL     1      42.308 -21.321 -38.736  0.00  0.00    -0.010 C 
ATOM     33  C   UNL     1      40.978 -22.036 -38.535  0.00  0.00    -0.047 C 
ATOM     34  C   UNL     1      40.378 -21.632 -37.198  0.00  0.00    -0.049 C 
ATOM     35  C   UNL     1      40.090 -20.131 -37.172  0.00  0.00    -0.024 C 
ENDBRANCH  20  22
ENDBRANCH  18  20
ENDBRANCH  15  16
ENDBRANCH  14  15
ENDBRANCH  13  14
ENDBRANCH  12  13
ENDBRANCH  11  12
ENDBRANCH   9  11
ENDBRANCH   4   7
BRANCH   1  36
ATOM     36  O   UNL     1      47.057 -15.355 -36.729  0.00  0.00    -0.490 OA
BRANCH  36  37
ATOM     37  C   UNL     1      47.689 -15.561 -37.981  0.00  0.00    +0.076 C 
BRANCH  37  38
ATOM     38  C   UNL     1      48.025 -13.970 -38.649  0.00  0.00    -0.053 C 
BRANCH  38  39
ATOM     39  N   UNL     1      48.308 -13.881 -39.604  0.00  0.00    +0.382 N 
BRANCH  39  41
ATOM     40  C   UNL     1      46.444 -12.317 -39.740  0.00  0.00    -0.080 C 
ATOM     41  C   UNL     1      47.356 -13.740 -39.873  0.00  0.00    -0.091 C 
ENDBRANCH  39  41
BRANCH  39  42
ATOM     42  C   UNL     1      48.592 -13.792 -40.559  0.00  0.00    -0.091 C 
ATOM     43  C   UNL     1      48.319 -15.009 -41.701  0.00  0.00    -0.080 C 
ENDBRANCH  39  42
BRANCH  39  44
ATOM     44  C   UNL     1      49.261 -14.023 -39.335  0.00  0.00    -0.091 C 
ATOM     45  C   UNL     1      50.128 -12.595 -38.879  0.00  0.00    -0.080 C 
ENDBRANCH  39  44
ENDBRANCH  38  39
ENDBRANCH  37  38
ENDBRANCH  36  37
ENDBRANCH   1  36
BRANCH   6  46
ATOM     46  O   UNL     1      44.759 -14.691 -35.492  0.00  0.00    -0.490 OA
BRANCH  46  47
ATOM     47  C   UNL     1      43.789 -14.247 -34.549  0.00  0.00    +0.076 C 
BRANCH  47  48
ATOM     48  C   UNL     1      44.295 -14.399 -33.083  0.00  0.00    -0.053 C 
BRANCH  48  49
ATOM     49  N   UNL     1      43.605 -13.118 -31.909  0.00  0.00    +0.382 N 
BRANCH  49  50
ATOM     50  C   UNL     1      44.371 -12.525 -32.160  0.00  0.00    -0.091 C 
ATOM     51  C   UNL     1      44.584 -11.072 -32.752  0.00  0.00    -0.080 C 
ENDBRANCH  49  50
BRANCH  49  52
ATOM     52  C   UNL     1      44.253 -13.246 -30.169  0.00  0.00    -0.091 C 
ATOM     53  C   UNL     1      43.594 -12.182 -29.274  0.00  0.00    -0.080 C 
ENDBRANCH  49  52
BRANCH  49  54
ATOM     54  C   UNL     1      42.840 -13.710 -31.659  0.00  0.00    -0.091 C 
ATOM     55  C   UNL     1      41.264 -13.661 -31.812  0.00  0.00    -0.080 C 
ENDBRANCH  49  54
ENDBRANCH  48  49
ENDBRANCH  47  48
ENDBRANCH  46  47
ENDBRANCH   6  46
BRANCH   3  56
ATOM     56  O   UNL     1      46.321 -19.886 -36.463  0.00  0.00    -0.493 OA
BRANCH  56  57
ATOM     57  C   UNL     1      46.856 -19.968 -37.799  0.00  0.00    +0.075 C 
BRANCH  57  58
ATOM     58  C   UNL     1      46.165 -21.103 -38.627  0.00  0.00    -0.053 C 
BRANCH  58  59
ATOM     59  N   UNL     1      46.659 -21.020 -40.438  0.00  0.00    +0.382 N 
BRANCH  59  60
ATOM     60  C   UNL     1      47.027 -21.946 -40.354  0.00  0.00    -0.091 C 
ATOM     61  C   UNL     1      48.526 -22.051 -40.826  0.00  0.00    -0.080 C 
ENDBRANCH  59  60
BRANCH  59  62
ATOM     62  C   UNL     1      45.093 -21.685 -41.229  0.00  0.00    -0.091 C 
ATOM     63  C   UNL     1      45.281 -22.143 -42.677  0.00  0.00    -0.080 C 
ENDBRANCH  59  62
BRANCH  59  64
ATOM     64  C   UNL     1      46.291 -20.094 -40.522  0.00  0.00    -0.091 C 
ATOM     65  C   UNL     1      47.142 -19.060 -41.333  0.00  0.00    -0.080 C 
ENDBRANCH  59  64
ENDBRANCH  58  59
ENDBRANCH  57  58
ENDBRANCH  56  57
ENDBRANCH   3  56
TORSDOF 30
ENDMDL
MODEL 12
REMARK VINA RESULT:    -6.221      2.212      5.597
REMARK INTER + INTRA:          -9.220
REMARK INTER:                 -13.839
REMARK INTRA:                   4.618
REMARK UNBOUND:                 5.003
REMARK  Name = cpd124.pdb
REMARK  39 active torsions:
REMARK  status: ('A' for Active; 'I' for Inactive)
REMARK    1  A    between atoms: C_1  and  C_2
REMARK    2  A    between atoms: C_2  and  N_3
REMARK    3  A    between atoms: N_3  and  C_4
REMARK    4  A    between atoms: N_3  and  C_6
REMARK    5  A    between atoms: N_3  and  C_8
REMARK    6  A    between atoms: C_4  and  C_5
REMARK    7  A    between atoms: C_6  and  C_7
REMARK    8  A    between atoms: C_8  and  C_9
REMARK    9  A    between atoms: C_9  and  O_10
REMARK   10  A    between atoms: O_10  and  C_11
REMARK   11  A    between atoms: C_13  and  O_14
REMARK   12  A    between atoms: O_14  and  C_15
REMARK   13  A    between atoms: C_15  and  C_16
REMARK   14  A    between atoms: C_16  and  N_17
REMARK   15  A    between atoms: N_17  and  C_18
REMARK   16  A    between atoms: N_17  and  C_20
REMARK   17  A    between atoms: N_17  and  C_22
REMARK   18  A    between atoms: C_18  and  C_19
REMARK   19  A    between atoms: C_20  and  C_21
REMARK   20  A    between atoms: C_22  and  C_23
REMARK   21  A    between atoms: C_24  and  C_25
REMARK   22  A    between atoms: N_27  and  C_28
REMARK   23  A    between atoms: C_28  and  C_29
REMARK   24  A    between atoms: C_29  and  C_30
REMARK   25  A    between atoms: C_30  and  C_31
REMARK   26  A    between atoms: C_31  and  C_32
REMARK   27  A    between atoms: C_32  and  C_33
REMARK   28  A    between atoms: N_35  and  N_36
REMARK   29  A    between atoms: N_36  and  C_37
REMARK   30  A    between atoms: C_52  and  O_53
REMARK   31  A    between atoms: O_53  and  C_54
REMARK   32  A    between atoms: C_54  and  C_55
REMARK   33  A    between atoms: C_55  and  N_56
REMARK   34  A    between atoms: N_56  and  C_57
REMARK   35  A    between atoms: N_56  and  C_59
REMARK   36  A    between atoms: N_56  and  C_61
REMARK   37  A    between atoms: C_57  and  C_58
REMARK   38  A    between atoms: C_59  and  C_60
REMARK   39  A    between atoms: C_61  and  C_62
REMARK                            x       y       z     vdW  Elec       q    Type
REMARK                         _______ _______ _______ _____ _____    ______ ____
ROOT
ATOM      1  C   UNL     1      40.735 -19.132 -36.693  0.00  0.00    +0.165 A 
ATOM      2  C   UNL     1      41.919 -19.735 -37.066  0.00  0.00    +0.026 A 
ATOM      3  C   UNL     1      42.789 -19.049 -37.903  0.00  0.00    +0.136 A 
ATOM      4  C   UNL     1      42.552 -17.702 -38.216  0.00  0.00    +0.082 A 
ATOM      5  C   UNL     1      41.429 -17.055 -37.651  0.00  0.00    -0.001 A 
ATOM      6  C   UNL     1      40.501 -17.773 -36.907  0.00  0.00    +0.163 A 
ENDROOT
BRANCH   4   7
ATOM      7  C   UNL     1      43.277 -16.936 -39.269  0.00  0.00    +0.248 C 
ATOM      8  O   UNL     1      44.386 -16.487 -38.995  0.00  0.00    -0.270 OA
ATOM      9  N   UNL     1      42.626 -16.687 -40.451  0.00  0.00    -0.311 N 
ATOM     10  H   UNL     1      41.797 -17.176 -40.657  0.00  0.00    +0.000 HD
BRANCH   9  11
ATOM     11  C   UNL     1      43.135 -15.716 -41.407  0.00  0.00    +0.012 C 
BRANCH  11  12
ATOM     12  C   UNL     1      42.497 -14.346 -41.173  0.00  0.00    -0.037 C 
BRANCH  12  13
ATOM     13  C   UNL     1      43.467 -13.352 -40.536  0.00  0.00    -0.051 C 
BRANCH  13  14
ATOM     14  C   UNL     1      42.807 -12.636 -39.351  0.00  0.00    -0.045 C 
BRANCH  14  15
ATOM     15  C   UNL     1      42.149 -13.607 -38.370  0.00  0.00    +0.025 C 
BRANCH  15  16
ATOM     16  C   UNL     1      42.799 -13.538 -37.002  0.00  0.00    +0.229 C 
ATOM     17  O   UNL     1      42.402 -12.766 -36.136  0.00  0.00    -0.274 OA
ATOM     18  N   UNL     1      43.815 -14.465 -36.839  0.00  0.00    -0.236 N 
ATOM     19  H   UNL     1      44.166 -14.968 -37.609  0.00  0.00    +0.000 HD
BRANCH  18  20
ATOM     20  N   UNL     1      44.335 -14.673 -35.548  0.00  0.00    -0.264 N 
ATOM     21  H   UNL     1      44.666 -13.953 -34.963  0.00  0.00    +0.000 HD
BRANCH  20  22
ATOM     22  C   UNL     1      44.322 -16.052 -35.194  0.00  0.00    +0.058 A 
ATOM     23  C   UNL     1      45.381 -16.906 -35.558  0.00  0.00    -0.003 A 
ATOM     24  C   UNL     1      45.276 -18.255 -35.201  0.00  0.00    +0.047 A 
ATOM     25  N   UNL     1      44.193 -18.783 -34.568  0.00  0.00    -0.251 NA
ATOM     26  C   UNL     1      43.214 -17.948 -34.181  0.00  0.00    +0.073 A 
ATOM     27  C   UNL     1      42.178 -18.464 -33.410  0.00  0.00    -0.036 A 
ATOM     28  C   UNL     1      41.099 -17.681 -32.990  0.00  0.00    -0.060 A 
ATOM     29  C   UNL     1      41.058 -16.341 -33.333  0.00  0.00    -0.061 A 
ATOM     30  C   UNL     1      42.105 -15.792 -34.069  0.00  0.00    -0.051 A 
ATOM     31  C   UNL     1      43.200 -16.578 -34.500  0.00  0.00    +0.023 A 
ATOM     32  C   UNL     1      46.373 -19.240 -35.532  0.00  0.00    -0.010 C 
ATOM     33  C   UNL     1      47.724 -18.579 -35.782  0.00  0.00    -0.047 C 
ATOM     34  C   UNL     1      47.561 -17.443 -36.779  0.00  0.00    -0.049 C 
ATOM     35  C   UNL     1      46.631 -16.368 -36.218  0.00  0.00    -0.024 C 
ENDBRANCH  20  22
ENDBRANCH  18  20
ENDBRANCH  15  16
ENDBRANCH  14  15
ENDBRANCH  13  14
ENDBRANCH  12  13
ENDBRANCH  11  12
ENDBRANCH   9  11
ENDBRANCH   4   7
BRANCH   1  36
ATOM     36  O   UNL     1      39.705 -19.973 -36.367  0.00  0.00    -0.490 OA
BRANCH  36  37
ATOM     37  C   UNL     1      40.197 -21.179 -35.807  0.00  0.00    +0.076 C 
BRANCH  37  38
ATOM     38  C   UNL     1      39.065 -21.655 -34.549  0.00  0.00    -0.053 C 
BRANCH  38  39
ATOM     39  N   UNL     1      39.407 -21.946 -33.656  0.00  0.00    +0.382 N 
BRANCH  39  41
ATOM     40  C   UNL     1      37.824 -20.332 -32.746  0.00  0.00    -0.080 C 
ATOM     41  C   UNL     1      39.269 -21.021 -33.301  0.00  0.00    -0.091 C 
ENDBRANCH  39  41
BRANCH  39  42
ATOM     42  C   UNL     1      39.750 -22.237 -32.762  0.00  0.00    -0.091 C 
ATOM     43  C   UNL     1      41.348 -21.976 -32.277  0.00  0.00    -0.080 C 
ENDBRANCH  39  42
BRANCH  39  44
ATOM     44  C   UNL     1      39.545 -22.871 -34.010  0.00  0.00    -0.091 C 
ATOM     45  C   UNL     1      38.209 -23.954 -33.813  0.00  0.00    -0.080 C 
ENDBRANCH  39  44
ENDBRANCH  38  39
ENDBRANCH  37  38
ENDBRANCH  36  37
ENDBRANCH   1  36
BRANCH   6  46
ATOM     46  O   UNL     1      39.338 -17.306 -36.383  0.00  0.00    -0.490 OA
BRANCH  46  47
ATOM     47  C   UNL     1      38.850 -16.008 -36.708  0.00  0.00    +0.076 C 
BRANCH  47  48
ATOM     48  C   UNL     1      37.499 -16.074 -37.481  0.00  0.00    -0.053 C 
BRANCH  48  49
ATOM     49  N   UNL     1      37.696 -16.202 -39.336  0.00  0.00    +0.382 N 
BRANCH  49  50
ATOM     50  C   UNL     1      37.834 -15.212 -39.356  0.00  0.00    -0.091 C 
ATOM     51  C   UNL     1      38.911 -14.188 -39.906  0.00  0.00    -0.080 C 
ENDBRANCH  49  50
BRANCH  49  52
ATOM     52  C   UNL     1      36.108 -16.015 -40.289  0.00  0.00    -0.091 C 
ATOM     53  C   UNL     1      36.359 -16.221 -41.793  0.00  0.00    -0.080 C 
ENDBRANCH  49  52
BRANCH  49  54
ATOM     54  C   UNL     1      37.557 -17.192 -39.316  0.00  0.00    -0.091 C 
ATOM     55  C   UNL     1      38.406 -18.468 -39.713  0.00  0.00    -0.080 C 
ENDBRANCH  49  54
ENDBRANCH  48  49
ENDBRANCH  47  48
ENDBRANCH  46  47
ENDBRANCH   6  46
BRANCH   3  56
ATOM     56  O   UNL     1      43.782 -19.796 -38.486  0.00  0.00    -0.493 OA
BRANCH  56  57
ATOM     57  C   UNL     1      43.240 -20.551 -39.587  0.00  0.00    +0.075 C 
BRANCH  57  58
ATOM     58  C   UNL     1      44.264 -21.607 -40.121  0.00  0.00    -0.053 C 
BRANCH  58  59
ATOM     59  N   UNL     1      45.345 -20.881 -41.477  0.00  0.00    +0.382 N 
BRANCH  59  60
ATOM     60  C   UNL     1      46.073 -20.767 -40.800  0.00  0.00    -0.091 C 
ATOM     61  C   UNL     1      46.602 -19.286 -40.718  0.00  0.00    -0.080 C 
ENDBRANCH  59  60
BRANCH  59  62
ATOM     62  C   UNL     1      46.152 -22.449 -42.118  0.00  0.00    -0.091 C 
ATOM     63  C   UNL     1      47.574 -22.668 -41.597  0.00  0.00    -0.080 C 
ENDBRANCH  59  62
BRANCH  59  64
ATOM     64  C   UNL     1      44.618 -20.996 -42.153  0.00  0.00    -0.091 C 
ATOM     65  C   UNL     1      44.240 -19.742 -43.012  0.00  0.00    -0.080 C 
ENDBRANCH  59  64
ENDBRANCH  58  59
ENDBRANCH  57  58
ENDBRANCH  56  57
ENDBRANCH   3  56
TORSDOF 30
ENDMDL
MODEL 13
REMARK VINA RESULT:    -6.208      2.183      6.941
REMARK INTER + INTRA:          -9.190
REMARK INTER:                 -14.509
REMARK INTRA:                   5.319
REMARK UNBOUND:                 5.003
REMARK  Name = cpd124.pdb
REMARK  39 active torsions:
REMARK  status: ('A' for Active; 'I' for Inactive)
REMARK    1  A    between atoms: C_1  and  C_2
REMARK    2  A    between atoms: C_2  and  N_3
REMARK    3  A    between atoms: N_3  and  C_4
REMARK    4  A    between atoms: N_3  and  C_6
REMARK    5  A    between atoms: N_3  and  C_8
REMARK    6  A    between atoms: C_4  and  C_5
REMARK    7  A    between atoms: C_6  and  C_7
REMARK    8  A    between atoms: C_8  and  C_9
REMARK    9  A    between atoms: C_9  and  O_10
REMARK   10  A    between atoms: O_10  and  C_11
REMARK   11  A    between atoms: C_13  and  O_14
REMARK   12  A    between atoms: O_14  and  C_15
REMARK   13  A    between atoms: C_15  and  C_16
REMARK   14  A    between atoms: C_16  and  N_17
REMARK   15  A    between atoms: N_17  and  C_18
REMARK   16  A    between atoms: N_17  and  C_20
REMARK   17  A    between atoms: N_17  and  C_22
REMARK   18  A    between atoms: C_18  and  C_19
REMARK   19  A    between atoms: C_20  and  C_21
REMARK   20  A    between atoms: C_22  and  C_23
REMARK   21  A    between atoms: C_24  and  C_25
REMARK   22  A    between atoms: N_27  and  C_28
REMARK   23  A    between atoms: C_28  and  C_29
REMARK   24  A    between atoms: C_29  and  C_30
REMARK   25  A    between atoms: C_30  and  C_31
REMARK   26  A    between atoms: C_31  and  C_32
REMARK   27  A    between atoms: C_32  and  C_33
REMARK   28  A    between atoms: N_35  and  N_36
REMARK   29  A    between atoms: N_36  and  C_37
REMARK   30  A    between atoms: C_52  and  O_53
REMARK   31  A    between atoms: O_53  and  C_54
REMARK   32  A    between atoms: C_54  and  C_55
REMARK   33  A    between atoms: C_55  and  N_56
REMARK   34  A    between atoms: N_56  and  C_57
REMARK   35  A    between atoms: N_56  and  C_59
REMARK   36  A    between atoms: N_56  and  C_61
REMARK   37  A    between atoms: C_57  and  C_58
REMARK   38  A    between atoms: C_59  and  C_60
REMARK   39  A    between atoms: C_61  and  C_62
REMARK                            x       y       z     vdW  Elec       q    Type
REMARK                         _______ _______ _______ _____ _____    ______ ____
ROOT
ATOM      1  C   UNL     1      43.927 -20.552 -37.280  0.00  0.00    +0.165 A 
ATOM      2  C   UNL     1      45.168 -20.098 -36.881  0.00  0.00    +0.026 A 
ATOM      3  C   UNL     1      45.276 -19.402 -35.685  0.00  0.00    +0.136 A 
ATOM      4  C   UNL     1      44.178 -19.319 -34.815  0.00  0.00    +0.082 A 
ATOM      5  C   UNL     1      42.973 -19.971 -35.167  0.00  0.00    -0.001 A 
ATOM      6  C   UNL     1      42.834 -20.569 -36.413  0.00  0.00    +0.163 A 
ENDROOT
BRANCH   4   7
ATOM      7  C   UNL     1      44.103 -18.422 -33.627  0.00  0.00    +0.248 C 
ATOM      8  O   UNL     1      44.642 -18.792 -32.589  0.00  0.00    -0.270 OA
ATOM      9  N   UNL     1      43.351 -17.278 -33.728  0.00  0.00    -0.311 N 
ATOM     10  H   UNL     1      43.051 -16.975 -34.615  0.00  0.00    +0.000 HD
BRANCH   9  11
ATOM     11  C   UNL     1      42.988 -16.503 -32.552  0.00  0.00    +0.012 C 
BRANCH  11  12
ATOM     12  C   UNL     1      41.551 -15.994 -32.666  0.00  0.00    -0.037 C 
BRANCH  12  13
ATOM     13  C   UNL     1      40.528 -17.128 -32.655  0.00  0.00    -0.051 C 
BRANCH  13  14
ATOM     14  C   UNL     1      39.247 -16.694 -31.930  0.00  0.00    -0.045 C 
BRANCH  14  15
ATOM     15  C   UNL     1      38.017 -16.727 -32.839  0.00  0.00    +0.025 C 
BRANCH  15  16
ATOM     16  C   UNL     1      38.117 -15.696 -33.945  0.00  0.00    +0.229 C 
ATOM     17  O   UNL     1      38.500 -14.551 -33.729  0.00  0.00    -0.274 OA
ATOM     18  N   UNL     1      37.795 -16.207 -35.192  0.00  0.00    -0.236 N 
ATOM     19  H   UNL     1      37.378 -17.095 -35.279  0.00  0.00    +0.000 HD
BRANCH  18  20
ATOM     20  N   UNL     1      38.077 -15.430 -36.330  0.00  0.00    -0.264 N 
ATOM     21  H   UNL     1      37.949 -14.455 -36.380  0.00  0.00    +0.000 HD
BRANCH  20  22
ATOM     22  C   UNL     1      38.571 -16.230 -37.400  0.00  0.00    +0.058 A 
ATOM     23  C   UNL     1      37.708 -16.725 -38.396  0.00  0.00    -0.003 A 
ATOM     24  C   UNL     1      38.268 -17.531 -39.395  0.00  0.00    +0.047 A 
ATOM     25  N   UNL     1      39.580 -17.891 -39.423  0.00  0.00    -0.251 NA
ATOM     26  C   UNL     1      40.402 -17.370 -38.496  0.00  0.00    +0.073 A 
ATOM     27  C   UNL     1      41.764 -17.623 -38.609  0.00  0.00    -0.036 A 
ATOM     28  C   UNL     1      42.691 -17.152 -37.676  0.00  0.00    -0.060 A 
ATOM     29  C   UNL     1      42.252 -16.392 -36.605  0.00  0.00    -0.061 A 
ATOM     30  C   UNL     1      40.897 -16.090 -36.493  0.00  0.00    -0.051 A 
ATOM     31  C   UNL     1      39.951 -16.565 -37.434  0.00  0.00    +0.023 A 
ATOM     32  C   UNL     1      37.422 -18.089 -40.514  0.00  0.00    -0.010 C 
ATOM     33  C   UNL     1      36.129 -17.315 -40.740  0.00  0.00    -0.047 C 
ATOM     34  C   UNL     1      35.402 -17.137 -39.417  0.00  0.00    -0.049 C 
ATOM     35  C   UNL     1      36.252 -16.319 -38.445  0.00  0.00    -0.024 C 
ENDBRANCH  20  22
ENDBRANCH  18  20
ENDBRANCH  15  16
ENDBRANCH  14  15
ENDBRANCH  13  14
ENDBRANCH  12  13
ENDBRANCH  11  12
ENDBRANCH   9  11
ENDBRANCH   4   7
BRANCH   1  36
ATOM     36  O   UNL     1      43.749 -20.717 -38.629  0.00  0.00    -0.490 OA
BRANCH  36  37
ATOM     37  C   UNL     1      44.816 -20.126 -39.353  0.00  0.00    +0.076 C 
BRANCH  37  38
ATOM     38  C   UNL     1      45.497 -21.386 -40.373  0.00  0.00    -0.053 C 
BRANCH  38  39
ATOM     39  N   UNL     1      46.233 -21.165 -41.012  0.00  0.00    +0.382 N 
BRANCH  39  41
ATOM     40  C   UNL     1      47.886 -22.822 -40.334  0.00  0.00    -0.080 C 
ATOM     41  C   UNL     1      46.909 -21.438 -40.328  0.00  0.00    -0.091 C 
ENDBRANCH  39  41
BRANCH  39  42
ATOM     42  C   UNL     1      46.970 -20.944 -41.652  0.00  0.00    -0.091 C 
ATOM     43  C   UNL     1      47.584 -19.377 -41.817  0.00  0.00    -0.080 C 
ENDBRANCH  39  42
BRANCH  39  44
ATOM     44  C   UNL     1      45.557 -20.892 -41.696  0.00  0.00    -0.091 C 
ATOM     45  C   UNL     1      45.013 -22.151 -42.753  0.00  0.00    -0.080 C 
ENDBRANCH  39  44
ENDBRANCH  38  39
ENDBRANCH  37  38
ENDBRANCH  36  37
ENDBRANCH   1  36
BRANCH   6  46
ATOM     46  O   UNL     1      41.715 -21.148 -36.920  0.00  0.00    -0.490 OA
BRANCH  46  47
ATOM     47  C   UNL     1      41.326 -22.463 -36.537  0.00  0.00    +0.076 C 
BRANCH  47  48
ATOM     48  C   UNL     1      39.819 -22.530 -36.143  0.00  0.00    -0.053 C 
BRANCH  48  49
ATOM     49  N   UNL     1      39.425 -21.693 -34.518  0.00  0.00    +0.382 N 
BRANCH  49  50
ATOM     50  C   UNL     1      39.946 -22.413 -34.059  0.00  0.00    -0.091 C 
ATOM     51  C   UNL     1      40.986 -22.533 -32.871  0.00  0.00    -0.080 C 
ENDBRANCH  49  50
BRANCH  49  52
ATOM     52  C   UNL     1      37.858 -22.288 -33.710  0.00  0.00    -0.091 C 
ATOM     53  C   UNL     1      37.288 -21.202 -32.783  0.00  0.00    -0.080 C 
ENDBRANCH  49  52
BRANCH  49  54
ATOM     54  C   UNL     1      38.905 -20.973 -34.977  0.00  0.00    -0.091 C 
ATOM     55  C   UNL     1      39.158 -19.460 -35.372  0.00  0.00    -0.080 C 
ENDBRANCH  49  54
ENDBRANCH  48  49
ENDBRANCH  47  48
ENDBRANCH  46  47
ENDBRANCH   6  46
BRANCH   3  56
ATOM     56  O   UNL     1      46.447 -18.715 -35.489  0.00  0.00    -0.493 OA
BRANCH  56  57
ATOM     57  C   UNL     1      46.702 -17.857 -36.618  0.00  0.00    +0.075 C 
BRANCH  57  58
ATOM     58  C   UNL     1      46.048 -16.447 -36.430  0.00  0.00    -0.053 C 
BRANCH  58  59
ATOM     59  N   UNL     1      46.372 -15.343 -37.916  0.00  0.00    +0.382 N 
BRANCH  59  60
ATOM     60  C   UNL     1      45.783 -15.942 -38.458  0.00  0.00    -0.091 C 
ATOM     61  C   UNL     1      46.382 -16.263 -39.879  0.00  0.00    -0.080 C 
ENDBRANCH  59  60
BRANCH  59  62
ATOM     62  C   UNL     1      44.973 -14.109 -37.711  0.00  0.00    -0.091 C 
ATOM     63  C   UNL     1      44.914 -13.055 -38.818  0.00  0.00    -0.080 C 
ENDBRANCH  59  62
BRANCH  59  64
ATOM     64  C   UNL     1      46.962 -14.743 -37.375  0.00  0.00    -0.091 C 
ATOM     65  C   UNL     1      48.379 -14.423 -37.956  0.00  0.00    -0.080 C 
ENDBRANCH  59  64
ENDBRANCH  58  59
ENDBRANCH  57  58
ENDBRANCH  56  57
ENDBRANCH   3  56
TORSDOF 30
ENDMDL
MODEL 14
REMARK VINA RESULT:    -6.151      2.314      7.376
REMARK INTER + INTRA:          -9.060
REMARK INTER:                 -14.529
REMARK INTRA:                   5.469
REMARK UNBOUND:                 5.003
REMARK  Name = cpd124.pdb
REMARK  39 active torsions:
REMARK  status: ('A' for Active; 'I' for Inactive)
REMARK    1  A    between atoms: C_1  and  C_2
REMARK    2  A    between atoms: C_2  and  N_3
REMARK    3  A    between atoms: N_3  and  C_4
REMARK    4  A    between atoms: N_3  and  C_6
REMARK    5  A    between atoms: N_3  and  C_8
REMARK    6  A    between atoms: C_4  and  C_5
REMARK    7  A    between atoms: C_6  and  C_7
REMARK    8  A    between atoms: C_8  and  C_9
REMARK    9  A    between atoms: C_9  and  O_10
REMARK   10  A    between atoms: O_10  and  C_11
REMARK   11  A    between atoms: C_13  and  O_14
REMARK   12  A    between atoms: O_14  and  C_15
REMARK   13  A    between atoms: C_15  and  C_16
REMARK   14  A    between atoms: C_16  and  N_17
REMARK   15  A    between atoms: N_17  and  C_18
REMARK   16  A    between atoms: N_17  and  C_20
REMARK   17  A    between atoms: N_17  and  C_22
REMARK   18  A    between atoms: C_18  and  C_19
REMARK   19  A    between atoms: C_20  and  C_21
REMARK   20  A    between atoms: C_22  and  C_23
REMARK   21  A    between atoms: C_24  and  C_25
REMARK   22  A    between atoms: N_27  and  C_28
REMARK   23  A    between atoms: C_28  and  C_29
REMARK   24  A    between atoms: C_29  and  C_30
REMARK   25  A    between atoms: C_30  and  C_31
REMARK   26  A    between atoms: C_31  and  C_32
REMARK   27  A    between atoms: C_32  and  C_33
REMARK   28  A    between atoms: N_35  and  N_36
REMARK   29  A    between atoms: N_36  and  C_37
REMARK   30  A    between atoms: C_52  and  O_53
REMARK   31  A    between atoms: O_53  and  C_54
REMARK   32  A    between atoms: C_54  and  C_55
REMARK   33  A    between atoms: C_55  and  N_56
REMARK   34  A    between atoms: N_56  and  C_57
REMARK   35  A    between atoms: N_56  and  C_59
REMARK   36  A    between atoms: N_56  and  C_61
REMARK   37  A    between atoms: C_57  and  C_58
REMARK   38  A    between atoms: C_59  and  C_60
REMARK   39  A    between atoms: C_61  and  C_62
REMARK                            x       y       z     vdW  Elec       q    Type
REMARK                         _______ _______ _______ _____ _____    ______ ____
ROOT
ATOM      1  C   UNL     1      42.533 -20.175 -37.396  0.00  0.00    +0.165 A 
ATOM      2  C   UNL     1      42.963 -18.869 -37.278  0.00  0.00    +0.026 A 
ATOM      3  C   UNL     1      42.057 -17.896 -36.878  0.00  0.00    +0.136 A 
ATOM      4  C   UNL     1      40.779 -18.264 -36.432  0.00  0.00    +0.082 A 
ATOM      5  C   UNL     1      40.440 -19.635 -36.376  0.00  0.00    -0.001 A 
ATOM      6  C   UNL     1      41.306 -20.597 -36.883  0.00  0.00    +0.163 A 
ENDROOT
BRANCH   4   7
ATOM      7  C   UNL     1      39.657 -17.311 -36.196  0.00  0.00    +0.248 C 
ATOM      8  O   UNL     1      38.510 -17.720 -36.351  0.00  0.00    -0.270 OA
ATOM      9  N   UNL     1      39.967 -16.004 -35.917  0.00  0.00    -0.311 N 
ATOM     10  H   UNL     1      40.893 -15.768 -35.683  0.00  0.00    +0.000 HD
BRANCH   9  11
ATOM     11  C   UNL     1      38.956 -14.959 -35.959  0.00  0.00    +0.012 C 
BRANCH  11  12
ATOM     12  C   UNL     1      39.576 -13.627 -36.383  0.00  0.00    -0.037 C 
BRANCH  12  13
ATOM     13  C   UNL     1      39.907 -12.732 -35.190  0.00  0.00    -0.051 C 
BRANCH  13  14
ATOM     14  C   UNL     1      41.278 -12.069 -35.375  0.00  0.00    -0.045 C 
BRANCH  14  15
ATOM     15  C   UNL     1      42.370 -13.071 -35.750  0.00  0.00    +0.025 C 
BRANCH  15  16
ATOM     16  C   UNL     1      43.060 -13.626 -34.520  0.00  0.00    +0.229 C 
ATOM     17  O   UNL     1      43.411 -12.903 -33.594  0.00  0.00    -0.274 OA
ATOM     18  N   UNL     1      43.183 -15.006 -34.545  0.00  0.00    -0.236 N 
ATOM     19  H   UNL     1      42.995 -15.513 -35.368  0.00  0.00    +0.000 HD
BRANCH  18  20
ATOM     20  N   UNL     1      43.581 -15.667 -33.369  0.00  0.00    -0.264 N 
ATOM     21  H   UNL     1      44.073 -15.236 -32.632  0.00  0.00    +0.000 HD
BRANCH  20  22
ATOM     22  C   UNL     1      43.185 -17.034 -33.376  0.00  0.00    +0.058 A 
ATOM     23  C   UNL     1      41.904 -17.422 -32.937  0.00  0.00    -0.003 A 
ATOM     24  C   UNL     1      41.605 -18.790 -32.945  0.00  0.00    +0.047 A 
ATOM     25  N   UNL     1      42.497 -19.753 -33.305  0.00  0.00    -0.251 NA
ATOM     26  C   UNL     1      43.697 -19.366 -33.770  0.00  0.00    +0.073 A 
ATOM     27  C   UNL     1      44.552 -20.340 -34.272  0.00  0.00    -0.036 A 
ATOM     28  C   UNL     1      45.832 -20.038 -34.744  0.00  0.00    -0.060 A 
ATOM     29  C   UNL     1      46.269 -18.725 -34.733  0.00  0.00    -0.061 A 
ATOM     30  C   UNL     1      45.414 -17.725 -34.273  0.00  0.00    -0.051 A 
ATOM     31  C   UNL     1      44.116 -18.023 -33.791  0.00  0.00    +0.023 A 
ATOM     32  C   UNL     1      40.250 -19.296 -32.511  0.00  0.00    -0.010 C 
ATOM     33  C   UNL     1      39.157 -18.236 -32.582  0.00  0.00    -0.047 C 
ATOM     34  C   UNL     1      39.624 -16.973 -31.876  0.00  0.00    -0.049 C 
ATOM     35  C   UNL     1      40.856 -16.395 -32.572  0.00  0.00    -0.024 C 
ENDBRANCH  20  22
ENDBRANCH  18  20
ENDBRANCH  15  16
ENDBRANCH  14  15
ENDBRANCH  13  14
ENDBRANCH  12  13
ENDBRANCH  11  12
ENDBRANCH   9  11
ENDBRANCH   4   7
BRANCH   1  36
ATOM     36  O   UNL     1      43.227 -20.963 -38.277  0.00  0.00    -0.490 OA
BRANCH  36  37
ATOM     37  C   UNL     1      43.511 -20.253 -39.471  0.00  0.00    +0.076 C 
BRANCH  37  38
ATOM     38  C   UNL     1      45.221 -20.483 -39.804  0.00  0.00    -0.053 C 
BRANCH  38  39
ATOM     39  N   UNL     1      45.524 -20.685 -40.736  0.00  0.00    +0.382 N 
BRANCH  39  41
ATOM     40  C   UNL     1      46.538 -18.471 -40.845  0.00  0.00    -0.080 C 
ATOM     41  C   UNL     1      45.404 -19.723 -40.983  0.00  0.00    -0.091 C 
ENDBRANCH  39  41
BRANCH  39  42
ATOM     42  C   UNL     1      45.827 -20.887 -41.667  0.00  0.00    -0.091 C 
ATOM     43  C   UNL     1      44.820 -21.628 -42.805  0.00  0.00    -0.080 C 
ENDBRANCH  39  42
BRANCH  39  44
ATOM     44  C   UNL     1      45.644 -21.646 -40.488  0.00  0.00    -0.091 C 
ATOM     45  C   UNL     1      47.200 -22.066 -39.855  0.00  0.00    -0.080 C 
ENDBRANCH  39  44
ENDBRANCH  38  39
ENDBRANCH  37  38
ENDBRANCH  36  37
ENDBRANCH   1  36
BRANCH   6  46
ATOM     46  O   UNL     1      41.077 -21.932 -36.979  0.00  0.00    -0.490 OA
BRANCH  46  47
ATOM     47  C   UNL     1      40.882 -22.733 -35.818  0.00  0.00    +0.076 C 
BRANCH  47  48
ATOM     48  C   UNL     1      39.371 -23.014 -35.556  0.00  0.00    -0.053 C 
BRANCH  48  49
ATOM     49  N   UNL     1      38.966 -23.354 -33.762  0.00  0.00    +0.382 N 
BRANCH  49  50
ATOM     50  C   UNL     1      38.196 -23.908 -34.076  0.00  0.00    -0.091 C 
ATOM     51  C   UNL     1      37.442 -25.229 -33.632  0.00  0.00    -0.080 C 
ENDBRANCH  49  50
BRANCH  49  52
ATOM     52  C   UNL     1      37.793 -22.128 -32.996  0.00  0.00    -0.091 C 
ATOM     53  C   UNL     1      37.319 -21.112 -34.048  0.00  0.00    -0.080 C 
ENDBRANCH  49  52
BRANCH  49  54
ATOM     54  C   UNL     1      39.737 -22.799 -33.448  0.00  0.00    -0.091 C 
ATOM     55  C   UNL     1      40.902 -22.965 -32.388  0.00  0.00    -0.080 C 
ENDBRANCH  49  54
ENDBRANCH  48  49
ENDBRANCH  47  48
ENDBRANCH  46  47
ENDBRANCH   6  46
BRANCH   3  56
ATOM     56  O   UNL     1      42.443 -16.594 -37.075  0.00  0.00    -0.493 OA
BRANCH  56  57
ATOM     57  C   UNL     1      43.840 -16.549 -37.427  0.00  0.00    +0.075 C 
BRANCH  57  58
ATOM     58  C   UNL     1      44.102 -15.569 -38.619  0.00  0.00    -0.053 C 
BRANCH  58  59
ATOM     59  N   UNL     1      45.723 -14.644 -38.396  0.00  0.00    +0.382 N 
BRANCH  59  60
ATOM     60  C   UNL     1      46.187 -15.396 -38.865  0.00  0.00    -0.091 C 
ATOM     61  C   UNL     1      47.337 -16.037 -38.000  0.00  0.00    -0.080 C 
ENDBRANCH  59  60
BRANCH  59  62
ATOM     62  C   UNL     1      45.729 -13.622 -39.970  0.00  0.00    -0.091 C 
ATOM     63  C   UNL     1      46.470 -14.287 -41.132  0.00  0.00    -0.080 C 
ENDBRANCH  59  62
BRANCH  59  64
ATOM     64  C   UNL     1      45.259 -13.893 -37.927  0.00  0.00    -0.091 C 
ATOM     65  C   UNL     1      45.979 -13.279 -36.680  0.00  0.00    -0.080 C 
ENDBRANCH  59  64
ENDBRANCH  58  59
ENDBRANCH  57  58
ENDBRANCH  56  57
ENDBRANCH   3  56
TORSDOF 30
ENDMDL
MODEL 15
REMARK VINA RESULT:    -6.132      2.200      7.425
REMARK INTER + INTRA:          -9.016
REMARK INTER:                 -13.582
REMARK INTRA:                   4.566
REMARK UNBOUND:                 5.003
REMARK  Name = cpd124.pdb
REMARK  39 active torsions:
REMARK  status: ('A' for Active; 'I' for Inactive)
REMARK    1  A    between atoms: C_1  and  C_2
REMARK    2  A    between atoms: C_2  and  N_3
REMARK    3  A    between atoms: N_3  and  C_4
REMARK    4  A    between atoms: N_3  and  C_6
REMARK    5  A    between atoms: N_3  and  C_8
REMARK    6  A    between atoms: C_4  and  C_5
REMARK    7  A    between atoms: C_6  and  C_7
REMARK    8  A    between atoms: C_8  and  C_9
REMARK    9  A    between atoms: C_9  and  O_10
REMARK   10  A    between atoms: O_10  and  C_11
REMARK   11  A    between atoms: C_13  and  O_14
REMARK   12  A    between atoms: O_14  and  C_15
REMARK   13  A    between atoms: C_15  and  C_16
REMARK   14  A    between atoms: C_16  and  N_17
REMARK   15  A    between atoms: N_17  and  C_18
REMARK   16  A    between atoms: N_17  and  C_20
REMARK   17  A    between atoms: N_17  and  C_22
REMARK   18  A    between atoms: C_18  and  C_19
REMARK   19  A    between atoms: C_20  and  C_21
REMARK   20  A    between atoms: C_22  and  C_23
REMARK   21  A    between atoms: C_24  and  C_25
REMARK   22  A    between atoms: N_27  and  C_28
REMARK   23  A    between atoms: C_28  and  C_29
REMARK   24  A    between atoms: C_29  and  C_30
REMARK   25  A    between atoms: C_30  and  C_31
REMARK   26  A    between atoms: C_31  and  C_32
REMARK   27  A    between atoms: C_32  and  C_33
REMARK   28  A    between atoms: N_35  and  N_36
REMARK   29  A    between atoms: N_36  and  C_37
REMARK   30  A    between atoms: C_52  and  O_53
REMARK   31  A    between atoms: O_53  and  C_54
REMARK   32  A    between atoms: C_54  and  C_55
REMARK   33  A    between atoms: C_55  and  N_56
REMARK   34  A    between atoms: N_56  and  C_57
REMARK   35  A    between atoms: N_56  and  C_59
REMARK   36  A    between atoms: N_56  and  C_61
REMARK   37  A    between atoms: C_57  and  C_58
REMARK   38  A    between atoms: C_59  and  C_60
REMARK   39  A    between atoms: C_61  and  C_62
REMARK                            x       y       z     vdW  Elec       q    Type
REMARK                         _______ _______ _______ _____ _____    ______ ____
ROOT
ATOM      1  C   UNL     1      42.918 -15.895 -35.305  0.00  0.00    +0.165 A 
ATOM      2  C   UNL     1      41.805 -16.492 -35.862  0.00  0.00    +0.026 A 
ATOM      3  C   UNL     1      41.081 -17.403 -35.104  0.00  0.00    +0.136 A 
ATOM      4  C   UNL     1      41.370 -17.575 -33.742  0.00  0.00    +0.082 A 
ATOM      5  C   UNL     1      42.392 -16.795 -33.154  0.00  0.00    -0.001 A 
ATOM      6  C   UNL     1      43.188 -15.969 -33.938  0.00  0.00    +0.163 A 
ENDROOT
BRANCH   4   7
ATOM      7  C   UNL     1      40.823 -18.670 -32.892  0.00  0.00    +0.248 C 
ATOM      8  O   UNL     1      40.646 -18.440 -31.699  0.00  0.00    -0.270 OA
ATOM      9  N   UNL     1      40.641 -19.904 -33.463  0.00  0.00    -0.311 N 
ATOM     10  H   UNL     1      40.680 -19.991 -34.443  0.00  0.00    +0.000 HD
BRANCH   9  11
ATOM     11  C   UNL     1      40.391 -21.086 -32.654  0.00  0.00    +0.012 C 
BRANCH  11  12
ATOM     12  C   UNL     1      39.266 -21.925 -33.260  0.00  0.00    -0.037 C 
BRANCH  12  13
ATOM     13  C   UNL     1      39.783 -23.193 -33.936  0.00  0.00    -0.051 C 
BRANCH  13  14
ATOM     14  C   UNL     1      40.415 -22.863 -35.295  0.00  0.00    -0.045 C 
BRANCH  14  15
ATOM     15  C   UNL     1      39.403 -22.299 -36.292  0.00  0.00    +0.025 C 
BRANCH  15  16
ATOM     16  C   UNL     1      40.063 -21.357 -37.280  0.00  0.00    +0.229 C 
ATOM     17  O   UNL     1      39.501 -21.004 -38.311  0.00  0.00    -0.274 OA
ATOM     18  N   UNL     1      41.306 -20.915 -36.857  0.00  0.00    -0.236 N 
ATOM     19  H   UNL     1      41.752 -21.331 -36.084  0.00  0.00    +0.000 HD
BRANCH  18  20
ATOM     20  N   UNL     1      41.917 -19.858 -37.556  0.00  0.00    -0.264 N 
ATOM     21  H   UNL     1      41.458 -19.025 -37.810  0.00  0.00    +0.000 HD
BRANCH  20  22
ATOM     22  C   UNL     1      43.281 -20.144 -37.852  0.00  0.00    +0.058 A 
ATOM     23  C   UNL     1      44.286 -19.968 -36.882  0.00  0.00    -0.003 A 
ATOM     24  C   UNL     1      45.606 -20.239 -37.263  0.00  0.00    +0.047 A 
ATOM     25  N   UNL     1      45.964 -20.615 -38.521  0.00  0.00    -0.251 NA
ATOM     26  C   UNL     1      44.989 -20.828 -39.422  0.00  0.00    +0.073 A 
ATOM     27  C   UNL     1      45.343 -21.349 -40.661  0.00  0.00    -0.036 A 
ATOM     28  C   UNL     1      44.405 -21.572 -41.673  0.00  0.00    -0.060 A 
ATOM     29  C   UNL     1      43.071 -21.285 -41.438  0.00  0.00    -0.061 A 
ATOM     30  C   UNL     1      42.686 -20.802 -40.189  0.00  0.00    -0.051 A 
ATOM     31  C   UNL     1      43.631 -20.571 -39.160  0.00  0.00    +0.023 A 
ATOM     32  C   UNL     1      46.747 -20.098 -36.283  0.00  0.00    -0.010 C 
ATOM     33  C   UNL     1      46.305 -20.158 -34.826  0.00  0.00    -0.047 C 
ATOM     34  C   UNL     1      45.148 -19.197 -34.603  0.00  0.00    -0.049 C 
ATOM     35  C   UNL     1      43.945 -19.601 -35.455  0.00  0.00    -0.024 C 
ENDBRANCH  20  22
ENDBRANCH  18  20
ENDBRANCH  15  16
ENDBRANCH  14  15
ENDBRANCH  13  14
ENDBRANCH  12  13
ENDBRANCH  11  12
ENDBRANCH   9  11
ENDBRANCH   4   7
BRANCH   1  36
ATOM     36  O   UNL     1      43.881 -15.473 -36.183  0.00  0.00    -0.490 OA
BRANCH  36  37
ATOM     37  C   UNL     1      43.529 -15.807 -37.516  0.00  0.00    +0.076 C 
BRANCH  37  38
ATOM     38  C   UNL     1      44.991 -15.660 -38.480  0.00  0.00    -0.053 C 
BRANCH  38  39
ATOM     39  N   UNL     1      45.009 -16.018 -39.414  0.00  0.00    +0.382 N 
BRANCH  39  41
ATOM     40  C   UNL     1      47.035 -17.106 -38.607  0.00  0.00    -0.080 C 
ATOM     41  C   UNL     1      45.427 -16.864 -39.082  0.00  0.00    -0.091 C 
ENDBRANCH  39  41
BRANCH  39  42
ATOM     42  C   UNL     1      45.027 -16.375 -40.348  0.00  0.00    -0.091 C 
ATOM     43  C   UNL     1      43.784 -17.335 -40.974  0.00  0.00    -0.080 C 
ENDBRANCH  39  42
BRANCH  39  44
ATOM     44  C   UNL     1      44.592 -15.172 -39.746  0.00  0.00    -0.091 C 
ATOM     45  C   UNL     1      45.683 -14.027 -40.451  0.00  0.00    -0.080 C 
ENDBRANCH  39  44
ENDBRANCH  38  39
ENDBRANCH  37  38
ENDBRANCH  36  37
ENDBRANCH   1  36
BRANCH   6  46
ATOM     46  O   UNL     1      44.256 -15.236 -33.528  0.00  0.00    -0.490 OA
BRANCH  46  47
ATOM     47  C   UNL     1      44.120 -13.860 -33.188  0.00  0.00    +0.076 C 
BRANCH  47  48
ATOM     48  C   UNL     1      44.216 -13.632 -31.650  0.00  0.00    -0.053 C 
BRANCH  48  49
ATOM     49  N   UNL     1      42.951 -12.426 -30.985  0.00  0.00    +0.382 N 
BRANCH  49  50
ATOM     50  C   UNL     1      43.629 -11.701 -31.104  0.00  0.00    -0.091 C 
ATOM     51  C   UNL     1      43.705 -10.263 -31.764  0.00  0.00    -0.080 C 
ENDBRANCH  49  50
BRANCH  49  52
ATOM     52  C   UNL     1      43.007 -12.197 -29.138  0.00  0.00    -0.091 C 
ATOM     53  C   UNL     1      41.839 -11.312 -28.673  0.00  0.00    -0.080 C 
ENDBRANCH  49  52
BRANCH  49  54
ATOM     54  C   UNL     1      42.273 -13.151 -30.865  0.00  0.00    -0.091 C 
ATOM     55  C   UNL     1      40.878 -13.524 -31.516  0.00  0.00    -0.080 C 
ENDBRANCH  49  54
ENDBRANCH  48  49
ENDBRANCH  47  48
ENDBRANCH  46  47
ENDBRANCH   6  46
BRANCH   3  56
ATOM     56  O   UNL     1      40.190 -18.187 -35.793  0.00  0.00    -0.493 OA
BRANCH  56  57
ATOM     57  C   UNL     1      38.909 -17.530 -35.852  0.00  0.00    +0.075 C 
BRANCH  57  58
ATOM     58  C   UNL     1      38.129 -17.905 -37.157  0.00  0.00    -0.053 C 
BRANCH  58  59
ATOM     59  N   UNL     1      38.579 -16.752 -38.572  0.00  0.00    +0.382 N 
BRANCH  59  60
ATOM     60  C   UNL     1      39.093 -17.503 -38.986  0.00  0.00    -0.091 C 
ATOM     61  C   UNL     1      40.566 -17.095 -39.370  0.00  0.00    -0.080 C 
ENDBRANCH  59  60
BRANCH  59  62
ATOM     62  C   UNL     1      37.131 -17.074 -39.721  0.00  0.00    -0.091 C 
ATOM     63  C   UNL     1      37.217 -16.316 -41.047  0.00  0.00    -0.080 C 
ENDBRANCH  59  62
BRANCH  59  64
ATOM     64  C   UNL     1      38.065 -16.001 -38.158  0.00  0.00    -0.091 C 
ATOM     65  C   UNL     1      38.772 -14.607 -38.089  0.00  0.00    -0.080 C 
ENDBRANCH  59  64
ENDBRANCH  58  59
ENDBRANCH  57  58
ENDBRANCH  56  57
ENDBRANCH   3  56
TORSDOF 30
ENDMDL
MODEL 16
REMARK VINA RESULT:    -6.085      2.049      7.953
REMARK INTER + INTRA:          -8.908
REMARK INTER:                 -14.735
REMARK INTRA:                   5.827
REMARK UNBOUND:                 5.003
REMARK  Name = cpd124.pdb
REMARK  39 active torsions:
REMARK  status: ('A' for Active; 'I' for Inactive)
REMARK    1  A    between atoms: C_1  and  C_2
REMARK    2  A    between atoms: C_2  and  N_3
REMARK    3  A    between atoms: N_3  and  C_4
REMARK    4  A    between atoms: N_3  and  C_6
REMARK    5  A    between atoms: N_3  and  C_8
REMARK    6  A    between atoms: C_4  and  C_5
REMARK    7  A    between atoms: C_6  and  C_7
REMARK    8  A    between atoms: C_8  and  C_9
REMARK    9  A    between atoms: C_9  and  O_10
REMARK   10  A    between atoms: O_10  and  C_11
REMARK   11  A    between atoms: C_13  and  O_14
REMARK   12  A    between atoms: O_14  and  C_15
REMARK   13  A    between atoms: C_15  and  C_16
REMARK   14  A    between atoms: C_16  and  N_17
REMARK   15  A    between atoms: N_17  and  C_18
REMARK   16  A    between atoms: N_17  and  C_20
REMARK   17  A    between atoms: N_17  and  C_22
REMARK   18  A    between atoms: C_18  and  C_19
REMARK   19  A    between atoms: C_20  and  C_21
REMARK   20  A    between atoms: C_22  and  C_23
REMARK   21  A    between atoms: C_24  and  C_25
REMARK   22  A    between atoms: N_27  and  C_28
REMARK   23  A    between atoms: C_28  and  C_29
REMARK   24  A    between atoms: C_29  and  C_30
REMARK   25  A    between atoms: C_30  and  C_31
REMARK   26  A    between atoms: C_31  and  C_32
REMARK   27  A    between atoms: C_32  and  C_33
REMARK   28  A    between atoms: N_35  and  N_36
REMARK   29  A    between atoms: N_36  and  C_37
REMARK   30  A    between atoms: C_52  and  O_53
REMARK   31  A    between atoms: O_53  and  C_54
REMARK   32  A    between atoms: C_54  and  C_55
REMARK   33  A    between atoms: C_55  and  N_56
REMARK   34  A    between atoms: N_56  and  C_57
REMARK   35  A    between atoms: N_56  and  C_59
REMARK   36  A    between atoms: N_56  and  C_61
REMARK   37  A    between atoms: C_57  and  C_58
REMARK   38  A    between atoms: C_59  and  C_60
REMARK   39  A    between atoms: C_61  and  C_62
REMARK                            x       y       z     vdW  Elec       q    Type
REMARK                         _______ _______ _______ _____ _____    ______ ____
ROOT
ATOM      1  C   UNL     1      43.284 -20.551 -38.145  0.00  0.00    +0.165 A 
ATOM      2  C   UNL     1      42.281 -21.473 -37.925  0.00  0.00    +0.026 A 
ATOM      3  C   UNL     1      40.965 -21.106 -38.170  0.00  0.00    +0.136 A 
ATOM      4  C   UNL     1      40.678 -19.886 -38.800  0.00  0.00    +0.082 A 
ATOM      5  C   UNL     1      41.748 -19.050 -39.195  0.00  0.00    -0.001 A 
ATOM      6  C   UNL     1      43.055 -19.366 -38.847  0.00  0.00    +0.163 A 
ENDROOT
BRANCH   4   7
ATOM      7  C   UNL     1      39.317 -19.288 -38.910  0.00  0.00    +0.248 C 
ATOM      8  O   UNL     1      38.708 -19.431 -39.966  0.00  0.00    -0.270 OA
ATOM      9  N   UNL     1      38.859 -18.525 -37.865  0.00  0.00    -0.311 N 
ATOM     10  H   UNL     1      39.336 -18.553 -37.004  0.00  0.00    +0.000 HD
BRANCH   9  11
ATOM     11  C   UNL     1      37.686 -17.678 -38.002  0.00  0.00    +0.012 C 
BRANCH  11  12
ATOM     12  C   UNL     1      38.096 -16.214 -38.169  0.00  0.00    -0.037 C 
BRANCH  12  13
ATOM     13  C   UNL     1      38.108 -15.775 -39.632  0.00  0.00    -0.051 C 
BRANCH  13  14
ATOM     14  C   UNL     1      39.514 -15.918 -40.228  0.00  0.00    -0.045 C 
BRANCH  14  15
ATOM     15  C   UNL     1      40.383 -14.682 -39.988  0.00  0.00    +0.025 C 
BRANCH  15  16
ATOM     16  C   UNL     1      41.769 -15.064 -39.508  0.00  0.00    +0.229 C 
ATOM     17  O   UNL     1      42.780 -14.707 -40.103  0.00  0.00    -0.274 OA
ATOM     18  N   UNL     1      41.753 -15.786 -38.325  0.00  0.00    -0.236 N 
ATOM     19  H   UNL     1      40.909 -16.145 -37.967  0.00  0.00    +0.000 HD
BRANCH  18  20
ATOM     20  N   UNL     1      42.968 -15.993 -37.648  0.00  0.00    -0.264 N 
ATOM     21  H   UNL     1      43.771 -16.385 -38.060  0.00  0.00    +0.000 HD
BRANCH  20  22
ATOM     22  C   UNL     1      42.891 -15.565 -36.291  0.00  0.00    +0.058 A 
ATOM     23  C   UNL     1      43.475 -14.352 -35.878  0.00  0.00    -0.003 A 
ATOM     24  C   UNL     1      43.384 -14.021 -34.521  0.00  0.00    +0.047 A 
ATOM     25  N   UNL     1      42.807 -14.825 -33.587  0.00  0.00    -0.251 NA
ATOM     26  C   UNL     1      42.209 -15.954 -34.004  0.00  0.00    +0.073 A 
ATOM     27  C   UNL     1      41.497 -16.702 -33.072  0.00  0.00    -0.036 A 
ATOM     28  C   UNL     1      40.871 -17.907 -33.404  0.00  0.00    -0.060 A 
ATOM     29  C   UNL     1      40.941 -18.373 -34.705  0.00  0.00    -0.061 A 
ATOM     30  C   UNL     1      41.613 -17.621 -35.665  0.00  0.00    -0.051 A 
ATOM     31  C   UNL     1      42.252 -16.400 -35.337  0.00  0.00    +0.023 A 
ATOM     32  C   UNL     1      43.964 -12.730 -33.991  0.00  0.00    -0.010 C 
ATOM     33  C   UNL     1      44.155 -11.666 -35.065  0.00  0.00    -0.047 C 
ATOM     34  C   UNL     1      44.899 -12.263 -36.249  0.00  0.00    -0.049 C 
ATOM     35  C   UNL     1      44.086 -13.394 -36.876  0.00  0.00    -0.024 C 
ENDBRANCH  20  22
ENDBRANCH  18  20
ENDBRANCH  15  16
ENDBRANCH  14  15
ENDBRANCH  13  14
ENDBRANCH  12  13
ENDBRANCH  11  12
ENDBRANCH   9  11
ENDBRANCH   4   7
BRANCH   1  36
ATOM     36  O   UNL     1      44.428 -20.714 -37.409  0.00  0.00    -0.490 OA
BRANCH  36  37
ATOM     37  C   UNL     1      44.376 -19.944 -36.219  0.00  0.00    +0.076 C 
BRANCH  37  38
ATOM     38  C   UNL     1      45.923 -19.123 -36.077  0.00  0.00    -0.053 C 
BRANCH  38  39
ATOM     39  N   UNL     1      46.062 -18.444 -35.356  0.00  0.00    +0.382 N 
BRANCH  39  41
ATOM     40  C   UNL     1      48.233 -19.404 -34.802  0.00  0.00    -0.080 C 
ATOM     41  C   UNL     1      46.562 -19.121 -34.816  0.00  0.00    -0.091 C 
ENDBRANCH  39  41
BRANCH  39  42
ATOM     42  C   UNL     1      46.202 -17.766 -34.635  0.00  0.00    -0.091 C 
ATOM     43  C   UNL     1      45.173 -17.642 -33.298  0.00  0.00    -0.080 C 
ENDBRANCH  39  42
BRANCH  39  44
ATOM     44  C   UNL     1      45.562 -17.768 -35.897  0.00  0.00    -0.091 C 
ATOM     45  C   UNL     1      46.530 -16.786 -36.945  0.00  0.00    -0.080 C 
ENDBRANCH  39  44
ENDBRANCH  38  39
ENDBRANCH  37  38
ENDBRANCH  36  37
ENDBRANCH   1  36
BRANCH   6  46
ATOM     46  O   UNL     1      44.165 -18.618 -39.078  0.00  0.00    -0.490 OA
BRANCH  46  47
ATOM     47  C   UNL     1      44.536 -18.236 -40.398  0.00  0.00    +0.076 C 
BRANCH  47  48
ATOM     48  C   UNL     1      45.965 -18.737 -40.766  0.00  0.00    -0.053 C 
BRANCH  48  49
ATOM     49  N   UNL     1      46.086 -20.591 -40.971  0.00  0.00    +0.382 N 
BRANCH  49  50
ATOM     50  C   UNL     1      46.714 -20.603 -40.193  0.00  0.00    -0.091 C 
ATOM     51  C   UNL     1      46.987 -21.505 -38.920  0.00  0.00    -0.080 C 
ENDBRANCH  49  50
BRANCH  49  52
ATOM     52  C   UNL     1      47.455 -21.149 -42.103  0.00  0.00    -0.091 C 
ATOM     53  C   UNL     1      47.465 -22.683 -42.215  0.00  0.00    -0.080 C 
ENDBRANCH  49  52
BRANCH  49  54
ATOM     54  C   UNL     1      45.459 -20.579 -41.750  0.00  0.00    -0.091 C 
ATOM     55  C   UNL     1      44.089 -21.283 -42.119  0.00  0.00    -0.080 C 
ENDBRANCH  49  54
ENDBRANCH  48  49
ENDBRANCH  47  48
ENDBRANCH  46  47
ENDBRANCH   6  46
BRANCH   3  56
ATOM     56  O   UNL     1      40.001 -21.932 -37.650  0.00  0.00    -0.493 OA
BRANCH  56  57
ATOM     57  C   UNL     1      40.282 -22.193 -36.261  0.00  0.00    +0.075 C 
BRANCH  57  58
ATOM     58  C   UNL     1      39.446 -21.263 -35.319  0.00  0.00    -0.053 C 
BRANCH  58  59
ATOM     59  N   UNL     1      39.148 -22.077 -33.651  0.00  0.00    +0.382 N 
BRANCH  59  60
ATOM     60  C   UNL     1      39.347 -22.960 -34.074  0.00  0.00    -0.091 C 
ATOM     61  C   UNL     1      38.221 -24.030 -33.810  0.00  0.00    -0.080 C 
ENDBRANCH  59  60
BRANCH  59  62
ATOM     62  C   UNL     1      40.882 -21.997 -32.940  0.00  0.00    -0.091 C 
ATOM     63  C   UNL     1      41.094 -22.908 -31.730  0.00  0.00    -0.080 C 
ENDBRANCH  59  62
BRANCH  59  64
ATOM     64  C   UNL     1      38.949 -21.193 -33.227  0.00  0.00    -0.091 C 
ATOM     65  C   UNL     1      37.494 -20.969 -32.696  0.00  0.00    -0.080 C 
ENDBRANCH  59  64
ENDBRANCH  58  59
ENDBRANCH  57  58
ENDBRANCH  56  57
ENDBRANCH   3  56
TORSDOF 30
ENDMDL
MODEL 17
REMARK VINA RESULT:    -6.077      2.431      7.966
REMARK INTER + INTRA:          -8.890
REMARK INTER:                 -13.503
REMARK INTRA:                   4.613
REMARK UNBOUND:                 5.003
REMARK  Name = cpd124.pdb
REMARK  39 active torsions:
REMARK  status: ('A' for Active; 'I' for Inactive)
REMARK    1  A    between atoms: C_1  and  C_2
REMARK    2  A    between atoms: C_2  and  N_3
REMARK    3  A    between atoms: N_3  and  C_4
REMARK    4  A    between atoms: N_3  and  C_6
REMARK    5  A    between atoms: N_3  and  C_8
REMARK    6  A    between atoms: C_4  and  C_5
REMARK    7  A    between atoms: C_6  and  C_7
REMARK    8  A    between atoms: C_8  and  C_9
REMARK    9  A    between atoms: C_9  and  O_10
REMARK   10  A    between atoms: O_10  and  C_11
REMARK   11  A    between atoms: C_13  and  O_14
REMARK   12  A    between atoms: O_14  and  C_15
REMARK   13  A    between atoms: C_15  and  C_16
REMARK   14  A    between atoms: C_16  and  N_17
REMARK   15  A    between atoms: N_17  and  C_18
REMARK   16  A    between atoms: N_17  and  C_20
REMARK   17  A    between atoms: N_17  and  C_22
REMARK   18  A    between atoms: C_18  and  C_19
REMARK   19  A    between atoms: C_20  and  C_21
REMARK   20  A    between atoms: C_22  and  C_23
REMARK   21  A    between atoms: C_24  and  C_25
REMARK   22  A    between atoms: N_27  and  C_28
REMARK   23  A    between atoms: C_28  and  C_29
REMARK   24  A    between atoms: C_29  and  C_30
REMARK   25  A    between atoms: C_30  and  C_31
REMARK   26  A    between atoms: C_31  and  C_32
REMARK   27  A    between atoms: C_32  and  C_33
REMARK   28  A    between atoms: N_35  and  N_36
REMARK   29  A    between atoms: N_36  and  C_37
REMARK   30  A    between atoms: C_52  and  O_53
REMARK   31  A    between atoms: O_53  and  C_54
REMARK   32  A    between atoms: C_54  and  C_55
REMARK   33  A    between atoms: C_55  and  N_56
REMARK   34  A    between atoms: N_56  and  C_57
REMARK   35  A    between atoms: N_56  and  C_59
REMARK   36  A    between atoms: N_56  and  C_61
REMARK   37  A    between atoms: C_57  and  C_58
REMARK   38  A    between atoms: C_59  and  C_60
REMARK   39  A    between atoms: C_61  and  C_62
REMARK                            x       y       z     vdW  Elec       q    Type
REMARK                         _______ _______ _______ _____ _____    ______ ____
ROOT
ATOM      1  C   UNL     1      43.155 -15.940 -35.221  0.00  0.00    +0.165 A 
ATOM      2  C   UNL     1      42.160 -16.644 -35.870  0.00  0.00    +0.026 A 
ATOM      3  C   UNL     1      41.507 -17.664 -35.193  0.00  0.00    +0.136 A 
ATOM      4  C   UNL     1      41.729 -17.856 -33.821  0.00  0.00    +0.082 A 
ATOM      5  C   UNL     1      42.610 -16.984 -33.141  0.00  0.00    -0.001 A 
ATOM      6  C   UNL     1      43.346 -16.037 -33.842  0.00  0.00    +0.163 A 
ENDROOT
BRANCH   4   7
ATOM      7  C   UNL     1      41.268 -19.042 -33.045  0.00  0.00    +0.248 C 
ATOM      8  O   UNL     1      41.095 -18.910 -31.837  0.00  0.00    -0.270 OA
ATOM      9  N   UNL     1      41.158 -20.242 -33.702  0.00  0.00    -0.311 N 
ATOM     10  H   UNL     1      41.188 -20.257 -34.686  0.00  0.00    +0.000 HD
BRANCH   9  11
ATOM     11  C   UNL     1      40.999 -21.492 -32.976  0.00  0.00    +0.012 C 
BRANCH  11  12
ATOM     12  C   UNL     1      39.519 -21.854 -32.848  0.00  0.00    -0.037 C 
BRANCH  12  13
ATOM     13  C   UNL     1      39.118 -23.005 -33.770  0.00  0.00    -0.051 C 
BRANCH  13  14
ATOM     14  C   UNL     1      38.775 -22.481 -35.170  0.00  0.00    -0.045 C 
BRANCH  14  15
ATOM     15  C   UNL     1      39.768 -22.951 -36.234  0.00  0.00    +0.025 C 
BRANCH  15  16
ATOM     16  C   UNL     1      40.174 -21.817 -37.154  0.00  0.00    +0.229 C 
ATOM     17  O   UNL     1      39.355 -21.224 -37.848  0.00  0.00    -0.274 OA
ATOM     18  N   UNL     1      41.521 -21.507 -37.068  0.00  0.00    -0.236 N 
ATOM     19  H   UNL     1      42.144 -22.099 -36.588  0.00  0.00    +0.000 HD
BRANCH  18  20
ATOM     20  N   UNL     1      41.979 -20.327 -37.681  0.00  0.00    -0.264 N 
ATOM     21  H   UNL     1      41.422 -19.528 -37.829  0.00  0.00    +0.000 HD
BRANCH  20  22
ATOM     22  C   UNL     1      43.348 -20.431 -38.061  0.00  0.00    +0.058 A 
ATOM     23  C   UNL     1      43.713 -20.755 -39.381  0.00  0.00    -0.003 A 
ATOM     24  C   UNL     1      45.079 -20.871 -39.665  0.00  0.00    +0.047 A 
ATOM     25  N   UNL     1      46.056 -20.733 -38.727  0.00  0.00    -0.251 NA
ATOM     26  C   UNL     1      45.696 -20.373 -37.483  0.00  0.00    +0.073 A 
ATOM     27  C   UNL     1      46.701 -20.093 -36.564  0.00  0.00    -0.036 A 
ATOM     28  C   UNL     1      46.425 -19.745 -35.239  0.00  0.00    -0.060 A 
ATOM     29  C   UNL     1      45.109 -19.656 -34.820  0.00  0.00    -0.061 A 
ATOM     30  C   UNL     1      44.084 -19.891 -35.733  0.00  0.00    -0.051 A 
ATOM     31  C   UNL     1      44.355 -20.247 -37.077  0.00  0.00    +0.023 A 
ATOM     32  C   UNL     1      45.564 -21.196 -41.058  0.00  0.00    -0.010 C 
ATOM     33  C   UNL     1      44.545 -20.873 -42.144  0.00  0.00    -0.047 C 
ATOM     34  C   UNL     1      43.199 -21.478 -41.778  0.00  0.00    -0.049 C 
ATOM     35  C   UNL     1      42.676 -20.872 -40.476  0.00  0.00    -0.024 C 
ENDBRANCH  20  22
ENDBRANCH  18  20
ENDBRANCH  15  16
ENDBRANCH  14  15
ENDBRANCH  13  14
ENDBRANCH  12  13
ENDBRANCH  11  12
ENDBRANCH   9  11
ENDBRANCH   4   7
BRANCH   1  36
ATOM     36  O   UNL     1      44.112 -15.371 -36.019  0.00  0.00    -0.490 OA
BRANCH  36  37
ATOM     37  C   UNL     1      44.838 -16.366 -36.721  0.00  0.00    +0.076 C 
BRANCH  37  38
ATOM     38  C   UNL     1      44.896 -15.860 -38.404  0.00  0.00    -0.053 C 
BRANCH  38  39
ATOM     39  N   UNL     1      44.379 -16.367 -39.094  0.00  0.00    +0.382 N 
BRANCH  39  41
ATOM     40  C   UNL     1      46.377 -17.399 -40.032  0.00  0.00    -0.080 C 
ATOM     41  C   UNL     1      45.036 -17.118 -39.035  0.00  0.00    -0.091 C 
ENDBRANCH  39  41
BRANCH  39  42
ATOM     42  C   UNL     1      43.862 -16.873 -39.784  0.00  0.00    -0.091 C 
ATOM     43  C   UNL     1      42.215 -17.215 -39.610  0.00  0.00    -0.080 C 
ENDBRANCH  39  42
BRANCH  39  44
ATOM     44  C   UNL     1      43.722 -15.615 -39.152  0.00  0.00    -0.091 C 
ATOM     45  C   UNL     1      44.261 -14.217 -40.020  0.00  0.00    -0.080 C 
ENDBRANCH  39  44
ENDBRANCH  38  39
ENDBRANCH  37  38
ENDBRANCH  36  37
ENDBRANCH   1  36
BRANCH   6  46
ATOM     46  O   UNL     1      44.289 -15.199 -33.338  0.00  0.00    -0.490 OA
BRANCH  46  47
ATOM     47  C   UNL     1      44.265 -14.797 -31.973  0.00  0.00    +0.076 C 
BRANCH  47  48
ATOM     48  C   UNL     1      43.256 -13.634 -31.730  0.00  0.00    -0.053 C 
BRANCH  48  49
ATOM     49  N   UNL     1      43.930 -11.946 -32.167  0.00  0.00    +0.382 N 
BRANCH  49  50
ATOM     50  C   UNL     1      44.449 -11.968 -31.313  0.00  0.00    -0.091 C 
ATOM     51  C   UNL     1      45.925 -11.661 -30.828  0.00  0.00    -0.080 C 
ENDBRANCH  49  50
BRANCH  49  52
ATOM     52  C   UNL     1      42.910 -10.525 -31.530  0.00  0.00    -0.091 C 
ATOM     53  C   UNL     1      43.435  -9.194 -32.095  0.00  0.00    -0.080 C 
ENDBRANCH  49  52
BRANCH  49  54
ATOM     54  C   UNL     1      43.411 -11.923 -33.022  0.00  0.00    -0.091 C 
ATOM     55  C   UNL     1      43.758 -11.980 -34.566  0.00  0.00    -0.080 C 
ENDBRANCH  49  54
ENDBRANCH  48  49
ENDBRANCH  47  48
ENDBRANCH  46  47
ENDBRANCH   6  46
BRANCH   3  56
ATOM     56  O   UNL     1      40.763 -18.521 -35.964  0.00  0.00    -0.493 OA
BRANCH  56  57
ATOM     57  C   UNL     1      39.436 -17.988 -36.141  0.00  0.00    +0.075 C 
BRANCH  57  58
ATOM     58  C   UNL     1      38.355 -18.897 -35.467  0.00  0.00    -0.053 C 
BRANCH  58  59
ATOM     59  N   UNL     1      37.248 -17.901 -34.320  0.00  0.00    +0.382 N 
BRANCH  59  60
ATOM     60  C   UNL     1      36.617 -17.769 -35.084  0.00  0.00    -0.091 C 
ATOM     61  C   UNL     1      36.199 -16.262 -35.277  0.00  0.00    -0.080 C 
ENDBRANCH  59  60
BRANCH  59  62
ATOM     62  C   UNL     1      36.173 -19.278 -33.635  0.00  0.00    -0.091 C 
ATOM     63  C   UNL     1      35.007 -18.781 -32.778  0.00  0.00    -0.080 C 
ENDBRANCH  59  62
BRANCH  59  64
ATOM     64  C   UNL     1      37.879 -18.033 -33.555  0.00  0.00    -0.091 C 
ATOM     65  C   UNL     1      38.322 -16.754 -32.769  0.00  0.00    -0.080 C 
ENDBRANCH  59  64
ENDBRANCH  58  59
ENDBRANCH  57  58
ENDBRANCH  56  57
ENDBRANCH   3  56
TORSDOF 30
ENDMDL
MODEL 18
REMARK VINA RESULT:    -6.032      2.503      7.960
REMARK INTER + INTRA:          -8.787
REMARK INTER:                 -15.184
REMARK INTRA:                   6.397
REMARK UNBOUND:                 5.003
REMARK  Name = cpd124.pdb
REMARK  39 active torsions:
REMARK  status: ('A' for Active; 'I' for Inactive)
REMARK    1  A    between atoms: C_1  and  C_2
REMARK    2  A    between atoms: C_2  and  N_3
REMARK    3  A    between atoms: N_3  and  C_4
REMARK    4  A    between atoms: N_3  and  C_6
REMARK    5  A    between atoms: N_3  and  C_8
REMARK    6  A    between atoms: C_4  and  C_5
REMARK    7  A    between atoms: C_6  and  C_7
REMARK    8  A    between atoms: C_8  and  C_9
REMARK    9  A    between atoms: C_9  and  O_10
REMARK   10  A    between atoms: O_10  and  C_11
REMARK   11  A    between atoms: C_13  and  O_14
REMARK   12  A    between atoms: O_14  and  C_15
REMARK   13  A    between atoms: C_15  and  C_16
REMARK   14  A    between atoms: C_16  and  N_17
REMARK   15  A    between atoms: N_17  and  C_18
REMARK   16  A    between atoms: N_17  and  C_20
REMARK   17  A    between atoms: N_17  and  C_22
REMARK   18  A    between atoms: C_18  and  C_19
REMARK   19  A    between atoms: C_20  and  C_21
REMARK   20  A    between atoms: C_22  and  C_23
REMARK   21  A    between atoms: C_24  and  C_25
REMARK   22  A    between atoms: N_27  and  C_28
REMARK   23  A    between atoms: C_28  and  C_29
REMARK   24  A    between atoms: C_29  and  C_30
REMARK   25  A    between atoms: C_30  and  C_31
REMARK   26  A    between atoms: C_31  and  C_32
REMARK   27  A    between atoms: C_32  and  C_33
REMARK   28  A    between atoms: N_35  and  N_36
REMARK   29  A    between atoms: N_36  and  C_37
REMARK   30  A    between atoms: C_52  and  O_53
REMARK   31  A    between atoms: O_53  and  C_54
REMARK   32  A    between atoms: C_54  and  C_55
REMARK   33  A    between atoms: C_55  and  N_56
REMARK   34  A    between atoms: N_56  and  C_57
REMARK   35  A    between atoms: N_56  and  C_59
REMARK   36  A    between atoms: N_56  and  C_61
REMARK   37  A    between atoms: C_57  and  C_58
REMARK   38  A    between atoms: C_59  and  C_60
REMARK   39  A    between atoms: C_61  and  C_62
REMARK                            x       y       z     vdW  Elec       q    Type
REMARK                         _______ _______ _______ _____ _____    ______ ____
ROOT
ATOM      1  C   UNL     1      46.211 -17.184 -40.766  0.00  0.00    +0.165 A 
ATOM      2  C   UNL     1      44.958 -17.723 -40.548  0.00  0.00    +0.026 A 
ATOM      3  C   UNL     1      43.948 -16.902 -40.066  0.00  0.00    +0.136 A 
ATOM      4  C   UNL     1      44.148 -15.517 -39.972  0.00  0.00    +0.082 A 
ATOM      5  C   UNL     1      45.383 -14.973 -40.395  0.00  0.00    -0.001 A 
ATOM      6  C   UNL     1      46.430 -15.806 -40.770  0.00  0.00    +0.163 A 
ENDROOT
BRANCH   4   7
ATOM      7  C   UNL     1      43.235 -14.574 -39.267  0.00  0.00    +0.248 C 
ATOM      8  O   UNL     1      43.726 -13.787 -38.463  0.00  0.00    -0.270 OA
ATOM      9  N   UNL     1      41.885 -14.703 -39.477  0.00  0.00    -0.311 N 
ATOM     10  H   UNL     1      41.565 -15.262 -40.221  0.00  0.00    +0.000 HD
BRANCH   9  11
ATOM     11  C   UNL     1      40.917 -14.031 -38.625  0.00  0.00    +0.012 C 
BRANCH  11  12
ATOM     12  C   UNL     1      39.762 -14.971 -38.278  0.00  0.00    -0.037 C 
BRANCH  12  13
ATOM     13  C   UNL     1      39.276 -14.793 -36.841  0.00  0.00    -0.051 C 
BRANCH  13  14
ATOM     14  C   UNL     1      37.829 -15.279 -36.695  0.00  0.00    -0.045 C 
BRANCH  14  15
ATOM     15  C   UNL     1      37.344 -16.059 -37.917  0.00  0.00    +0.025 C 
BRANCH  15  16
ATOM     16  C   UNL     1      37.062 -17.509 -37.574  0.00  0.00    +0.229 C 
ATOM     17  O   UNL     1      35.940 -17.893 -37.263  0.00  0.00    -0.274 OA
ATOM     18  N   UNL     1      38.174 -18.324 -37.712  0.00  0.00    -0.236 N 
ATOM     19  H   UNL     1      39.069 -17.935 -37.843  0.00  0.00    +0.000 HD
BRANCH  18  20
ATOM     20  N   UNL     1      37.997 -19.718 -37.661  0.00  0.00    -0.264 N 
ATOM     21  H   UNL     1      37.202 -20.187 -38.004  0.00  0.00    +0.000 HD
BRANCH  20  22
ATOM     22  C   UNL     1      39.109 -20.366 -37.052  0.00  0.00    +0.058 A 
ATOM     23  C   UNL     1      39.178 -20.533 -35.656  0.00  0.00    -0.003 A 
ATOM     24  C   UNL     1      40.321 -21.150 -35.134  0.00  0.00    +0.047 A 
ATOM     25  N   UNL     1      41.375 -21.549 -35.897  0.00  0.00    -0.251 NA
ATOM     26  C   UNL     1      41.274 -21.430 -37.232  0.00  0.00    +0.073 A 
ATOM     27  C   UNL     1      42.287 -21.967 -38.017  0.00  0.00    -0.036 A 
ATOM     28  C   UNL     1      42.287 -21.863 -39.411  0.00  0.00    -0.060 A 
ATOM     29  C   UNL     1      41.237 -21.219 -40.043  0.00  0.00    -0.061 A 
ATOM     30  C   UNL     1      40.189 -20.709 -39.280  0.00  0.00    -0.051 A 
ATOM     31  C   UNL     1      40.183 -20.809 -37.868  0.00  0.00    +0.023 A 
ATOM     32  C   UNL     1      40.472 -21.390 -33.650  0.00  0.00    -0.010 C 
ATOM     33  C   UNL     1      39.145 -21.394 -32.899  0.00  0.00    -0.047 C 
ATOM     34  C   UNL     1      38.345 -20.155 -33.269  0.00  0.00    -0.049 C 
ATOM     35  C   UNL     1      38.017 -20.155 -34.762  0.00  0.00    -0.024 C 
ENDBRANCH  20  22
ENDBRANCH  18  20
ENDBRANCH  15  16
ENDBRANCH  14  15
ENDBRANCH  13  14
ENDBRANCH  12  13
ENDBRANCH  11  12
ENDBRANCH   9  11
ENDBRANCH   4   7
BRANCH   1  36
ATOM     36  O   UNL     1      47.265 -18.057 -40.695  0.00  0.00    -0.490 OA
BRANCH  36  37
ATOM     37  C   UNL     1      47.127 -19.091 -41.655  0.00  0.00    +0.076 C 
BRANCH  37  38
ATOM     38  C   UNL     1      47.329 -20.611 -40.795  0.00  0.00    -0.053 C 
BRANCH  38  39
ATOM     39  N   UNL     1      46.938 -21.452 -41.171  0.00  0.00    +0.382 N 
BRANCH  39  41
ATOM     40  C   UNL     1      49.063 -22.604 -40.861  0.00  0.00    -0.080 C 
ATOM     41  C   UNL     1      47.826 -21.687 -41.567  0.00  0.00    -0.091 C 
ENDBRANCH  39  41
BRANCH  39  42
ATOM     42  C   UNL     1      46.547 -22.292 -41.547  0.00  0.00    -0.091 C 
ATOM     43  C   UNL     1      45.420 -22.280 -42.808  0.00  0.00    -0.080 C 
ENDBRANCH  39  42
BRANCH  39  44
ATOM     44  C   UNL     1      46.051 -21.216 -40.775  0.00  0.00    -0.091 C 
ATOM     45  C   UNL     1      45.949 -21.331 -39.050  0.00  0.00    -0.080 C 
ENDBRANCH  39  44
ENDBRANCH  38  39
ENDBRANCH  37  38
ENDBRANCH  36  37
ENDBRANCH   1  36
BRANCH   6  46
ATOM     46  O   UNL     1      47.690 -15.431 -41.110  0.00  0.00    -0.490 OA
BRANCH  46  47
ATOM     47  C   UNL     1      48.047 -14.057 -41.219  0.00  0.00    +0.076 C 
BRANCH  47  48
ATOM     48  C   UNL     1      47.862 -13.525 -42.672  0.00  0.00    -0.053 C 
BRANCH  48  49
ATOM     49  N   UNL     1      49.421 -13.582 -43.702  0.00  0.00    +0.382 N 
BRANCH  49  50
ATOM     50  C   UNL     1      48.875 -13.964 -44.447  0.00  0.00    -0.091 C 
ATOM     51  C   UNL     1      48.487 -13.580 -45.934  0.00  0.00    -0.080 C 
ENDBRANCH  49  50
BRANCH  49  52
ATOM     52  C   UNL     1      50.375 -15.174 -43.562  0.00  0.00    -0.091 C 
ATOM     53  C   UNL     1      51.646 -15.114 -44.426  0.00  0.00    -0.080 C 
ENDBRANCH  49  52
BRANCH  49  54
ATOM     54  C   UNL     1      49.967 -13.199 -42.957  0.00  0.00    -0.091 C 
ATOM     55  C   UNL     1      50.860 -11.908 -42.746  0.00  0.00    -0.080 C 
ENDBRANCH  49  54
ENDBRANCH  48  49
ENDBRANCH  47  48
ENDBRANCH  46  47
ENDBRANCH   6  46
BRANCH   3  56
ATOM     56  O   UNL     1      42.834 -17.539 -39.579  0.00  0.00    -0.493 OA
BRANCH  56  57
ATOM     57  C   UNL     1      43.209 -18.426 -38.507  0.00  0.00    +0.075 C 
BRANCH  57  58
ATOM     58  C   UNL     1      43.089 -17.726 -37.112  0.00  0.00    -0.053 C 
BRANCH  58  59
ATOM     59  N   UNL     1      44.614 -18.044 -36.059  0.00  0.00    +0.382 N 
BRANCH  59  60
ATOM     60  C   UNL     1      45.066 -17.287 -36.530  0.00  0.00    -0.091 C 
ATOM     61  C   UNL     1      46.512 -17.658 -37.034  0.00  0.00    -0.080 C 
ENDBRANCH  59  60
BRANCH  59  62
ATOM     62  C   UNL     1      44.228 -16.937 -34.594  0.00  0.00    -0.091 C 
ATOM     63  C   UNL     1      45.223 -17.074 -33.440  0.00  0.00    -0.080 C 
ENDBRANCH  59  62
BRANCH  59  64
ATOM     64  C   UNL     1      44.162 -18.801 -35.588  0.00  0.00    -0.091 C 
ATOM     65  C   UNL     1      44.899 -20.182 -35.587  0.00  0.00    -0.080 C 
ENDBRANCH  59  64
ENDBRANCH  58  59
ENDBRANCH  57  58
ENDBRANCH  56  57
ENDBRANCH   3  56
TORSDOF 30
ENDMDL
MODEL 19
REMARK VINA RESULT:    -6.007      2.168      3.617
REMARK INTER + INTRA:          -8.729
REMARK INTER:                 -14.528
REMARK INTRA:                   5.799
REMARK UNBOUND:                 5.003
REMARK  Name = cpd124.pdb
REMARK  39 active torsions:
REMARK  status: ('A' for Active; 'I' for Inactive)
REMARK    1  A    between atoms: C_1  and  C_2
REMARK    2  A    between atoms: C_2  and  N_3
REMARK    3  A    between atoms: N_3  and  C_4
REMARK    4  A    between atoms: N_3  and  C_6
REMARK    5  A    between atoms: N_3  and  C_8
REMARK    6  A    between atoms: C_4  and  C_5
REMARK    7  A    between atoms: C_6  and  C_7
REMARK    8  A    between atoms: C_8  and  C_9
REMARK    9  A    between atoms: C_9  and  O_10
REMARK   10  A    between atoms: O_10  and  C_11
REMARK   11  A    between atoms: C_13  and  O_14
REMARK   12  A    between atoms: O_14  and  C_15
REMARK   13  A    between atoms: C_15  and  C_16
REMARK   14  A    between atoms: C_16  and  N_17
REMARK   15  A    between atoms: N_17  and  C_18
REMARK   16  A    between atoms: N_17  and  C_20
REMARK   17  A    between atoms: N_17  and  C_22
REMARK   18  A    between atoms: C_18  and  C_19
REMARK   19  A    between atoms: C_20  and  C_21
REMARK   20  A    between atoms: C_22  and  C_23
REMARK   21  A    between atoms: C_24  and  C_25
REMARK   22  A    between atoms: N_27  and  C_28
REMARK   23  A    between atoms: C_28  and  C_29
REMARK   24  A    between atoms: C_29  and  C_30
REMARK   25  A    between atoms: C_30  and  C_31
REMARK   26  A    between atoms: C_31  and  C_32
REMARK   27  A    between atoms: C_32  and  C_33
REMARK   28  A    between atoms: N_35  and  N_36
REMARK   29  A    between atoms: N_36  and  C_37
REMARK   30  A    between atoms: C_52  and  O_53
REMARK   31  A    between atoms: O_53  and  C_54
REMARK   32  A    between atoms: C_54  and  C_55
REMARK   33  A    between atoms: C_55  and  N_56
REMARK   34  A    between atoms: N_56  and  C_57
REMARK   35  A    between atoms: N_56  and  C_59
REMARK   36  A    between atoms: N_56  and  C_61
REMARK   37  A    between atoms: C_57  and  C_58
REMARK   38  A    between atoms: C_59  and  C_60
REMARK   39  A    between atoms: C_61  and  C_62
REMARK                            x       y       z     vdW  Elec       q    Type
REMARK                         _______ _______ _______ _____ _____    ______ ____
ROOT
ATOM      1  C   UNL     1      43.899 -18.779 -33.814  0.00  0.00    +0.165 A 
ATOM      2  C   UNL     1      44.423 -19.563 -34.822  0.00  0.00    +0.026 A 
ATOM      3  C   UNL     1      45.488 -19.076 -35.567  0.00  0.00    +0.136 A 
ATOM      4  C   UNL     1      46.132 -17.890 -35.187  0.00  0.00    +0.082 A 
ATOM      5  C   UNL     1      45.693 -17.213 -34.025  0.00  0.00    -0.001 A 
ATOM      6  C   UNL     1      44.558 -17.640 -33.347  0.00  0.00    +0.163 A 
ENDROOT
BRANCH   4   7
ATOM      7  C   UNL     1      47.125 -17.158 -36.024  0.00  0.00    +0.248 C 
ATOM      8  O   UNL     1      48.317 -17.364 -35.818  0.00  0.00    -0.270 OA
ATOM      9  N   UNL     1      46.657 -16.219 -36.908  0.00  0.00    -0.311 N 
ATOM     10  H   UNL     1      45.695 -16.189 -37.115  0.00  0.00    +0.000 HD
BRANCH   9  11
ATOM     11  C   UNL     1      47.551 -15.266 -37.546  0.00  0.00    +0.012 C 
BRANCH  11  12
ATOM     12  C   UNL     1      46.850 -13.922 -37.747  0.00  0.00    -0.037 C 
BRANCH  12  13
ATOM     13  C   UNL     1      46.029 -13.504 -36.529  0.00  0.00    -0.051 C 
BRANCH  13  14
ATOM     14  C   UNL     1      44.539 -13.412 -36.885  0.00  0.00    -0.045 C 
BRANCH  14  15
ATOM     15  C   UNL     1      43.637 -14.003 -35.800  0.00  0.00    +0.025 C 
BRANCH  15  16
ATOM     16  C   UNL     1      43.126 -15.376 -36.191  0.00  0.00    +0.229 C 
ATOM     17  O   UNL     1      43.741 -16.097 -36.969  0.00  0.00    -0.274 OA
ATOM     18  N   UNL     1      41.957 -15.725 -35.534  0.00  0.00    -0.236 N 
ATOM     19  H   UNL     1      41.451 -15.055 -35.019  0.00  0.00    +0.000 HD
BRANCH  18  20
ATOM     20  N   UNL     1      41.510 -17.055 -35.619  0.00  0.00    -0.264 N 
ATOM     21  H   UNL     1      42.098 -17.842 -35.545  0.00  0.00    +0.000 HD
BRANCH  20  22
ATOM     22  C   UNL     1      40.103 -17.123 -35.825  0.00  0.00    +0.058 A 
ATOM     23  C   UNL     1      39.559 -17.145 -37.123  0.00  0.00    -0.003 A 
ATOM     24  C   UNL     1      38.164 -17.179 -37.239  0.00  0.00    +0.047 A 
ATOM     25  N   UNL     1      37.320 -17.144 -36.172  0.00  0.00    -0.251 NA
ATOM     26  C   UNL     1      37.853 -17.175 -34.939  0.00  0.00    +0.073 A 
ATOM     27  C   UNL     1      36.990 -17.284 -33.854  0.00  0.00    -0.036 A 
ATOM     28  C   UNL     1      37.449 -17.289 -32.534  0.00  0.00    -0.060 A 
ATOM     29  C   UNL     1      38.808 -17.200 -32.286  0.00  0.00    -0.061 A 
ATOM     30  C   UNL     1      39.695 -17.131 -33.359  0.00  0.00    -0.051 A 
ATOM     31  C   UNL     1      39.238 -17.124 -34.699  0.00  0.00    +0.023 A 
ATOM     32  C   UNL     1      37.492 -17.225 -38.592  0.00  0.00    -0.010 C 
ATOM     33  C   UNL     1      38.402 -17.740 -39.702  0.00  0.00    -0.047 C 
ATOM     34  C   UNL     1      39.723 -16.989 -39.669  0.00  0.00    -0.049 C 
ATOM     35  C   UNL     1      40.446 -17.235 -38.345  0.00  0.00    -0.024 C 
ENDBRANCH  20  22
ENDBRANCH  18  20
ENDBRANCH  15  16
ENDBRANCH  14  15
ENDBRANCH  13  14
ENDBRANCH  12  13
ENDBRANCH  11  12
ENDBRANCH   9  11
ENDBRANCH   4   7
BRANCH   1  36
ATOM     36  O   UNL     1      42.586 -19.003 -33.494  0.00  0.00    -0.490 OA
BRANCH  36  37
ATOM     37  C   UNL     1      42.095 -20.155 -34.161  0.00  0.00    +0.076 C 
BRANCH  37  38
ATOM     38  C   UNL     1      40.808 -20.812 -33.160  0.00  0.00    -0.053 C 
BRANCH  38  39
ATOM     39  N   UNL     1      40.326 -21.639 -33.449  0.00  0.00    +0.382 N 
BRANCH  39  41
ATOM     40  C   UNL     1      41.206 -23.121 -31.726  0.00  0.00    -0.080 C 
ATOM     41  C   UNL     1      41.097 -22.196 -33.142  0.00  0.00    -0.091 C 
ENDBRANCH  39  41
BRANCH  39  42
ATOM     42  C   UNL     1      39.843 -22.465 -33.738  0.00  0.00    -0.091 C 
ATOM     43  C   UNL     1      39.687 -22.901 -35.364  0.00  0.00    -0.080 C 
ENDBRANCH  39  42
BRANCH  39  44
ATOM     44  C   UNL     1      39.554 -21.081 -33.756  0.00  0.00    -0.091 C 
ATOM     45  C   UNL     1      38.254 -20.918 -32.624  0.00  0.00    -0.080 C 
ENDBRANCH  39  44
ENDBRANCH  38  39
ENDBRANCH  37  38
ENDBRANCH  36  37
ENDBRANCH   1  36
BRANCH   6  46
ATOM     46  O   UNL     1      43.971 -17.041 -32.279  0.00  0.00    -0.490 OA
BRANCH  46  47
ATOM     47  C   UNL     1      43.455 -15.717 -32.367  0.00  0.00    +0.076 C 
BRANCH  47  48
ATOM     48  C   UNL     1      44.285 -14.713 -31.511  0.00  0.00    -0.053 C 
BRANCH  48  49
ATOM     49  N   UNL     1      43.645 -12.958 -31.573  0.00  0.00    +0.382 N 
BRANCH  49  50
ATOM     50  C   UNL     1      43.257 -13.103 -30.662  0.00  0.00    -0.091 C 
ATOM     51  C   UNL     1      43.346 -12.435 -29.229  0.00  0.00    -0.080 C 
ENDBRANCH  49  50
BRANCH  49  52
ATOM     52  C   UNL     1      41.936 -12.790 -32.292  0.00  0.00    -0.091 C 
ATOM     53  C   UNL     1      41.499 -11.316 -32.294  0.00  0.00    -0.080 C 
ENDBRANCH  49  52
BRANCH  49  54
ATOM     54  C   UNL     1      44.032 -12.813 -32.483  0.00  0.00    -0.091 C 
ATOM     55  C   UNL     1      45.077 -11.813 -33.129  0.00  0.00    -0.080 C 
ENDBRANCH  49  54
ENDBRANCH  48  49
ENDBRANCH  47  48
ENDBRANCH  46  47
ENDBRANCH   6  46
BRANCH   3  56
ATOM     56  O   UNL     1      45.763 -19.744 -36.734  0.00  0.00    -0.493 OA
BRANCH  56  57
ATOM     57  C   UNL     1      44.831 -19.342 -37.756  0.00  0.00    +0.075 C 
BRANCH  57  58
ATOM     58  C   UNL     1      44.427 -20.545 -38.673  0.00  0.00    -0.053 C 
BRANCH  58  59
ATOM     59  N   UNL     1      45.630 -20.743 -40.104  0.00  0.00    +0.382 N 
BRANCH  59  60
ATOM     60  C   UNL     1      45.843 -21.659 -39.765  0.00  0.00    -0.091 C 
ATOM     61  C   UNL     1      47.393 -21.927 -39.663  0.00  0.00    -0.080 C 
ENDBRANCH  59  60
BRANCH  59  62
ATOM     62  C   UNL     1      44.476 -21.461 -41.398  0.00  0.00    -0.091 C 
ATOM     63  C   UNL     1      45.190 -21.927 -42.668  0.00  0.00    -0.080 C 
ENDBRANCH  59  62
BRANCH  59  64
ATOM     64  C   UNL     1      45.417 -19.826 -40.443  0.00  0.00    -0.091 C 
ATOM     65  C   UNL     1      46.623 -18.934 -40.890  0.00  0.00    -0.080 C 
ENDBRANCH  59  64
ENDBRANCH  58  59
ENDBRANCH  57  58
ENDBRANCH  56  57
ENDBRANCH   3  56
TORSDOF 30
ENDMDL
MODEL 20
REMARK VINA RESULT:    -5.790      2.250      6.910
REMARK INTER + INTRA:          -8.233
REMARK INTER:                 -12.187
REMARK INTRA:                   3.954
REMARK UNBOUND:                 5.003
REMARK  Name = cpd124.pdb
REMARK  39 active torsions:
REMARK  status: ('A' for Active; 'I' for Inactive)
REMARK    1  A    between atoms: C_1  and  C_2
REMARK    2  A    between atoms: C_2  and  N_3
REMARK    3  A    between atoms: N_3  and  C_4
REMARK    4  A    between atoms: N_3  and  C_6
REMARK    5  A    between atoms: N_3  and  C_8
REMARK    6  A    between atoms: C_4  and  C_5
REMARK    7  A    between atoms: C_6  and  C_7
REMARK    8  A    between atoms: C_8  and  C_9
REMARK    9  A    between atoms: C_9  and  O_10
REMARK   10  A    between atoms: O_10  and  C_11
REMARK   11  A    between atoms: C_13  and  O_14
REMARK   12  A    between atoms: O_14  and  C_15
REMARK   13  A    between atoms: C_15  and  C_16
REMARK   14  A    between atoms: C_16  and  N_17
REMARK   15  A    between atoms: N_17  and  C_18
REMARK   16  A    between atoms: N_17  and  C_20
REMARK   17  A    between atoms: N_17  and  C_22
REMARK   18  A    between atoms: C_18  and  C_19
REMARK   19  A    between atoms: C_20  and  C_21
REMARK   20  A    between atoms: C_22  and  C_23
REMARK   21  A    between atoms: C_24  and  C_25
REMARK   22  A    between atoms: N_27  and  C_28
REMARK   23  A    between atoms: C_28  and  C_29
REMARK   24  A    between atoms: C_29  and  C_30
REMARK   25  A    between atoms: C_30  and  C_31
REMARK   26  A    between atoms: C_31  and  C_32
REMARK   27  A    between atoms: C_32  and  C_33
REMARK   28  A    between atoms: N_35  and  N_36
REMARK   29  A    between atoms: N_36  and  C_37
REMARK   30  A    between atoms: C_52  and  O_53
REMARK   31  A    between atoms: O_53  and  C_54
REMARK   32  A    between atoms: C_54  and  C_55
REMARK   33  A    between atoms: C_55  and  N_56
REMARK   34  A    between atoms: N_56  and  C_57
REMARK   35  A    between atoms: N_56  and  C_59
REMARK   36  A    between atoms: N_56  and  C_61
REMARK   37  A    between atoms: C_57  and  C_58
REMARK   38  A    between atoms: C_59  and  C_60
REMARK   39  A    between atoms: C_61  and  C_62
REMARK                            x       y       z     vdW  Elec       q    Type
REMARK                         _______ _______ _______ _____ _____    ______ ____
ROOT
ATOM      1  C   UNL     1      44.949 -19.942 -36.821  0.00  0.00    +0.165 A 
ATOM      2  C   UNL     1      45.980 -19.031 -36.707  0.00  0.00    +0.026 A 
ATOM      3  C   UNL     1      45.874 -18.007 -35.776  0.00  0.00    +0.136 A 
ATOM      4  C   UNL     1      44.822 -18.004 -34.848  0.00  0.00    +0.082 A 
ATOM      5  C   UNL     1      43.889 -19.067 -34.865  0.00  0.00    -0.001 A 
ATOM      6  C   UNL     1      43.933 -20.028 -35.867  0.00  0.00    +0.163 A 
ENDROOT
BRANCH   4   7
ATOM      7  C   UNL     1      44.477 -16.856 -33.961  0.00  0.00    +0.248 C 
ATOM      8  O   UNL     1      44.194 -17.096 -32.791  0.00  0.00    -0.270 OA
ATOM      9  N   UNL     1      44.396 -15.607 -34.523  0.00  0.00    -0.311 N 
ATOM     10  H   UNL     1      44.754 -15.462 -35.428  0.00  0.00    +0.000 HD
BRANCH   9  11
ATOM     11  C   UNL     1      43.793 -14.492 -33.810  0.00  0.00    +0.012 C 
BRANCH  11  12
ATOM     12  C   UNL     1      42.279 -14.473 -34.024  0.00  0.00    -0.037 C 
BRANCH  12  13
ATOM     13  C   UNL     1      41.505 -14.384 -32.710  0.00  0.00    -0.051 C 
BRANCH  13  14
ATOM     14  C   UNL     1      40.734 -15.684 -32.448  0.00  0.00    -0.045 C 
BRANCH  14  15
ATOM     15  C   UNL     1      39.348 -15.435 -31.850  0.00  0.00    +0.025 C 
BRANCH  15  16
ATOM     16  C   UNL     1      38.416 -14.794 -32.858  0.00  0.00    +0.229 C 
ATOM     17  O   UNL     1      37.843 -13.735 -32.626  0.00  0.00    -0.274 OA
ATOM     18  N   UNL     1      38.345 -15.495 -34.051  0.00  0.00    -0.236 N 
ATOM     19  H   UNL     1      38.729 -16.398 -34.127  0.00  0.00    +0.000 HD
BRANCH  18  20
ATOM     20  N   UNL     1      37.712 -14.888 -35.150  0.00  0.00    -0.264 N 
ATOM     21  H   UNL     1      36.799 -14.519 -35.129  0.00  0.00    +0.000 HD
BRANCH  20  22
ATOM     22  C   UNL     1      38.554 -14.873 -36.298  0.00  0.00    +0.058 A 
ATOM     23  C   UNL     1      38.518 -15.919 -37.240  0.00  0.00    -0.003 A 
ATOM     24  C   UNL     1      39.403 -15.845 -38.323  0.00  0.00    +0.047 A 
ATOM     25  N   UNL     1      40.316 -14.848 -38.481  0.00  0.00    -0.251 NA
ATOM     26  C   UNL     1      40.304 -13.831 -37.603  0.00  0.00    +0.073 A 
ATOM     27  C   UNL     1      41.138 -12.745 -37.846  0.00  0.00    -0.036 A 
ATOM     28  C   UNL     1      41.220 -11.657 -36.973  0.00  0.00    -0.060 A 
ATOM     29  C   UNL     1      40.437 -11.641 -35.832  0.00  0.00    -0.061 A 
ATOM     30  C   UNL     1      39.563 -12.699 -35.588  0.00  0.00    -0.051 A 
ATOM     31  C   UNL     1      39.475 -13.805 -36.467  0.00  0.00    +0.023 A 
ATOM     32  C   UNL     1      39.420 -16.912 -39.393  0.00  0.00    -0.010 C 
ATOM     33  C   UNL     1      38.127 -17.715 -39.467  0.00  0.00    -0.047 C 
ATOM     34  C   UNL     1      37.751 -18.208 -38.079  0.00  0.00    -0.049 C 
ATOM     35  C   UNL     1      37.493 -17.027 -37.144  0.00  0.00    -0.024 C 
ENDBRANCH  20  22
ENDBRANCH  18  20
ENDBRANCH  15  16
ENDBRANCH  14  15
ENDBRANCH  13  14
ENDBRANCH  12  13
ENDBRANCH  11  12
ENDBRANCH   9  11
ENDBRANCH   4   7
BRANCH   1  36
ATOM     36  O   UNL     1      44.813 -20.553 -38.039  0.00  0.00    -0.490 OA
BRANCH  36  37
ATOM     37  C   UNL     1      45.903 -20.231 -38.888  0.00  0.00    +0.076 C 
BRANCH  37  38
ATOM     38  C   UNL     1      45.851 -21.362 -40.233  0.00  0.00    -0.053 C 
BRANCH  38  39
ATOM     39  N   UNL     1      46.449 -21.224 -41.022  0.00  0.00    +0.382 N 
BRANCH  39  41
ATOM     40  C   UNL     1      47.653 -23.343 -40.998  0.00  0.00    -0.080 C 
ATOM     41  C   UNL     1      47.157 -21.777 -40.582  0.00  0.00    -0.091 C 
ENDBRANCH  39  41
BRANCH  39  42
ATOM     42  C   UNL     1      47.047 -21.087 -41.811  0.00  0.00    -0.091 C 
ATOM     43  C   UNL     1      47.901 -19.648 -42.060  0.00  0.00    -0.080 C 
ENDBRANCH  39  42
BRANCH  39  44
ATOM     44  C   UNL     1      45.741 -20.671 -41.462  0.00  0.00    -0.091 C 
ATOM     45  C   UNL     1      44.608 -21.546 -42.436  0.00  0.00    -0.080 C 
ENDBRANCH  39  44
ENDBRANCH  38  39
ENDBRANCH  37  38
ENDBRANCH  36  37
ENDBRANCH   1  36
BRANCH   6  46
ATOM     46  O   UNL     1      43.055 -21.046 -36.061  0.00  0.00    -0.490 OA
BRANCH  46  47
ATOM     47  C   UNL     1      41.812 -20.833 -36.721  0.00  0.00    +0.076 C 
BRANCH  47  48
ATOM     48  C   UNL     1      40.602 -21.183 -35.804  0.00  0.00    -0.053 C 
BRANCH  48  49
ATOM     49  N   UNL     1      40.294 -19.932 -34.449  0.00  0.00    +0.382 N 
BRANCH  49  50
ATOM     50  C   UNL     1      40.462 -20.660 -33.784  0.00  0.00    -0.091 C 
ATOM     51  C   UNL     1      41.470 -20.959 -32.600  0.00  0.00    -0.080 C 
ENDBRANCH  49  50
BRANCH  49  52
ATOM     52  C   UNL     1      38.519 -19.817 -33.900  0.00  0.00    -0.091 C 
ATOM     53  C   UNL     1      38.393 -18.875 -32.691  0.00  0.00    -0.080 C 
ENDBRANCH  49  52
BRANCH  49  54
ATOM     54  C   UNL     1      40.127 -19.204 -35.113  0.00  0.00    -0.091 C 
ATOM     55  C   UNL     1      40.730 -17.769 -35.406  0.00  0.00    -0.080 C 
ENDBRANCH  49  54
ENDBRANCH  48  49
ENDBRANCH  47  48
ENDBRANCH  46  47
ENDBRANCH   6  46
BRANCH   3  56
ATOM     56  O   UNL     1      46.761 -16.970 -35.916  0.00  0.00    -0.493 OA
BRANCH  56  57
ATOM     57  C   UNL     1      46.934 -16.662 -37.313  0.00  0.00    +0.075 C 
BRANCH  57  58
ATOM     58  C   UNL     1      46.125 -15.388 -37.728  0.00  0.00    -0.053 C 
BRANCH  58  59
ATOM     59  N   UNL     1      44.812 -15.804 -39.007  0.00  0.00    +0.382 N 
BRANCH  59  60
ATOM     60  C   UNL     1      44.119 -15.693 -38.294  0.00  0.00    -0.091 C 
ATOM     61  C   UNL     1      43.192 -16.958 -38.143  0.00  0.00    -0.080 C 
ENDBRANCH  59  60
BRANCH  59  62
ATOM     62  C   UNL     1      44.449 -14.085 -39.665  0.00  0.00    -0.091 C 
ATOM     63  C   UNL     1      43.191 -14.010 -40.532  0.00  0.00    -0.080 C 
ENDBRANCH  59  62
BRANCH  59  64
ATOM     64  C   UNL     1      45.505 -15.915 -39.719  0.00  0.00    -0.091 C 
ATOM     65  C   UNL     1      45.288 -17.073 -40.749  0.00  0.00    -0.080 C 
ENDBRANCH  59  64
ENDBRANCH  58  59
ENDBRANCH  57  58
ENDBRANCH  56  57
ENDBRANCH   3  56
TORSDOF 30
ENDMDL
