REMARK  Name = cpd124.pdb
REMARK  39 active torsions:
REMARK  status: ('A' for Active; 'I' for Inactive)
REMARK    1  A    between atoms: C_1  and  C_2
REMARK    2  A    between atoms: C_2  and  N_3
REMARK    3  A    between atoms: N_3  and  C_4
REMARK    4  A    between atoms: N_3  and  C_6
REMARK    5  A    between atoms: N_3  and  C_8
REMARK    6  A    between atoms: C_4  and  C_5
REMARK    7  A    between atoms: C_6  and  C_7
REMARK    8  A    between atoms: C_8  and  C_9
REMARK    9  A    between atoms: C_9  and  O_10
REMARK   10  A    between atoms: O_10  and  C_11
REMARK   11  A    between atoms: C_13  and  O_14
REMARK   12  A    between atoms: O_14  and  C_15
REMARK   13  A    between atoms: C_15  and  C_16
REMARK   14  A    between atoms: C_16  and  N_17
REMARK   15  A    between atoms: N_17  and  C_18
REMARK   16  A    between atoms: N_17  and  C_20
REMARK   17  A    between atoms: N_17  and  C_22
REMARK   18  A    between atoms: C_18  and  C_19
REMARK   19  A    between atoms: C_20  and  C_21
REMARK   20  A    between atoms: C_22  and  C_23
REMARK   21  A    between atoms: C_24  and  C_25
REMARK   22  A    between atoms: N_27  and  C_28
REMARK   23  A    between atoms: C_28  and  C_29
REMARK   24  A    between atoms: C_29  and  C_30
REMARK   25  A    between atoms: C_30  and  C_31
REMARK   26  A    between atoms: C_31  and  C_32
REMARK   27  A    between atoms: C_32  and  C_33
REMARK   28  A    between atoms: N_35  and  N_36
REMARK   29  A    between atoms: N_36  and  C_37
REMARK   30  A    between atoms: C_52  and  O_53
REMARK   31  A    between atoms: O_53  and  C_54
REMARK   32  A    between atoms: C_54  and  C_55
REMARK   33  A    between atoms: C_55  and  N_56
REMARK   34  A    between atoms: N_56  and  C_57
REMARK   35  A    between atoms: N_56  and  C_59
REMARK   36  A    between atoms: N_56  and  C_61
REMARK   37  A    between atoms: C_57  and  C_58
REMARK   38  A    between atoms: C_59  and  C_60
REMARK   39  A    between atoms: C_61  and  C_62
REMARK                            x       y       z     vdW  Elec       q    Type
REMARK                         _______ _______ _______ _____ _____    ______ ____
ROOT
ATOM      1  C   UNL     1      -2.253   1.971  -2.336  0.00  0.00    +0.165 A 
ATOM      2  C   UNL     1      -3.467   1.517  -2.811  0.00  0.00    +0.026 A 
ATOM      3  C   UNL     1      -4.246   2.366  -3.585  0.00  0.00    +0.136 A 
ATOM      4  C   UNL     1      -3.729   3.594  -4.024  0.00  0.00    +0.082 A 
ATOM      5  C   UNL     1      -2.401   3.940  -3.683  0.00  0.00    -0.001 A 
ATOM      6  C   UNL     1      -1.665   3.142  -2.816  0.00  0.00    +0.163 A 
ENDROOT
BRANCH   4   7
ATOM      7  C   UNL     1      -4.535   4.675  -4.659  0.00  0.00    +0.248 C 
ATOM      8  O   UNL     1      -4.083   5.816  -4.645  0.00  0.00    -0.270 OA
ATOM      9  N   UNL     1      -5.782   4.357  -5.135  0.00  0.00    -0.311 N 
ATOM     10  H   UNL     1      -6.034   3.410  -5.231  0.00  0.00    +0.000 HD
BRANCH   9  11
ATOM     11  C   UNL     1      -6.740   5.388  -5.501  0.00  0.00    +0.012 C 
BRANCH  11  12
ATOM     12  C   UNL     1      -7.295   6.074  -4.252  0.00  0.00    -0.037 C 
BRANCH  12  13
ATOM     13  C   UNL     1      -8.412   7.064  -4.578  0.00  0.00    -0.051 C 
BRANCH  13  14
ATOM     14  C   UNL     1      -8.869   7.800  -3.312  0.00  0.00    -0.045 C 
BRANCH  14  15
ATOM     15  C   UNL     1     -10.165   8.584  -3.523  0.00  0.00    +0.025 C 
BRANCH  15  16
ATOM     16  C   UNL     1     -11.349   7.657  -3.715  0.00  0.00    +0.229 C 
ATOM     17  O   UNL     1     -11.897   7.526  -4.804  0.00  0.00    -0.274 OA
ATOM     18  N   UNL     1     -11.680   6.957  -2.566  0.00  0.00    -0.236 N 
ATOM     19  H   UNL     1     -11.283   7.199  -1.698  0.00  0.00    +0.000 HD
BRANCH  18  20
ATOM     20  N   UNL     1     -12.595   5.894  -2.667  0.00  0.00    -0.264 N 
ATOM     21  H   UNL     1     -13.492   5.972  -3.066  0.00  0.00    +0.000 HD
BRANCH  20  22
ATOM     22  C   UNL     1     -12.063   4.691  -2.121  0.00  0.00    +0.058 A 
ATOM     23  C   UNL     1     -12.237   4.371  -0.761  0.00  0.00    -0.003 A 
ATOM     24  C   UNL     1     -11.654   3.186  -0.296  0.00  0.00    +0.047 A 
ATOM     25  N   UNL     1     -10.898   2.364  -1.074  0.00  0.00    -0.251 NA
ATOM     26  C   UNL     1     -10.783   2.655  -2.381  0.00  0.00    +0.073 A 
ATOM     27  C   UNL     1     -10.132   1.741  -3.202  0.00  0.00    -0.036 A 
ATOM     28  C   UNL     1      -9.934   1.972  -4.566  0.00  0.00    -0.060 A 
ATOM     29  C   UNL     1     -10.413   3.140  -5.134  0.00  0.00    -0.061 A 
ATOM     30  C   UNL     1     -11.105   4.052  -4.340  0.00  0.00    -0.051 A 
ATOM     31  C   UNL     1     -11.308   3.826  -2.957  0.00  0.00    +0.023 A 
ATOM     32  C   UNL     1     -11.806   2.752   1.143  0.00  0.00    -0.010 C 
ATOM     33  C   UNL     1     -13.003   3.385   1.843  0.00  0.00    -0.047 C 
ATOM     34  C   UNL     1     -12.984   4.890   1.627  0.00  0.00    -0.049 C 
ATOM     35  C   UNL     1     -13.107   5.219   0.140  0.00  0.00    -0.024 C 
ENDBRANCH  20  22
ENDBRANCH  18  20
ENDBRANCH  15  16
ENDBRANCH  14  15
ENDBRANCH  13  14
ENDBRANCH  12  13
ENDBRANCH  11  12
ENDBRANCH   9  11
ENDBRANCH   4   7
BRANCH   1  36
ATOM     36  O   UNL     1      -1.795   1.382  -1.187  0.00  0.00    -0.490 OA
BRANCH  36  37
ATOM     37  C   UNL     1      -0.875   0.345  -1.485  0.00  0.00    +0.076 C 
BRANCH  37  38
ATOM     38  C   UNL     1       0.000   0.000   0.000  0.00  0.00    -0.053 C 
BRANCH  38  39
ATOM     39  N   UNL     1       1.000   0.000   0.000  0.00  0.00    +0.382 N 
BRANCH  39  41
ATOM     40  C   UNL     1       0.523  -2.034  -1.255  0.00  0.00    -0.080 C 
ATOM     41  C   UNL     1       1.000  -1.000   0.000  0.00  0.00    -0.091 C 
ENDBRANCH  39  41
BRANCH  39  42
ATOM     42  C   UNL     1       2.000   0.000   0.000  0.00  0.00    -0.091 C 
ATOM     43  C   UNL     1       2.905  -0.321  -1.392  0.00  0.00    -0.080 C 
ENDBRANCH  39  42
BRANCH  39  44
ATOM     44  C   UNL     1       1.000   1.000   0.000  0.00  0.00    -0.091 C 
ATOM     45  C   UNL     1       1.244   1.747   1.543  0.00  0.00    -0.080 C 
ENDBRANCH  39  44
ENDBRANCH  38  39
ENDBRANCH  37  38
ENDBRANCH  36  37
ENDBRANCH   1  36
BRANCH   6  46
ATOM     46  O   UNL     1      -0.421   3.394  -2.332  0.00  0.00    -0.490 OA
BRANCH  46  47
ATOM     47  C   UNL     1       0.330   4.519  -2.777  0.00  0.00    +0.076 C 
BRANCH  47  48
ATOM     48  C   UNL     1       0.227   5.714  -1.782  0.00  0.00    -0.053 C 
BRANCH  48  49
ATOM     49  N   UNL     1       0.000   5.196   0.000  0.00  0.00    +0.382 N 
BRANCH  49  50
ATOM     50  C   UNL     1      -0.866   5.696   0.000  0.00  0.00    -0.091 C 
ATOM     51  C   UNL     1      -1.357   7.192  -0.170  0.00  0.00    -0.080 C 
ENDBRANCH  49  50
BRANCH  49  52
ATOM     52  C   UNL     1       0.708   6.389   1.241  0.00  0.00    -0.091 C 
ATOM     53  C   UNL     1       0.017   6.216   2.604  0.00  0.00    -0.080 C 
ENDBRANCH  49  52
BRANCH  49  54
ATOM     54  C   UNL     1       0.866   4.696   0.000  0.00  0.00    -0.091 C 
ATOM     55  C   UNL     1       2.367   5.019  -0.389  0.00  0.00    -0.080 C 
ENDBRANCH  49  54
ENDBRANCH  48  49
ENDBRANCH  47  48
ENDBRANCH  46  47
ENDBRANCH   6  46
BRANCH   3  56
ATOM     56  O   UNL     1      -5.553   1.989  -3.766  0.00  0.00    -0.493 OA
BRANCH  56  57
ATOM     57  C   UNL     1      -6.281   2.150  -2.533  0.00  0.00    +0.075 C 
BRANCH  57  58
ATOM     58  C   UNL     1      -6.611   0.769  -1.874  0.00  0.00    -0.053 C 
BRANCH  58  59
ATOM     59  N   UNL     1      -6.500   0.866   0.000  0.00  0.00    +0.382 N 
BRANCH  59  60
ATOM     60  C   UNL     1      -7.366   1.366   0.000  0.00  0.00    -0.091 C 
ATOM     61  C   UNL     1      -7.552   2.263   1.282  0.00  0.00    -0.080 C 
ENDBRANCH  59  60
BRANCH  59  62
ATOM     62  C   UNL     1      -7.387  -0.723   0.457  0.00  0.00    -0.091 C 
ATOM     63  C   UNL     1      -8.146  -0.645   1.783  0.00  0.00    -0.080 C 
ENDBRANCH  59  62
BRANCH  59  64
ATOM     64  C   UNL     1      -5.634   0.366   0.000  0.00  0.00    -0.091 C 
ATOM     65  C   UNL     1      -4.865   0.273   1.360  0.00  0.00    -0.080 C 
ENDBRANCH  59  64
ENDBRANCH  58  59
ENDBRANCH  57  58
ENDBRANCH  56  57
ENDBRANCH   3  56
TORSDOF 30
