@<TRIPOS>MOLECULE
*****
 38 41 0 0 0
SMALL
GASTEIGER

@<TRIPOS>ATOM
      1 C          -0.8660    2.5000    0.0000 C.3     1  UNL1        0.2526
      2 O          -0.8660    1.5000    0.0000 O.3     1  UNL1       -0.4682
      3 C           0.0000    1.0000    0.0000 C.ar    1  UNL1        0.1774
      4 C           0.8660    1.5000    0.0000 C.ar    1  UNL1        0.0402
      5 C           1.7321    1.0000    0.0000 C.ar    1  UNL1        0.0035
      6 C           2.5981    1.5000    0.0000 C.2     1  UNL1        0.0075
      7 C           3.4641    1.0000    0.0000 C.2     1  UNL1        0.0897
      8 C           3.4641   -0.0000    0.0000 C.2     1  UNL1        0.1779
      9 C           2.5981   -0.5000    0.0000 C.3     1  UNL1        0.0774
     10 O           4.3301   -0.5000    0.0000 O.2     1  UNL1       -0.2912
     11 C           4.3301    1.5000    0.0000 C.2     1  UNL1        0.2676
     12 O           5.1962    1.0000    0.0000 O.2     1  UNL1       -0.2683
     13 N           4.3301    2.5000    0.0000 N.am    1  UNL1       -0.2016
     14 C           5.1962    3.0000    0.0000 C.3     1  UNL1        0.1155
     15 C           6.0622    2.5000    0.0000 C.3     1  UNL1        0.0234
     16 C           6.9282    3.0000    0.0000 C.3     1  UNL1        0.0019
     17 C           7.7942    2.5000    0.0000 C.3     1  UNL1        0.0019
     18 C           8.6603    3.0000    0.0000 C.3     1  UNL1        0.0233
     19 C           9.5263    2.5000    0.0000 C.3     1  UNL1        0.1122
     20 N          10.3923    3.0000    0.0000 N.pl3   1  UNL1       -0.2378
     21 C          11.2583    2.5000    0.0000 C.ar    1  UNL1        0.0638
     22 C          12.1244    3.0000    0.0000 C.ar    1  UNL1        0.0062
     23 C          12.9904    2.5000    0.0000 C.ar    1  UNL1        0.0562
     24 N          12.9904    1.5000    0.0000 N.ar    1  UNL1       -0.2499
     25 C          12.1244    1.0000    0.0000 C.ar    1  UNL1        0.0821
     26 C          12.1244   -0.0000    0.0000 C.ar    1  UNL1        0.0191
     27 C          11.2583   -0.5000    0.0000 C.ar    1  UNL1        0.0015
     28 C          10.3923   -0.0000    0.0000 C.ar    1  UNL1        0.0001
     29 C          10.3923    1.0000    0.0000 C.ar    1  UNL1        0.0028
     30 C          11.2583    1.5000    0.0000 C.ar    1  UNL1        0.0322
     31 C          13.8564    3.0000    0.0000 C.3     1  UNL1        0.0455
     32 C          13.8564    4.0000    0.0000 C.3     1  UNL1        0.0066
     33 C          12.9904    4.5000    0.0000 C.3     1  UNL1        0.0052
     34 C          12.1244    4.0000    0.0000 C.3     1  UNL1        0.0289
     35 C           1.7321   -0.0000    0.0000 C.ar    1  UNL1        0.0035
     36 C           0.8660   -0.5000    0.0000 C.ar    1  UNL1        0.0452
     37 C           0.0000   -0.0000    0.0000 C.ar    1  UNL1        0.2293
     38 O          -0.8660   -0.5000    0.0000 O.3     1  UNL1       -0.2833
@<TRIPOS>BOND
     1     1     2    1
     2     2     3    1
     3     3     4   ar
     4     4     5   ar
     5     5     6    1
     6     6     7    2
     7     7     8    1
     8     8     9    1
     9     8    10    2
    10     7    11    1
    11    11    12    2
    12    11    13   am
    13    13    14    1
    14    14    15    1
    15    15    16    1
    16    16    17    1
    17    17    18    1
    18    18    19    1
    19    19    20    1
    20    20    21    1
    21    21    22   ar
    22    22    23   ar
    23    23    24   ar
    24    24    25   ar
    25    25    26   ar
    26    26    27   ar
    27    27    28   ar
    28    28    29   ar
    29    29    30   ar
    30    21    30   ar
    31    25    30   ar
    32    23    31    1
    33    31    32    1
    34    32    33    1
    35    33    34    1
    36    22    34    1
    37     5    35   ar
    38    35    36   ar
    39    36    37   ar
    40     3    37   ar
    41    37    38    1
