REMARK  Name = cpd145.pdb
REMARK  15 active torsions:
REMARK  status: ('A' for Active; 'I' for Inactive)
REMARK    1  A    between atoms: C_1  and  O_2
REMARK    2  A    between atoms: O_2  and  C_3
REMARK    3  A    between atoms: C_5  and  C_6
REMARK    4  A    between atoms: C_7  and  C_8
REMARK    5  A    between atoms: C_7  and  C_11
REMARK    6  A    between atoms: C_8  and  C_9
REMARK    7  A    between atoms: N_13  and  C_14
REMARK    8  A    between atoms: C_14  and  C_15
REMARK    9  A    between atoms: C_15  and  C_16
REMARK   10  A    between atoms: C_16  and  C_17
REMARK   11  A    between atoms: C_17  and  C_18
REMARK   12  A    between atoms: C_18  and  C_19
REMARK   13  A    between atoms: C_19  and  N_20
REMARK   14  A    between atoms: N_20  and  C_21
REMARK   15  A    between atoms: C_37  and  O_38
REMARK                            x       y       z     vdW  Elec       q    Type
REMARK                         _______ _______ _______ _____ _____    ______ ____
ROOT
ATOM      1  C   UNL A   1       5.724   3.590  -0.930  0.00  0.00    -0.037 C 
ENDROOT
BRANCH   1   2
ATOM      2  C   UNL A   1       5.182   2.851   0.290  0.00  0.00    +0.012 C 
BRANCH   2   5
ATOM      3  C   UNL A   1       3.439   1.266   0.944  0.00  0.00    +0.247 C 
ATOM      4  O   UNL A   1       3.871   1.162   2.086  0.00  0.00    -0.270 OA
ATOM      5  N   UNL A   1       3.990   2.088  -0.014  0.00  0.00    -0.311 N 
ATOM      6  H   UNL A   1       3.574   2.156  -0.904  0.00  0.00    +0.000 HD
BRANCH   3   8
ATOM      7  C   UNL A   1       1.253   1.064  -0.125  0.00  0.00    -0.039 C 
ATOM      8  C   UNL A   1       2.285   0.451   0.487  0.00  0.00    +0.079 C 
BRANCH   7  11
ATOM      9  C   UNL A   1      -2.456   0.438  -0.293  0.00  0.00    +0.162 A 
ATOM     10  C   UNL A   1      -1.211   0.983   0.039  0.00  0.00    -0.009 A 
ATOM     11  C   UNL A   1      -0.028   0.450  -0.499  0.00  0.00    -0.021 A 
ATOM     12  C   UNL A   1      -0.102  -0.621  -1.394  0.00  0.00    -0.051 A 
ATOM     13  C   UNL A   1      -1.336  -1.183  -1.719  0.00  0.00    -0.016 A 
ATOM     14  C   UNL A   1      -2.502  -0.657  -1.165  0.00  0.00    +0.158 A 
BRANCH   9  16
ATOM     15  C   UNL A   1      -3.669   2.120   0.885  0.00  0.00    +0.079 C 
ATOM     16  O   UNL A   1      -3.660   0.882   0.189  0.00  0.00    -0.491 OA
ENDBRANCH   9  16
BRANCH  14  17
ATOM     17  O   UNL A   1      -3.714  -1.211  -1.481  0.00  0.00    -0.503 OA
ATOM     18  H   UNL A   1      -4.500  -0.860  -1.111  0.00  0.00    +0.000 HD
ENDBRANCH  14  17
ENDBRANCH   7  11
BRANCH   8  19
ATOM     19  C   UNL A   1       2.235  -0.982   0.877  0.00  0.00    +0.165 C 
ATOM     20  C   UNL A   1       2.078  -1.308   2.337  0.00  0.00    -0.001 C 
ATOM     21  O   UNL A   1       2.371  -1.861   0.026  0.00  0.00    -0.292 OA
ENDBRANCH   8  19
ENDBRANCH   3   8
ENDBRANCH   2   5
ENDBRANCH   1   2
BRANCH   1  22
ATOM     22  C   UNL A   1       6.932   4.470  -0.594  0.00  0.00    -0.052 C 
BRANCH  22  23
ATOM     23  C   UNL A   1       8.193   3.665  -0.266  0.00  0.00    -0.052 C 
BRANCH  23  24
ATOM     24  C   UNL A   1       9.325   4.577   0.216  0.00  0.00    -0.037 C 
BRANCH  24  25
ATOM     25  C   UNL A   1      10.599   3.796   0.548  0.00  0.00    +0.009 C 
BRANCH  25  26
ATOM     26  N   UNL A   1      11.260   3.375  -0.695  0.00  0.00    -0.343 N 
ATOM     27  H   UNL A   1      10.946   3.612  -1.597  0.00  0.00    +0.000 HD
BRANCH  26  28
ATOM     28  C   UNL A   1      12.416   2.578  -0.430  0.00  0.00    +0.041 A 
ATOM     29  C   UNL A   1      13.683   3.177  -0.265  0.00  0.00    -0.005 A 
ATOM     30  C   UNL A   1      14.756   2.338   0.052  0.00  0.00    +0.047 A 
ATOM     31  N   UNL A   1      14.626   1.004   0.247  0.00  0.00    -0.251 NA
ATOM     32  C   UNL A   1      13.419   0.440   0.103  0.00  0.00    +0.073 A 
ATOM     33  C   UNL A   1      13.308  -0.932   0.293  0.00  0.00    -0.036 A 
ATOM     34  C   UNL A   1      12.091  -1.603   0.150  0.00  0.00    -0.060 A 
ATOM     35  C   UNL A   1      10.953  -0.890  -0.195  0.00  0.00    -0.061 A 
ATOM     36  C   UNL A   1      11.042   0.488  -0.388  0.00  0.00    -0.051 A 
ATOM     37  C   UNL A   1      12.269   1.177  -0.235  0.00  0.00    +0.021 A 
ATOM     38  C   UNL A   1      16.148   2.874   0.269  0.00  0.00    -0.010 C 
ATOM     39  C   UNL A   1      16.373   4.247  -0.351  0.00  0.00    -0.047 C 
ATOM     40  C   UNL A   1      15.236   5.178   0.039  0.00  0.00    -0.049 C 
ATOM     41  C   UNL A   1      13.907   4.652  -0.501  0.00  0.00    -0.024 C 
ENDBRANCH  26  28
ENDBRANCH  25  26
ENDBRANCH  24  25
ENDBRANCH  23  24
ENDBRANCH  22  23
ENDBRANCH   1  22
TORSDOF 13
