MODEL 1
REMARK VINA RESULT:    -7.662      0.000      0.000
REMARK INTER + INTRA:         -16.423
REMARK INTER:                 -13.261
REMARK INTRA:                  -3.163
REMARK UNBOUND:                -3.163
REMARK  Name = cpd145.pdb
REMARK  15 active torsions:
REMARK  status: ('A' for Active; 'I' for Inactive)
REMARK    1  A    between atoms: C_1  and  O_2
REMARK    2  A    between atoms: O_2  and  C_3
REMARK    3  A    between atoms: C_5  and  C_6
REMARK    4  A    between atoms: C_7  and  C_8
REMARK    5  A    between atoms: C_7  and  C_11
REMARK    6  A    between atoms: C_8  and  C_9
REMARK    7  A    between atoms: N_13  and  C_14
REMARK    8  A    between atoms: C_14  and  C_15
REMARK    9  A    between atoms: C_15  and  C_16
REMARK   10  A    between atoms: C_16  and  C_17
REMARK   11  A    between atoms: C_17  and  C_18
REMARK   12  A    between atoms: C_18  and  C_19
REMARK   13  A    between atoms: C_19  and  N_20
REMARK   14  A    between atoms: N_20  and  C_21
REMARK   15  A    between atoms: C_37  and  O_38
REMARK                            x       y       z     vdW  Elec       q    Type
REMARK                         _______ _______ _______ _____ _____    ______ ____
ROOT
ATOM      1  C   UNL A   1      31.775 -33.201 -28.798  0.00  0.00    -0.037 C 
ENDROOT
BRANCH   1   2
ATOM      2  C   UNL A   1      30.736 -33.875 -29.689  0.00  0.00    +0.012 C 
BRANCH   2   5
ATOM      3  C   UNL A   1      31.340 -36.188 -30.198  0.00  0.00    +0.247 C 
ATOM      4  O   UNL A   1      30.839 -36.615 -29.164  0.00  0.00    -0.270 OA
ATOM      5  N   UNL A   1      31.324 -34.862 -30.569  0.00  0.00    -0.311 N 
ATOM      6  H   UNL A   1      31.711 -34.587 -31.431  0.00  0.00    +0.000 HD
BRANCH   3   8
ATOM      7  C   UNL A   1      32.276 -38.373 -30.759  0.00  0.00    -0.039 C 
ATOM      8  C   UNL A   1      32.063 -37.094 -31.126  0.00  0.00    +0.079 C 
BRANCH   7  11
ATOM      9  C   UNL A   1      33.261 -41.043 -33.224  0.00  0.00    +0.162 A 
ATOM     10  C   UNL A   1      32.515 -40.098 -32.511  0.00  0.00    -0.009 A 
ATOM     11  C   UNL A   1      33.101 -39.358 -31.471  0.00  0.00    -0.021 A 
ATOM     12  C   UNL A   1      34.450 -39.554 -31.164  0.00  0.00    -0.051 A 
ATOM     13  C   UNL A   1      35.199 -40.505 -31.857  0.00  0.00    -0.016 A 
ATOM     14  C   UNL A   1      34.602 -41.246 -32.875  0.00  0.00    +0.158 A 
BRANCH   9  16
ATOM     15  C   UNL A   1      32.524 -41.179 -35.489  0.00  0.00    +0.079 C 
ATOM     16  O   UNL A   1      32.774 -41.818 -34.245  0.00  0.00    -0.491 OA
ENDBRANCH   9  16
BRANCH  14  17
ATOM     17  O   UNL A   1      35.336 -42.183 -33.553  0.00  0.00    -0.503 OA
ATOM     18  H   UNL A   1      35.439 -42.114 -34.482  0.00  0.00    +0.000 HD
ENDBRANCH  14  17
ENDBRANCH   7  11
BRANCH   8  19
ATOM     19  C   UNL A   1      32.676 -36.509 -32.347  0.00  0.00    +0.165 C 
ATOM     20  C   UNL A   1      31.954 -36.695 -33.654  0.00  0.00    -0.001 C 
ATOM     21  O   UNL A   1      33.765 -35.939 -32.282  0.00  0.00    -0.292 OA
ENDBRANCH   8  19
ENDBRANCH   3   8
ENDBRANCH   2   5
ENDBRANCH   1   2
BRANCH   1  22
ATOM     22  C   UNL A   1      33.211 -33.500 -29.241  0.00  0.00    -0.052 C 
BRANCH  22  23
ATOM     23  C   UNL A   1      33.879 -32.325 -29.961  0.00  0.00    -0.052 C 
BRANCH  23  24
ATOM     24  C   UNL A   1      34.649 -32.796 -31.198  0.00  0.00    -0.037 C 
BRANCH  24  25
ATOM     25  C   UNL A   1      35.994 -33.431 -30.838  0.00  0.00    +0.009 C 
BRANCH  25  26
ATOM     26  N   UNL A   1      36.126 -34.729 -31.515  0.00  0.00    -0.343 N 
ATOM     27  H   UNL A   1      35.689 -34.957 -32.366  0.00  0.00    +0.000 HD
BRANCH  26  28
ATOM     28  C   UNL A   1      36.968 -35.620 -30.780  0.00  0.00    +0.041 A 
ATOM     29  C   UNL A   1      36.475 -36.319 -29.658  0.00  0.00    -0.005 A 
ATOM     30  C   UNL A   1      37.340 -37.218 -29.027  0.00  0.00    +0.047 A 
ATOM     31  N   UNL A   1      38.596 -37.475 -29.466  0.00  0.00    -0.251 NA
ATOM     32  C   UNL A   1      39.057 -36.820 -30.540  0.00  0.00    +0.073 A 
ATOM     33  C   UNL A   1      40.352 -37.086 -30.966  0.00  0.00    -0.036 A 
ATOM     34  C   UNL A   1      40.917 -36.439 -32.068  0.00  0.00    -0.060 A 
ATOM     35  C   UNL A   1      40.174 -35.498 -32.763  0.00  0.00    -0.061 A 
ATOM     36  C   UNL A   1      38.871 -35.218 -32.354  0.00  0.00    -0.051 A 
ATOM     37  C   UNL A   1      38.288 -35.876 -31.245  0.00  0.00    +0.021 A 
ATOM     38  C   UNL A   1      36.911 -38.031 -27.833  0.00  0.00    -0.010 C 
ATOM     39  C   UNL A   1      35.705 -37.450 -27.105  0.00  0.00    -0.047 C 
ATOM     40  C   UNL A   1      34.612 -37.118 -28.108  0.00  0.00    -0.049 C 
ATOM     41  C   UNL A   1      35.098 -36.056 -29.095  0.00  0.00    -0.024 C 
ENDBRANCH  26  28
ENDBRANCH  25  26
ENDBRANCH  24  25
ENDBRANCH  23  24
ENDBRANCH  22  23
ENDBRANCH   1  22
TORSDOF 13
ENDMDL
MODEL 2
REMARK VINA RESULT:    -7.367      3.489      5.820
REMARK INTER + INTRA:         -15.913
REMARK INTER:                 -13.559
REMARK INTRA:                  -2.354
REMARK UNBOUND:                -3.163
REMARK  Name = cpd145.pdb
REMARK  15 active torsions:
REMARK  status: ('A' for Active; 'I' for Inactive)
REMARK    1  A    between atoms: C_1  and  O_2
REMARK    2  A    between atoms: O_2  and  C_3
REMARK    3  A    between atoms: C_5  and  C_6
REMARK    4  A    between atoms: C_7  and  C_8
REMARK    5  A    between atoms: C_7  and  C_11
REMARK    6  A    between atoms: C_8  and  C_9
REMARK    7  A    between atoms: N_13  and  C_14
REMARK    8  A    between atoms: C_14  and  C_15
REMARK    9  A    between atoms: C_15  and  C_16
REMARK   10  A    between atoms: C_16  and  C_17
REMARK   11  A    between atoms: C_17  and  C_18
REMARK   12  A    between atoms: C_18  and  C_19
REMARK   13  A    between atoms: C_19  and  N_20
REMARK   14  A    between atoms: N_20  and  C_21
REMARK   15  A    between atoms: C_37  and  O_38
REMARK                            x       y       z     vdW  Elec       q    Type
REMARK                         _______ _______ _______ _____ _____    ______ ____
ROOT
ATOM      1  C   UNL A   1      32.788 -34.297 -31.042  0.00  0.00    -0.037 C 
ENDROOT
BRANCH   1   2
ATOM      2  C   UNL A   1      31.718 -33.939 -30.014  0.00  0.00    +0.012 C 
BRANCH   2   5
ATOM      3  C   UNL A   1      31.517 -34.576 -27.662  0.00  0.00    +0.247 C 
ATOM      4  O   UNL A   1      31.519 -33.412 -27.280  0.00  0.00    -0.270 OA
ATOM      5  N   UNL A   1      31.583 -34.950 -28.987  0.00  0.00    -0.311 N 
ATOM      6  H   UNL A   1      31.540 -35.902 -29.233  0.00  0.00    +0.000 HD
BRANCH   3   8
ATOM      7  C   UNL A   1      32.293 -35.649 -25.611  0.00  0.00    -0.039 C 
ATOM      8  C   UNL A   1      31.490 -35.700 -26.692  0.00  0.00    +0.079 C 
BRANCH   7  11
ATOM      9  C   UNL A   1      31.957 -37.715 -22.481  0.00  0.00    +0.162 A 
ATOM     10  C   UNL A   1      31.788 -36.707 -23.436  0.00  0.00    -0.009 A 
ATOM     11  C   UNL A   1      32.514 -36.728 -24.638  0.00  0.00    -0.021 A 
ATOM     12  C   UNL A   1      33.396 -37.782 -24.890  0.00  0.00    -0.051 A 
ATOM     13  C   UNL A   1      33.586 -38.784 -23.939  0.00  0.00    -0.016 A 
ATOM     14  C   UNL A   1      32.873 -38.743 -22.741  0.00  0.00    +0.158 A 
BRANCH   9  16
ATOM     15  C   UNL A   1      30.053 -37.109 -21.181  0.00  0.00    +0.079 C 
ATOM     16  O   UNL A   1      31.304 -37.774 -21.278  0.00  0.00    -0.491 OA
ENDBRANCH   9  16
BRANCH  14  17
ATOM     17  O   UNL A   1      33.061 -39.725 -21.805  0.00  0.00    -0.503 OA
ATOM     18  H   UNL A   1      33.927 -39.940 -21.520  0.00  0.00    +0.000 HD
ENDBRANCH  14  17
ENDBRANCH   7  11
BRANCH   8  19
ATOM     19  C   UNL A   1      30.706 -36.913 -27.039  0.00  0.00    +0.165 C 
ATOM     20  C   UNL A   1      29.342 -37.069 -26.425  0.00  0.00    -0.001 C 
ATOM     21  O   UNL A   1      31.194 -37.779 -27.766  0.00  0.00    -0.292 OA
ENDBRANCH   8  19
ENDBRANCH   3   8
ENDBRANCH   2   5
ENDBRANCH   1   2
BRANCH   1  22
ATOM     22  C   UNL A   1      33.228 -33.089 -31.875  0.00  0.00    -0.052 C 
BRANCH  22  23
ATOM     23  C   UNL A   1      34.279 -32.222 -31.175  0.00  0.00    -0.052 C 
BRANCH  23  24
ATOM     24  C   UNL A   1      35.278 -33.081 -30.395  0.00  0.00    -0.037 C 
BRANCH  24  25
ATOM     25  C   UNL A   1      36.490 -33.477 -31.244  0.00  0.00    +0.009 C 
BRANCH  25  26
ATOM     26  N   UNL A   1      36.384 -34.891 -31.629  0.00  0.00    -0.343 N 
ATOM     27  H   UNL A   1      35.800 -35.227 -32.346  0.00  0.00    +0.000 HD
BRANCH  26  28
ATOM     28  C   UNL A   1      37.235 -35.717 -30.832  0.00  0.00    +0.041 A 
ATOM     29  C   UNL A   1      36.731 -36.393 -29.700  0.00  0.00    -0.005 A 
ATOM     30  C   UNL A   1      37.609 -37.230 -29.006  0.00  0.00    +0.047 A 
ATOM     31  N   UNL A   1      38.889 -37.450 -29.390  0.00  0.00    -0.251 NA
ATOM     32  C   UNL A   1      39.361 -36.817 -30.473  0.00  0.00    +0.073 A 
ATOM     33  C   UNL A   1      40.681 -37.045 -30.843  0.00  0.00    -0.036 A 
ATOM     34  C   UNL A   1      41.258 -36.417 -31.950  0.00  0.00    -0.060 A 
ATOM     35  C   UNL A   1      40.502 -35.535 -32.707  0.00  0.00    -0.061 A 
ATOM     36  C   UNL A   1      39.175 -35.294 -32.354  0.00  0.00    -0.051 A 
ATOM     37  C   UNL A   1      38.580 -35.934 -31.240  0.00  0.00    +0.021 A 
ATOM     38  C   UNL A   1      37.171 -38.014 -27.795  0.00  0.00    -0.010 C 
ATOM     39  C   UNL A   1      35.918 -37.458 -27.133  0.00  0.00    -0.047 C 
ATOM     40  C   UNL A   1      34.848 -37.211 -28.185  0.00  0.00    -0.049 C 
ATOM     41  C   UNL A   1      35.325 -36.168 -29.195  0.00  0.00    -0.024 C 
ENDBRANCH  26  28
ENDBRANCH  25  26
ENDBRANCH  24  25
ENDBRANCH  23  24
ENDBRANCH  22  23
ENDBRANCH   1  22
TORSDOF 13
ENDMDL
MODEL 3
REMARK VINA RESULT:    -6.941      3.599      5.973
REMARK INTER + INTRA:         -15.177
REMARK INTER:                 -12.735
REMARK INTRA:                  -2.441
REMARK UNBOUND:                -3.163
REMARK  Name = cpd145.pdb
REMARK  15 active torsions:
REMARK  status: ('A' for Active; 'I' for Inactive)
REMARK    1  A    between atoms: C_1  and  O_2
REMARK    2  A    between atoms: O_2  and  C_3
REMARK    3  A    between atoms: C_5  and  C_6
REMARK    4  A    between atoms: C_7  and  C_8
REMARK    5  A    between atoms: C_7  and  C_11
REMARK    6  A    between atoms: C_8  and  C_9
REMARK    7  A    between atoms: N_13  and  C_14
REMARK    8  A    between atoms: C_14  and  C_15
REMARK    9  A    between atoms: C_15  and  C_16
REMARK   10  A    between atoms: C_16  and  C_17
REMARK   11  A    between atoms: C_17  and  C_18
REMARK   12  A    between atoms: C_18  and  C_19
REMARK   13  A    between atoms: C_19  and  N_20
REMARK   14  A    between atoms: N_20  and  C_21
REMARK   15  A    between atoms: C_37  and  O_38
REMARK                            x       y       z     vdW  Elec       q    Type
REMARK                         _______ _______ _______ _____ _____    ______ ____
ROOT
ATOM      1  C   UNL A   1      32.516 -33.329 -31.562  0.00  0.00    -0.037 C 
ENDROOT
BRANCH   1   2
ATOM      2  C   UNL A   1      31.132 -33.625 -30.993  0.00  0.00    +0.012 C 
BRANCH   2   5
ATOM      3  C   UNL A   1      31.054 -34.140 -28.604  0.00  0.00    +0.247 C 
ATOM      4  O   UNL A   1      30.859 -32.971 -28.292  0.00  0.00    -0.270 OA
ATOM      5  N   UNL A   1      31.177 -34.578 -29.904  0.00  0.00    -0.311 N 
ATOM      6  H   UNL A   1      31.297 -35.537 -30.092  0.00  0.00    +0.000 HD
BRANCH   3   8
ATOM      7  C   UNL A   1      32.462 -35.462 -27.110  0.00  0.00    -0.039 C 
ATOM      8  C   UNL A   1      31.225 -35.189 -27.567  0.00  0.00    +0.079 C 
BRANCH   7  11
ATOM      9  C   UNL A   1      33.237 -37.328 -23.933  0.00  0.00    +0.162 A 
ATOM     10  C   UNL A   1      32.893 -36.311 -24.830  0.00  0.00    -0.009 A 
ATOM     11  C   UNL A   1      32.837 -36.562 -26.211  0.00  0.00    -0.021 A 
ATOM     12  C   UNL A   1      33.105 -37.848 -26.687  0.00  0.00    -0.051 A 
ATOM     13  C   UNL A   1      33.466 -38.865 -25.804  0.00  0.00    -0.016 A 
ATOM     14  C   UNL A   1      33.536 -38.600 -24.437  0.00  0.00    +0.158 A 
BRANCH   9  16
ATOM     15  C   UNL A   1      34.505 -36.567 -22.061  0.00  0.00    +0.079 C 
ATOM     16  O   UNL A   1      33.329 -37.177 -22.574  0.00  0.00    -0.491 OA
ENDBRANCH   9  16
BRANCH  14  17
ATOM     17  O   UNL A   1      33.893 -39.598 -23.570  0.00  0.00    -0.503 OA
ATOM     18  H   UNL A   1      34.389 -40.331 -23.878  0.00  0.00    +0.000 HD
ENDBRANCH  14  17
ENDBRANCH   7  11
BRANCH   8  19
ATOM     19  C   UNL A   1      30.046 -36.017 -27.200  0.00  0.00    +0.165 C 
ATOM     20  C   UNL A   1      29.748 -37.227 -28.043  0.00  0.00    -0.001 C 
ATOM     21  O   UNL A   1      29.319 -35.679 -26.266  0.00  0.00    -0.292 OA
ENDBRANCH   8  19
ENDBRANCH   3   8
ENDBRANCH   2   5
ENDBRANCH   1   2
BRANCH   1  22
ATOM     22  C   UNL A   1      33.230 -32.199 -30.813  0.00  0.00    -0.052 C 
BRANCH  22  23
ATOM     23  C   UNL A   1      34.377 -32.692 -29.926  0.00  0.00    -0.052 C 
BRANCH  23  24
ATOM     24  C   UNL A   1      34.839 -34.091 -30.343  0.00  0.00    -0.037 C 
BRANCH  24  25
ATOM     25  C   UNL A   1      36.215 -34.073 -31.013  0.00  0.00    +0.009 C 
BRANCH  25  26
ATOM     26  N   UNL A   1      36.425 -35.329 -31.748  0.00  0.00    -0.343 N 
ATOM     27  H   UNL A   1      35.969 -35.562 -32.588  0.00  0.00    +0.000 HD
BRANCH  26  28
ATOM     28  C   UNL A   1      37.374 -36.169 -31.088  0.00  0.00    +0.041 A 
ATOM     29  C   UNL A   1      38.754 -35.879 -31.143  0.00  0.00    -0.005 A 
ATOM     30  C   UNL A   1      39.617 -36.712 -30.423  0.00  0.00    +0.047 A 
ATOM     31  N   UNL A   1      39.188 -37.741 -29.654  0.00  0.00    -0.251 NA
ATOM     32  C   UNL A   1      37.875 -38.006 -29.593  0.00  0.00    +0.073 A 
ATOM     33  C   UNL A   1      37.456 -39.074 -28.810  0.00  0.00    -0.036 A 
ATOM     34  C   UNL A   1      36.109 -39.428 -28.701  0.00  0.00    -0.060 A 
ATOM     35  C   UNL A   1      35.152 -38.700 -29.392  0.00  0.00    -0.061 A 
ATOM     36  C   UNL A   1      35.552 -37.622 -30.182  0.00  0.00    -0.051 A 
ATOM     37  C   UNL A   1      36.913 -37.251 -30.290  0.00  0.00    +0.021 A 
ATOM     38  C   UNL A   1      41.106 -36.483 -30.396  0.00  0.00    -0.010 C 
ATOM     39  C   UNL A   1      41.611 -35.635 -31.557  0.00  0.00    -0.047 C 
ATOM     40  C   UNL A   1      40.751 -34.389 -31.692  0.00  0.00    -0.049 C 
ATOM     41  C   UNL A   1      39.305 -34.770 -32.007  0.00  0.00    -0.024 C 
ENDBRANCH  26  28
ENDBRANCH  25  26
ENDBRANCH  24  25
ENDBRANCH  23  24
ENDBRANCH  22  23
ENDBRANCH   1  22
TORSDOF 13
ENDMDL
MODEL 4
REMARK VINA RESULT:    -6.715     18.052     20.647
REMARK INTER + INTRA:         -14.785
REMARK INTER:                 -12.127
REMARK INTRA:                  -2.657
REMARK UNBOUND:                -3.163
REMARK  Name = cpd145.pdb
REMARK  15 active torsions:
REMARK  status: ('A' for Active; 'I' for Inactive)
REMARK    1  A    between atoms: C_1  and  O_2
REMARK    2  A    between atoms: O_2  and  C_3
REMARK    3  A    between atoms: C_5  and  C_6
REMARK    4  A    between atoms: C_7  and  C_8
REMARK    5  A    between atoms: C_7  and  C_11
REMARK    6  A    between atoms: C_8  and  C_9
REMARK    7  A    between atoms: N_13  and  C_14
REMARK    8  A    between atoms: C_14  and  C_15
REMARK    9  A    between atoms: C_15  and  C_16
REMARK   10  A    between atoms: C_16  and  C_17
REMARK   11  A    between atoms: C_17  and  C_18
REMARK   12  A    between atoms: C_18  and  C_19
REMARK   13  A    between atoms: C_19  and  N_20
REMARK   14  A    between atoms: N_20  and  C_21
REMARK   15  A    between atoms: C_37  and  O_38
REMARK                            x       y       z     vdW  Elec       q    Type
REMARK                         _______ _______ _______ _____ _____    ______ ____
ROOT
ATOM      1  C   UNL A   1      45.068 -17.178 -33.392  0.00  0.00    -0.037 C 
ENDROOT
BRANCH   1   2
ATOM      2  C   UNL A   1      46.275 -17.559 -34.246  0.00  0.00    +0.012 C 
BRANCH   2   5
ATOM      3  C   UNL A   1      46.230 -19.133 -36.116  0.00  0.00    +0.247 C 
ATOM      4  O   UNL A   1      46.793 -20.013 -35.474  0.00  0.00    -0.270 OA
ATOM      5  N   UNL A   1      45.903 -17.898 -35.603  0.00  0.00    -0.311 N 
ATOM      6  H   UNL A   1      45.417 -17.246 -36.159  0.00  0.00    +0.000 HD
BRANCH   3   8
ATOM      7  C   UNL A   1      45.867 -20.580 -38.049  0.00  0.00    -0.039 C 
ATOM      8  C   UNL A   1      45.896 -19.329 -37.550  0.00  0.00    +0.079 C 
BRANCH   7  11
ATOM      9  C   UNL A   1      46.730 -21.833 -41.493  0.00  0.00    +0.162 A 
ATOM     10  C   UNL A   1      46.829 -21.458 -40.149  0.00  0.00    -0.009 A 
ATOM     11  C   UNL A   1      45.713 -20.951 -39.462  0.00  0.00    -0.021 A 
ATOM     12  C   UNL A   1      44.488 -20.844 -40.126  0.00  0.00    -0.051 A 
ATOM     13  C   UNL A   1      44.382 -21.198 -41.471  0.00  0.00    -0.016 A 
ATOM     14  C   UNL A   1      45.500 -21.684 -42.147  0.00  0.00    +0.158 A 
BRANCH   9  16
ATOM     15  C   UNL A   1      48.475 -23.441 -41.732  0.00  0.00    +0.079 C 
ATOM     16  O   UNL A   1      47.763 -22.326 -42.248  0.00  0.00    -0.491 OA
ENDBRANCH   9  16
BRANCH  14  17
ATOM     17  O   UNL A   1      45.398 -22.028 -43.468  0.00  0.00    -0.503 OA
ATOM     18  H   UNL A   1      44.605 -22.406 -43.794  0.00  0.00    +0.000 HD
ENDBRANCH  14  17
ENDBRANCH   7  11
BRANCH   8  19
ATOM     19  C   UNL A   1      45.778 -18.128 -38.417  0.00  0.00    +0.165 C 
ATOM     20  C   UNL A   1      47.035 -17.584 -39.039  0.00  0.00    -0.001 C 
ATOM     21  O   UNL A   1      44.687 -17.579 -38.569  0.00  0.00    -0.292 OA
ENDBRANCH   8  19
ENDBRANCH   3   8
ENDBRANCH   2   5
ENDBRANCH   1   2
BRANCH   1  22
ATOM     22  C   UNL A   1      43.740 -17.391 -34.125  0.00  0.00    -0.052 C 
BRANCH  22  23
ATOM     23  C   UNL A   1      42.876 -18.491 -33.502  0.00  0.00    -0.052 C 
BRANCH  23  24
ATOM     24  C   UNL A   1      43.500 -19.874 -33.710  0.00  0.00    -0.037 C 
BRANCH  24  25
ATOM     25  C   UNL A   1      43.008 -20.546 -34.994  0.00  0.00    +0.009 C 
BRANCH  25  26
ATOM     26  N   UNL A   1      41.966 -21.531 -34.670  0.00  0.00    -0.343 N 
ATOM     27  H   UNL A   1      42.090 -22.284 -34.049  0.00  0.00    +0.000 HD
BRANCH  26  28
ATOM     28  C   UNL A   1      40.750 -21.257 -35.368  0.00  0.00    +0.041 A 
ATOM     29  C   UNL A   1      39.641 -20.700 -34.696  0.00  0.00    -0.005 A 
ATOM     30  C   UNL A   1      38.507 -20.404 -35.459  0.00  0.00    +0.047 A 
ATOM     31  N   UNL A   1      38.443 -20.585 -36.800  0.00  0.00    -0.251 NA
ATOM     32  C   UNL A   1      39.503 -21.100 -37.438  0.00  0.00    +0.073 A 
ATOM     33  C   UNL A   1      39.414 -21.291 -38.811  0.00  0.00    -0.036 A 
ATOM     34  C   UNL A   1      40.465 -21.835 -39.553  0.00  0.00    -0.060 A 
ATOM     35  C   UNL A   1      41.638 -22.203 -38.910  0.00  0.00    -0.061 A 
ATOM     36  C   UNL A   1      41.749 -22.018 -37.532  0.00  0.00    -0.051 A 
ATOM     37  C   UNL A   1      40.692 -21.457 -36.775  0.00  0.00    +0.021 A 
ATOM     38  C   UNL A   1      37.274 -19.790 -34.846  0.00  0.00    -0.010 C 
ATOM     39  C   UNL A   1      37.185 -19.984 -33.338  0.00  0.00    -0.047 C 
ATOM     40  C   UNL A   1      38.508 -19.600 -32.693  0.00  0.00    -0.049 C 
ATOM     41  C   UNL A   1      39.630 -20.505 -33.198  0.00  0.00    -0.024 C 
ENDBRANCH  26  28
ENDBRANCH  25  26
ENDBRANCH  24  25
ENDBRANCH  23  24
ENDBRANCH  22  23
ENDBRANCH   1  22
TORSDOF 13
ENDMDL
MODEL 5
REMARK VINA RESULT:    -6.689     17.201     20.807
REMARK INTER + INTRA:         -14.740
REMARK INTER:                 -12.681
REMARK INTRA:                  -2.059
REMARK UNBOUND:                -3.163
REMARK  Name = cpd145.pdb
REMARK  15 active torsions:
REMARK  status: ('A' for Active; 'I' for Inactive)
REMARK    1  A    between atoms: C_1  and  O_2
REMARK    2  A    between atoms: O_2  and  C_3
REMARK    3  A    between atoms: C_5  and  C_6
REMARK    4  A    between atoms: C_7  and  C_8
REMARK    5  A    between atoms: C_7  and  C_11
REMARK    6  A    between atoms: C_8  and  C_9
REMARK    7  A    between atoms: N_13  and  C_14
REMARK    8  A    between atoms: C_14  and  C_15
REMARK    9  A    between atoms: C_15  and  C_16
REMARK   10  A    between atoms: C_16  and  C_17
REMARK   11  A    between atoms: C_17  and  C_18
REMARK   12  A    between atoms: C_18  and  C_19
REMARK   13  A    between atoms: C_19  and  N_20
REMARK   14  A    between atoms: N_20  and  C_21
REMARK   15  A    between atoms: C_37  and  O_38
REMARK                            x       y       z     vdW  Elec       q    Type
REMARK                         _______ _______ _______ _____ _____    ______ ____
ROOT
ATOM      1  C   UNL A   1      45.075 -16.301 -35.167  0.00  0.00    -0.037 C 
ENDROOT
BRANCH   1   2
ATOM      2  C   UNL A   1      43.947 -16.599 -34.184  0.00  0.00    +0.012 C 
BRANCH   2   5
ATOM      3  C   UNL A   1      41.914 -17.915 -34.519  0.00  0.00    +0.247 C 
ATOM      4  O   UNL A   1      41.183 -16.940 -34.384  0.00  0.00    -0.270 OA
ATOM      5  N   UNL A   1      43.289 -17.857 -34.466  0.00  0.00    -0.311 N 
ATOM      6  H   UNL A   1      43.823 -18.670 -34.619  0.00  0.00    +0.000 HD
BRANCH   3   8
ATOM      7  C   UNL A   1      40.391 -19.706 -33.862  0.00  0.00    -0.039 C 
ATOM      8  C   UNL A   1      41.348 -19.274 -34.707  0.00  0.00    +0.079 C 
BRANCH   7  11
ATOM      9  C   UNL A   1      39.926 -23.296 -32.826  0.00  0.00    +0.162 A 
ATOM     10  C   UNL A   1      40.426 -21.994 -32.929  0.00  0.00    -0.009 A 
ATOM     11  C   UNL A   1      39.833 -21.064 -33.798  0.00  0.00    -0.021 A 
ATOM     12  C   UNL A   1      38.716 -21.441 -34.549  0.00  0.00    -0.051 A 
ATOM     13  C   UNL A   1      38.219 -22.741 -34.468  0.00  0.00    -0.016 A 
ATOM     14  C   UNL A   1      38.827 -23.661 -33.615  0.00  0.00    +0.158 A 
BRANCH   9  16
ATOM     15  C   UNL A   1      41.662 -23.988 -31.344  0.00  0.00    +0.079 C 
ATOM     16  O   UNL A   1      40.444 -24.274 -32.017  0.00  0.00    -0.491 OA
ENDBRANCH   9  16
BRANCH  14  17
ATOM     17  O   UNL A   1      38.342 -24.939 -33.538  0.00  0.00    -0.503 OA
ATOM     18  H   UNL A   1      38.688 -25.606 -34.098  0.00  0.00    +0.000 HD
ENDBRANCH  14  17
ENDBRANCH   7  11
BRANCH   8  19
ATOM     19  C   UNL A   1      41.979 -20.169 -35.710  0.00  0.00    +0.165 C 
ATOM     20  C   UNL A   1      41.286 -20.342 -37.034  0.00  0.00    -0.001 C 
ATOM     21  O   UNL A   1      43.010 -20.782 -35.432  0.00  0.00    -0.292 OA
ENDBRANCH   8  19
ENDBRANCH   3   8
ENDBRANCH   2   5
ENDBRANCH   1   2
BRANCH   1  22
ATOM     22  C   UNL A   1      45.604 -17.565 -35.853  0.00  0.00    -0.052 C 
BRANCH  22  23
ATOM     23  C   UNL A   1      47.127 -17.704 -35.772  0.00  0.00    -0.052 C 
BRANCH  23  24
ATOM     24  C   UNL A   1      47.594 -19.044 -36.347  0.00  0.00    -0.037 C 
BRANCH  24  25
ATOM     25  C   UNL A   1      46.745 -19.493 -37.539  0.00  0.00    +0.009 C 
BRANCH  25  26
ATOM     26  N   UNL A   1      47.434 -19.157 -38.793  0.00  0.00    -0.343 N 
ATOM     27  H   UNL A   1      48.367 -18.849 -38.846  0.00  0.00    +0.000 HD
BRANCH  26  28
ATOM     28  C   UNL A   1      46.580 -19.335 -39.924  0.00  0.00    +0.041 A 
ATOM     29  C   UNL A   1      46.532 -20.570 -40.605  0.00  0.00    -0.005 A 
ATOM     30  C   UNL A   1      45.628 -20.686 -41.666  0.00  0.00    +0.047 A 
ATOM     31  N   UNL A   1      44.780 -19.696 -42.034  0.00  0.00    -0.251 NA
ATOM     32  C   UNL A   1      44.819 -18.529 -41.377  0.00  0.00    +0.073 A 
ATOM     33  C   UNL A   1      43.951 -17.520 -41.778  0.00  0.00    -0.036 A 
ATOM     34  C   UNL A   1      43.934 -16.269 -41.157  0.00  0.00    -0.060 A 
ATOM     35  C   UNL A   1      44.806 -16.012 -40.110  0.00  0.00    -0.061 A 
ATOM     36  C   UNL A   1      45.683 -17.011 -39.690  0.00  0.00    -0.051 A 
ATOM     37  C   UNL A   1      45.700 -18.285 -40.307  0.00  0.00    +0.021 A 
ATOM     38  C   UNL A   1      45.481 -21.966 -42.449  0.00  0.00    -0.010 C 
ATOM     39  C   UNL A   1      46.683 -22.893 -42.328  0.00  0.00    -0.047 C 
ATOM     40  C   UNL A   1      47.064 -23.052 -40.865  0.00  0.00    -0.049 C 
ATOM     41  C   UNL A   1      47.472 -21.704 -40.271  0.00  0.00    -0.024 C 
ENDBRANCH  26  28
ENDBRANCH  25  26
ENDBRANCH  24  25
ENDBRANCH  23  24
ENDBRANCH  22  23
ENDBRANCH   1  22
TORSDOF 13
ENDMDL
MODEL 6
REMARK VINA RESULT:    -6.677     18.824     22.157
REMARK INTER + INTRA:         -14.719
REMARK INTER:                 -10.566
REMARK INTRA:                  -4.153
REMARK UNBOUND:                -3.163
REMARK  Name = cpd145.pdb
REMARK  15 active torsions:
REMARK  status: ('A' for Active; 'I' for Inactive)
REMARK    1  A    between atoms: C_1  and  O_2
REMARK    2  A    between atoms: O_2  and  C_3
REMARK    3  A    between atoms: C_5  and  C_6
REMARK    4  A    between atoms: C_7  and  C_8
REMARK    5  A    between atoms: C_7  and  C_11
REMARK    6  A    between atoms: C_8  and  C_9
REMARK    7  A    between atoms: N_13  and  C_14
REMARK    8  A    between atoms: C_14  and  C_15
REMARK    9  A    between atoms: C_15  and  C_16
REMARK   10  A    between atoms: C_16  and  C_17
REMARK   11  A    between atoms: C_17  and  C_18
REMARK   12  A    between atoms: C_18  and  C_19
REMARK   13  A    between atoms: C_19  and  N_20
REMARK   14  A    between atoms: N_20  and  C_21
REMARK   15  A    between atoms: C_37  and  O_38
REMARK                            x       y       z     vdW  Elec       q    Type
REMARK                         _______ _______ _______ _____ _____    ______ ____
ROOT
ATOM      1  C   UNL A   1      45.359 -14.052 -39.200  0.00  0.00    -0.037 C 
ENDROOT
BRANCH   1   2
ATOM      2  C   UNL A   1      44.596 -14.558 -37.980  0.00  0.00    +0.012 C 
BRANCH   2   5
ATOM      3  C   UNL A   1      43.374 -16.574 -37.332  0.00  0.00    +0.247 C 
ATOM      4  O   UNL A   1      43.748 -16.506 -36.167  0.00  0.00    -0.270 OA
ATOM      5  N   UNL A   1      43.708 -15.655 -38.302  0.00  0.00    -0.311 N 
ATOM      6  H   UNL A   1      43.345 -15.745 -39.213  0.00  0.00    +0.000 HD
BRANCH   3   8
ATOM      7  C   UNL A   1      43.051 -18.961 -37.731  0.00  0.00    -0.039 C 
ATOM      8  C   UNL A   1      42.547 -17.714 -37.803  0.00  0.00    +0.079 C 
BRANCH   7  11
ATOM      9  C   UNL A   1      41.146 -22.204 -37.910  0.00  0.00    +0.162 A 
ATOM     10  C   UNL A   1      41.745 -21.036 -37.426  0.00  0.00    -0.009 A 
ATOM     11  C   UNL A   1      42.448 -20.179 -38.289  0.00  0.00    -0.021 A 
ATOM     12  C   UNL A   1      42.526 -20.488 -39.650  0.00  0.00    -0.051 A 
ATOM     13  C   UNL A   1      41.947 -21.657 -40.141  0.00  0.00    -0.016 A 
ATOM     14  C   UNL A   1      41.267 -22.509 -39.271  0.00  0.00    +0.158 A 
BRANCH   9  16
ATOM     15  C   UNL A   1      40.238 -22.775 -35.780  0.00  0.00    +0.079 C 
ATOM     16  O   UNL A   1      40.452 -23.105 -37.145  0.00  0.00    -0.491 OA
ENDBRANCH   9  16
BRANCH  14  17
ATOM     17  O   UNL A   1      40.702 -23.660 -39.753  0.00  0.00    -0.503 OA
ATOM     18  H   UNL A   1      40.902 -24.483 -39.352  0.00  0.00    +0.000 HD
ENDBRANCH  14  17
ENDBRANCH   7  11
BRANCH   8  19
ATOM     19  C   UNL A   1      41.265 -17.418 -38.494  0.00  0.00    +0.165 C 
ATOM     20  C   UNL A   1      39.987 -17.670 -37.742  0.00  0.00    -0.001 C 
ATOM     21  O   UNL A   1      41.266 -17.028 -39.662  0.00  0.00    -0.292 OA
ENDBRANCH   8  19
ENDBRANCH   3   8
ENDBRANCH   2   5
ENDBRANCH   1   2
BRANCH   1  22
ATOM     22  C   UNL A   1      46.815 -13.700 -38.878  0.00  0.00    -0.052 C 
BRANCH  22  23
ATOM     23  C   UNL A   1      47.827 -14.535 -39.667  0.00  0.00    -0.052 C 
BRANCH  23  24
ATOM     24  C   UNL A   1      47.189 -15.146 -40.919  0.00  0.00    -0.037 C 
BRANCH  24  25
ATOM     25  C   UNL A   1      47.253 -16.675 -40.916  0.00  0.00    +0.009 C 
BRANCH  25  26
ATOM     26  N   UNL A   1      46.004 -17.222 -40.370  0.00  0.00    -0.343 N 
ATOM     27  H   UNL A   1      45.125 -16.788 -40.454  0.00  0.00    +0.000 HD
BRANCH  26  28
ATOM     28  C   UNL A   1      46.225 -18.465 -39.699  0.00  0.00    +0.041 A 
ATOM     29  C   UNL A   1      46.606 -18.494 -38.341  0.00  0.00    -0.005 A 
ATOM     30  C   UNL A   1      46.744 -19.748 -37.738  0.00  0.00    +0.047 A 
ATOM     31  N   UNL A   1      46.491 -20.915 -38.377  0.00  0.00    -0.251 NA
ATOM     32  C   UNL A   1      46.116 -20.883 -39.664  0.00  0.00    +0.073 A 
ATOM     33  C   UNL A   1      45.875 -22.091 -40.307  0.00  0.00    -0.036 A 
ATOM     34  C   UNL A   1      45.493 -22.150 -41.650  0.00  0.00    -0.060 A 
ATOM     35  C   UNL A   1      45.351 -20.976 -42.374  0.00  0.00    -0.061 A 
ATOM     36  C   UNL A   1      45.587 -19.754 -41.746  0.00  0.00    -0.051 A 
ATOM     37  C   UNL A   1      45.963 -19.684 -40.384  0.00  0.00    +0.021 A 
ATOM     38  C   UNL A   1      47.128 -19.895 -36.287  0.00  0.00    -0.010 C 
ATOM     39  C   UNL A   1      47.808 -18.660 -35.711  0.00  0.00    -0.047 C 
ATOM     40  C   UNL A   1      47.001 -17.420 -36.061  0.00  0.00    -0.049 C 
ATOM     41  C   UNL A   1      46.937 -17.234 -37.576  0.00  0.00    -0.024 C 
ENDBRANCH  26  28
ENDBRANCH  25  26
ENDBRANCH  24  25
ENDBRANCH  23  24
ENDBRANCH  22  23
ENDBRANCH   1  22
TORSDOF 13
ENDMDL
MODEL 7
REMARK VINA RESULT:    -6.669     18.151     20.818
REMARK INTER + INTRA:         -14.706
REMARK INTER:                 -11.994
REMARK INTRA:                  -2.712
REMARK UNBOUND:                -3.163
REMARK  Name = cpd145.pdb
REMARK  15 active torsions:
REMARK  status: ('A' for Active; 'I' for Inactive)
REMARK    1  A    between atoms: C_1  and  O_2
REMARK    2  A    between atoms: O_2  and  C_3
REMARK    3  A    between atoms: C_5  and  C_6
REMARK    4  A    between atoms: C_7  and  C_8
REMARK    5  A    between atoms: C_7  and  C_11
REMARK    6  A    between atoms: C_8  and  C_9
REMARK    7  A    between atoms: N_13  and  C_14
REMARK    8  A    between atoms: C_14  and  C_15
REMARK    9  A    between atoms: C_15  and  C_16
REMARK   10  A    between atoms: C_16  and  C_17
REMARK   11  A    between atoms: C_17  and  C_18
REMARK   12  A    between atoms: C_18  and  C_19
REMARK   13  A    between atoms: C_19  and  N_20
REMARK   14  A    between atoms: N_20  and  C_21
REMARK   15  A    between atoms: C_37  and  O_38
REMARK                            x       y       z     vdW  Elec       q    Type
REMARK                         _______ _______ _______ _____ _____    ______ ____
ROOT
ATOM      1  C   UNL A   1      45.076 -17.192 -33.379  0.00  0.00    -0.037 C 
ENDROOT
BRANCH   1   2
ATOM      2  C   UNL A   1      46.280 -17.476 -34.272  0.00  0.00    +0.012 C 
BRANCH   2   5
ATOM      3  C   UNL A   1      46.286 -19.074 -36.122  0.00  0.00    +0.247 C 
ATOM      4  O   UNL A   1      46.926 -19.904 -35.488  0.00  0.00    -0.270 OA
ATOM      5  N   UNL A   1      45.891 -17.857 -35.614  0.00  0.00    -0.311 N 
ATOM      6  H   UNL A   1      45.346 -17.247 -36.162  0.00  0.00    +0.000 HD
BRANCH   3   8
ATOM      7  C   UNL A   1      45.926 -20.572 -38.016  0.00  0.00    -0.039 C 
ATOM      8  C   UNL A   1      45.924 -19.311 -37.543  0.00  0.00    +0.079 C 
BRANCH   7  11
ATOM      9  C   UNL A   1      46.739 -21.890 -41.448  0.00  0.00    +0.162 A 
ATOM     10  C   UNL A   1      46.859 -21.483 -40.115  0.00  0.00    -0.009 A 
ATOM     11  C   UNL A   1      45.750 -20.978 -39.417  0.00  0.00    -0.021 A 
ATOM     12  C   UNL A   1      44.510 -20.904 -40.058  0.00  0.00    -0.051 A 
ATOM     13  C   UNL A   1      44.383 -21.291 -41.392  0.00  0.00    -0.016 A 
ATOM     14  C   UNL A   1      45.495 -21.774 -42.080  0.00  0.00    +0.158 A 
BRANCH   9  16
ATOM     15  C   UNL A   1      48.534 -23.446 -41.666  0.00  0.00    +0.079 C 
ATOM     16  O   UNL A   1      47.765 -22.384 -42.212  0.00  0.00    -0.491 OA
ENDBRANCH   9  16
BRANCH  14  17
ATOM     17  O   UNL A   1      45.371 -22.151 -43.391  0.00  0.00    -0.503 OA
ATOM     18  H   UNL A   1      44.578 -22.548 -43.691  0.00  0.00    +0.000 HD
ENDBRANCH  14  17
ENDBRANCH   7  11
BRANCH   8  19
ATOM     19  C   UNL A   1      45.741 -18.133 -38.430  0.00  0.00    +0.165 C 
ATOM     20  C   UNL A   1      46.958 -17.575 -39.116  0.00  0.00    -0.001 C 
ATOM     21  O   UNL A   1      44.632 -17.612 -38.549  0.00  0.00    -0.292 OA
ENDBRANCH   8  19
ENDBRANCH   3   8
ENDBRANCH   2   5
ENDBRANCH   1   2
BRANCH   1  22
ATOM     22  C   UNL A   1      43.744 -17.454 -34.088  0.00  0.00    -0.052 C 
BRANCH  22  23
ATOM     23  C   UNL A   1      42.932 -18.586 -33.450  0.00  0.00    -0.052 C 
BRANCH  23  24
ATOM     24  C   UNL A   1      43.606 -19.944 -33.667  0.00  0.00    -0.037 C 
BRANCH  24  25
ATOM     25  C   UNL A   1      43.133 -20.628 -34.953  0.00  0.00    +0.009 C 
BRANCH  25  26
ATOM     26  N   UNL A   1      42.024 -21.542 -34.648  0.00  0.00    -0.343 N 
ATOM     27  H   UNL A   1      42.091 -22.309 -34.035  0.00  0.00    +0.000 HD
BRANCH  26  28
ATOM     28  C   UNL A   1      40.836 -21.179 -35.355  0.00  0.00    +0.041 A 
ATOM     29  C   UNL A   1      40.736 -21.378 -36.748  0.00  0.00    -0.005 A 
ATOM     30  C   UNL A   1      39.520 -21.054 -37.359  0.00  0.00    +0.047 A 
ATOM     31  N   UNL A   1      38.440 -20.606 -36.676  0.00  0.00    -0.251 NA
ATOM     32  C   UNL A   1      38.534 -20.431 -35.351  0.00  0.00    +0.073 A 
ATOM     33  C   UNL A   1      37.419 -19.957 -34.670  0.00  0.00    -0.036 A 
ATOM     34  C   UNL A   1      37.434 -19.734 -33.291  0.00  0.00    -0.060 A 
ATOM     35  C   UNL A   1      38.591 -19.985 -32.570  0.00  0.00    -0.061 A 
ATOM     36  C   UNL A   1      39.720 -20.463 -33.233  0.00  0.00    -0.051 A 
ATOM     37  C   UNL A   1      39.710 -20.702 -34.628  0.00  0.00    +0.021 A 
ATOM     38  C   UNL A   1      39.297 -21.245 -38.837  0.00  0.00    -0.010 C 
ATOM     39  C   UNL A   1      40.589 -21.329 -39.640  0.00  0.00    -0.047 C 
ATOM     40  C   UNL A   1      41.539 -22.316 -38.980  0.00  0.00    -0.049 C 
ATOM     41  C   UNL A   1      41.911 -21.841 -37.576  0.00  0.00    -0.024 C 
ENDBRANCH  26  28
ENDBRANCH  25  26
ENDBRANCH  24  25
ENDBRANCH  23  24
ENDBRANCH  22  23
ENDBRANCH   1  22
TORSDOF 13
ENDMDL
MODEL 8
REMARK VINA RESULT:    -6.629     16.182     20.328
REMARK INTER + INTRA:         -14.635
REMARK INTER:                 -10.287
REMARK INTRA:                  -4.348
REMARK UNBOUND:                -3.163
REMARK  Name = cpd145.pdb
REMARK  15 active torsions:
REMARK  status: ('A' for Active; 'I' for Inactive)
REMARK    1  A    between atoms: C_1  and  O_2
REMARK    2  A    between atoms: O_2  and  C_3
REMARK    3  A    between atoms: C_5  and  C_6
REMARK    4  A    between atoms: C_7  and  C_8
REMARK    5  A    between atoms: C_7  and  C_11
REMARK    6  A    between atoms: C_8  and  C_9
REMARK    7  A    between atoms: N_13  and  C_14
REMARK    8  A    between atoms: C_14  and  C_15
REMARK    9  A    between atoms: C_15  and  C_16
REMARK   10  A    between atoms: C_16  and  C_17
REMARK   11  A    between atoms: C_17  and  C_18
REMARK   12  A    between atoms: C_18  and  C_19
REMARK   13  A    between atoms: C_19  and  N_20
REMARK   14  A    between atoms: N_20  and  C_21
REMARK   15  A    between atoms: C_37  and  O_38
REMARK                            x       y       z     vdW  Elec       q    Type
REMARK                         _______ _______ _______ _____ _____    ______ ____
ROOT
ATOM      1  C   UNL A   1      46.041 -19.843 -38.225  0.00  0.00    -0.037 C 
ENDROOT
BRANCH   1   2
ATOM      2  C   UNL A   1      46.315 -20.039 -36.737  0.00  0.00    +0.012 C 
BRANCH   2   5
ATOM      3  C   UNL A   1      45.183 -19.832 -34.580  0.00  0.00    +0.247 C 
ATOM      4  O   UNL A   1      45.969 -20.588 -34.021  0.00  0.00    -0.270 OA
ATOM      5  N   UNL A   1      45.274 -19.472 -35.906  0.00  0.00    -0.311 N 
ATOM      6  H   UNL A   1      44.633 -18.830 -36.288  0.00  0.00    +0.000 HD
BRANCH   3   8
ATOM      7  C   UNL A   1      42.785 -19.753 -34.127  0.00  0.00    -0.039 C 
ATOM      8  C   UNL A   1      44.014 -19.274 -33.854  0.00  0.00    +0.079 C 
BRANCH   7  11
ATOM      9  C   UNL A   1      39.671 -17.646 -33.917  0.00  0.00    +0.162 A 
ATOM     10  C   UNL A   1      40.890 -18.183 -34.347  0.00  0.00    -0.009 A 
ATOM     11  C   UNL A   1      41.510 -19.219 -33.629  0.00  0.00    -0.021 A 
ATOM     12  C   UNL A   1      40.888 -19.732 -32.488  0.00  0.00    -0.051 A 
ATOM     13  C   UNL A   1      39.682 -19.194 -32.041  0.00  0.00    -0.016 A 
ATOM     14  C   UNL A   1      39.084 -18.154 -32.751  0.00  0.00    +0.158 A 
BRANCH   9  16
ATOM     15  C   UNL A   1      39.681 -15.929 -35.573  0.00  0.00    +0.079 C 
ATOM     16  O   UNL A   1      38.998 -16.629 -34.543  0.00  0.00    -0.491 OA
ENDBRANCH   9  16
BRANCH  14  17
ATOM     17  O   UNL A   1      37.902 -17.622 -32.310  0.00  0.00    -0.503 OA
ATOM     18  H   UNL A   1      37.879 -17.125 -31.516  0.00  0.00    +0.000 HD
ENDBRANCH  14  17
ENDBRANCH   7  11
BRANCH   8  19
ATOM     19  C   UNL A   1      44.225 -18.089 -32.983  0.00  0.00    +0.165 C 
ATOM     20  C   UNL A   1      44.231 -16.731 -33.631  0.00  0.00    -0.001 C 
ATOM     21  O   UNL A   1      44.438 -18.235 -31.779  0.00  0.00    -0.292 OA
ENDBRANCH   8  19
ENDBRANCH   3   8
ENDBRANCH   2   5
ENDBRANCH   1   2
BRANCH   1  22
ATOM     22  C   UNL A   1      45.094 -20.906 -38.791  0.00  0.00    -0.052 C 
BRANCH  22  23
ATOM     23  C   UNL A   1      43.666 -20.393 -38.999  0.00  0.00    -0.052 C 
BRANCH  23  24
ATOM     24  C   UNL A   1      42.766 -21.481 -39.593  0.00  0.00    -0.037 C 
BRANCH  24  25
ATOM     25  C   UNL A   1      41.623 -21.868 -38.651  0.00  0.00    +0.009 C 
BRANCH  25  26
ATOM     26  N   UNL A   1      41.673 -21.034 -37.442  0.00  0.00    -0.343 N 
ATOM     27  H   UNL A   1      42.505 -20.725 -37.017  0.00  0.00    +0.000 HD
BRANCH  26  28
ATOM     28  C   UNL A   1      40.363 -20.730 -36.960  0.00  0.00    +0.041 A 
ATOM     29  C   UNL A   1      39.828 -21.411 -35.846  0.00  0.00    -0.005 A 
ATOM     30  C   UNL A   1      38.564 -21.016 -35.395  0.00  0.00    +0.047 A 
ATOM     31  N   UNL A   1      37.862 -19.997 -35.946  0.00  0.00    -0.251 NA
ATOM     32  C   UNL A   1      38.379 -19.343 -36.995  0.00  0.00    +0.073 A 
ATOM     33  C   UNL A   1      37.638 -18.310 -37.555  0.00  0.00    -0.036 A 
ATOM     34  C   UNL A   1      38.095 -17.585 -38.658  0.00  0.00    -0.060 A 
ATOM     35  C   UNL A   1      39.322 -17.899 -39.223  0.00  0.00    -0.061 A 
ATOM     36  C   UNL A   1      40.083 -18.930 -38.675  0.00  0.00    -0.051 A 
ATOM     37  C   UNL A   1      39.632 -19.663 -37.551  0.00  0.00    +0.021 A 
ATOM     38  C   UNL A   1      37.907 -21.663 -34.203  0.00  0.00    -0.010 C 
ATOM     39  C   UNL A   1      38.473 -23.037 -33.868  0.00  0.00    -0.047 C 
ATOM     40  C   UNL A   1      39.992 -22.971 -33.834  0.00  0.00    -0.049 C 
ATOM     41  C   UNL A   1      40.540 -22.579 -35.205  0.00  0.00    -0.024 C 
ENDBRANCH  26  28
ENDBRANCH  25  26
ENDBRANCH  24  25
ENDBRANCH  23  24
ENDBRANCH  22  23
ENDBRANCH   1  22
TORSDOF 13
ENDMDL
MODEL 9
REMARK VINA RESULT:    -6.540     17.711     21.451
REMARK INTER + INTRA:         -14.481
REMARK INTER:                 -10.613
REMARK INTRA:                  -3.868
REMARK UNBOUND:                -3.163
REMARK  Name = cpd145.pdb
REMARK  15 active torsions:
REMARK  status: ('A' for Active; 'I' for Inactive)
REMARK    1  A    between atoms: C_1  and  O_2
REMARK    2  A    between atoms: O_2  and  C_3
REMARK    3  A    between atoms: C_5  and  C_6
REMARK    4  A    between atoms: C_7  and  C_8
REMARK    5  A    between atoms: C_7  and  C_11
REMARK    6  A    between atoms: C_8  and  C_9
REMARK    7  A    between atoms: N_13  and  C_14
REMARK    8  A    between atoms: C_14  and  C_15
REMARK    9  A    between atoms: C_15  and  C_16
REMARK   10  A    between atoms: C_16  and  C_17
REMARK   11  A    between atoms: C_17  and  C_18
REMARK   12  A    between atoms: C_18  and  C_19
REMARK   13  A    between atoms: C_19  and  N_20
REMARK   14  A    between atoms: N_20  and  C_21
REMARK   15  A    between atoms: C_37  and  O_38
REMARK                            x       y       z     vdW  Elec       q    Type
REMARK                         _______ _______ _______ _____ _____    ______ ____
ROOT
ATOM      1  C   UNL A   1      45.227 -20.474 -42.243  0.00  0.00    -0.037 C 
ENDROOT
BRANCH   1   2
ATOM      2  C   UNL A   1      44.510 -19.277 -41.624  0.00  0.00    +0.012 C 
BRANCH   2   5
ATOM      3  C   UNL A   1      43.021 -18.696 -39.774  0.00  0.00    +0.247 C 
ATOM      4  O   UNL A   1      43.152 -17.492 -39.960  0.00  0.00    -0.270 OA
ATOM      5  N   UNL A   1      43.622 -19.664 -40.548  0.00  0.00    -0.311 N 
ATOM      6  H   UNL A   1      43.448 -20.617 -40.370  0.00  0.00    +0.000 HD
BRANCH   3   8
ATOM      7  C   UNL A   1      42.656 -20.293 -37.962  0.00  0.00    -0.039 C 
ATOM      8  C   UNL A   1      42.219 -19.210 -38.634  0.00  0.00    +0.079 C 
BRANCH   7  11
ATOM      9  C   UNL A   1      41.400 -21.294 -34.557  0.00  0.00    +0.162 A 
ATOM     10  C   UNL A   1      42.082 -20.631 -35.583  0.00  0.00    -0.009 A 
ATOM     11  C   UNL A   1      41.924 -21.027 -36.922  0.00  0.00    -0.021 A 
ATOM     12  C   UNL A   1      41.057 -22.079 -37.229  0.00  0.00    -0.051 A 
ATOM     13  C   UNL A   1      40.385 -22.758 -36.213  0.00  0.00    -0.016 A 
ATOM     14  C   UNL A   1      40.563 -22.368 -34.887  0.00  0.00    +0.158 A 
BRANCH   9  16
ATOM     15  C   UNL A   1      40.998 -19.727 -32.805  0.00  0.00    +0.079 C 
ATOM     16  O   UNL A   1      41.498 -20.988 -33.224  0.00  0.00    -0.491 OA
ENDBRANCH   9  16
BRANCH  14  17
ATOM     17  O   UNL A   1      39.907 -23.037 -33.888  0.00  0.00    -0.503 OA
ATOM     18  H   UNL A   1      40.256 -23.840 -33.554  0.00  0.00    +0.000 HD
ENDBRANCH  14  17
ENDBRANCH   7  11
BRANCH   8  19
ATOM     19  C   UNL A   1      40.879 -18.615 -38.390  0.00  0.00    +0.165 C 
ATOM     20  C   UNL A   1      39.714 -19.162 -39.168  0.00  0.00    -0.001 C 
ATOM     21  O   UNL A   1      40.753 -17.671 -37.610  0.00  0.00    -0.292 OA
ENDBRANCH   8  19
ENDBRANCH   3   8
ENDBRANCH   2   5
ENDBRANCH   1   2
BRANCH   1  22
ATOM     22  C   UNL A   1      45.031 -21.758 -41.432  0.00  0.00    -0.052 C 
BRANCH  22  23
ATOM     23  C   UNL A   1      46.348 -22.383 -40.962  0.00  0.00    -0.052 C 
BRANCH  23  24
ATOM     24  C   UNL A   1      47.154 -21.401 -40.106  0.00  0.00    -0.037 C 
BRANCH  24  25
ATOM     25  C   UNL A   1      46.444 -21.053 -38.795  0.00  0.00    +0.009 C 
BRANCH  25  26
ATOM     26  N   UNL A   1      47.313 -20.200 -37.973  0.00  0.00    -0.343 N 
ATOM     27  H   UNL A   1      48.270 -20.369 -37.818  0.00  0.00    +0.000 HD
BRANCH  26  28
ATOM     28  C   UNL A   1      46.594 -19.093 -37.426  0.00  0.00    +0.041 A 
ATOM     29  C   UNL A   1      46.428 -17.903 -38.166  0.00  0.00    -0.005 A 
ATOM     30  C   UNL A   1      45.661 -16.886 -37.589  0.00  0.00    +0.047 A 
ATOM     31  N   UNL A   1      45.044 -17.009 -36.389  0.00  0.00    -0.251 NA
ATOM     32  C   UNL A   1      45.192 -18.145 -35.695  0.00  0.00    +0.073 A 
ATOM     33  C   UNL A   1      44.563 -18.247 -34.460  0.00  0.00    -0.036 A 
ATOM     34  C   UNL A   1      44.675 -19.390 -33.664  0.00  0.00    -0.060 A 
ATOM     35  C   UNL A   1      45.435 -20.460 -34.108  0.00  0.00    -0.061 A 
ATOM     36  C   UNL A   1      46.073 -20.380 -35.345  0.00  0.00    -0.051 A 
ATOM     37  C   UNL A   1      45.957 -19.230 -36.162  0.00  0.00    +0.021 A 
ATOM     38  C   UNL A   1      45.405 -15.582 -38.299  0.00  0.00    -0.010 C 
ATOM     39  C   UNL A   1      46.411 -15.284 -39.404  0.00  0.00    -0.047 C 
ATOM     40  C   UNL A   1      46.568 -16.505 -40.296  0.00  0.00    -0.049 C 
ATOM     41  C   UNL A   1      47.116 -17.685 -39.493  0.00  0.00    -0.024 C 
ENDBRANCH  26  28
ENDBRANCH  25  26
ENDBRANCH  24  25
ENDBRANCH  23  24
ENDBRANCH  22  23
ENDBRANCH   1  22
TORSDOF 13
ENDMDL
MODEL 10
REMARK VINA RESULT:    -6.514     18.027     21.556
REMARK INTER + INTRA:         -14.436
REMARK INTER:                 -12.024
REMARK INTRA:                  -2.412
REMARK UNBOUND:                -3.163
REMARK  Name = cpd145.pdb
REMARK  15 active torsions:
REMARK  status: ('A' for Active; 'I' for Inactive)
REMARK    1  A    between atoms: C_1  and  O_2
REMARK    2  A    between atoms: O_2  and  C_3
REMARK    3  A    between atoms: C_5  and  C_6
REMARK    4  A    between atoms: C_7  and  C_8
REMARK    5  A    between atoms: C_7  and  C_11
REMARK    6  A    between atoms: C_8  and  C_9
REMARK    7  A    between atoms: N_13  and  C_14
REMARK    8  A    between atoms: C_14  and  C_15
REMARK    9  A    between atoms: C_15  and  C_16
REMARK   10  A    between atoms: C_16  and  C_17
REMARK   11  A    between atoms: C_17  and  C_18
REMARK   12  A    between atoms: C_18  and  C_19
REMARK   13  A    between atoms: C_19  and  N_20
REMARK   14  A    between atoms: N_20  and  C_21
REMARK   15  A    between atoms: C_37  and  O_38
REMARK                            x       y       z     vdW  Elec       q    Type
REMARK                         _______ _______ _______ _____ _____    ______ ____
ROOT
ATOM      1  C   UNL A   1      44.486 -16.465 -34.689  0.00  0.00    -0.037 C 
ENDROOT
BRANCH   1   2
ATOM      2  C   UNL A   1      45.181 -15.646 -35.773  0.00  0.00    +0.012 C 
BRANCH   2   5
ATOM      3  C   UNL A   1      45.586 -15.669 -38.184  0.00  0.00    +0.247 C 
ATOM      4  O   UNL A   1      45.886 -14.481 -38.210  0.00  0.00    -0.270 OA
ATOM      5  N   UNL A   1      45.249 -16.351 -37.036  0.00  0.00    -0.311 N 
ATOM      6  H   UNL A   1      45.053 -17.315 -37.074  0.00  0.00    +0.000 HD
BRANCH   3   8
ATOM      7  C   UNL A   1      45.129 -17.756 -39.366  0.00  0.00    -0.039 C 
ATOM      8  C   UNL A   1      45.517 -16.467 -39.434  0.00  0.00    +0.079 C 
BRANCH   7  11
ATOM      9  C   UNL A   1      46.033 -20.821 -41.357  0.00  0.00    +0.162 A 
ATOM     10  C   UNL A   1      45.982 -19.859 -40.343  0.00  0.00    -0.009 A 
ATOM     11  C   UNL A   1      45.152 -18.732 -40.464  0.00  0.00    -0.021 A 
ATOM     12  C   UNL A   1      44.353 -18.586 -41.601  0.00  0.00    -0.051 A 
ATOM     13  C   UNL A   1      44.409 -19.529 -42.626  0.00  0.00    -0.016 A 
ATOM     14  C   UNL A   1      45.249 -20.635 -42.503  0.00  0.00    +0.158 A 
BRANCH   9  16
ATOM     15  C   UNL A   1      48.207 -21.777 -41.576  0.00  0.00    +0.079 C 
ATOM     16  O   UNL A   1      46.818 -21.945 -41.334  0.00  0.00    -0.491 OA
ENDBRANCH   9  16
BRANCH  14  17
ATOM     17  O   UNL A   1      45.306 -21.560 -43.511  0.00  0.00    -0.503 OA
ATOM     18  H   UNL A   1      45.690 -21.332 -44.335  0.00  0.00    +0.000 HD
ENDBRANCH  14  17
ENDBRANCH   7  11
BRANCH   8  19
ATOM     19  C   UNL A   1      46.045 -15.865 -40.686  0.00  0.00    +0.165 C 
ATOM     20  C   UNL A   1      47.500 -16.073 -41.006  0.00  0.00    -0.001 C 
ATOM     21  O   UNL A   1      45.314 -15.178 -41.399  0.00  0.00    -0.292 OA
ENDBRANCH   8  19
ENDBRANCH   3   8
ENDBRANCH   2   5
ENDBRANCH   1   2
BRANCH   1  22
ATOM     22  C   UNL A   1      45.304 -17.687 -34.261  0.00  0.00    -0.052 C 
BRANCH  22  23
ATOM     23  C   UNL A   1      44.465 -18.763 -33.567  0.00  0.00    -0.052 C 
BRANCH  23  24
ATOM     24  C   UNL A   1      44.478 -20.075 -34.358  0.00  0.00    -0.037 C 
BRANCH  24  25
ATOM     25  C   UNL A   1      44.054 -19.879 -35.815  0.00  0.00    +0.009 C 
BRANCH  25  26
ATOM     26  N   UNL A   1      42.618 -19.577 -35.877  0.00  0.00    -0.343 N 
ATOM     27  H   UNL A   1      42.233 -18.684 -35.725  0.00  0.00    +0.000 HD
BRANCH  26  28
ATOM     28  C   UNL A   1      41.849 -20.741 -36.186  0.00  0.00    +0.041 A 
ATOM     29  C   UNL A   1      41.140 -21.426 -35.176  0.00  0.00    -0.005 A 
ATOM     30  C   UNL A   1      40.362 -22.521 -35.565  0.00  0.00    +0.047 A 
ATOM     31  N   UNL A   1      40.228 -22.920 -36.853  0.00  0.00    -0.251 NA
ATOM     32  C   UNL A   1      40.892 -22.259 -37.811  0.00  0.00    +0.073 A 
ATOM     33  C   UNL A   1      40.753 -22.691 -39.124  0.00  0.00    -0.036 A 
ATOM     34  C   UNL A   1      41.419 -22.069 -40.183  0.00  0.00    -0.060 A 
ATOM     35  C   UNL A   1      42.249 -20.988 -39.928  0.00  0.00    -0.061 A 
ATOM     36  C   UNL A   1      42.401 -20.537 -38.617  0.00  0.00    -0.051 A 
ATOM     37  C   UNL A   1      41.722 -21.155 -37.540  0.00  0.00    +0.021 A 
ATOM     38  C   UNL A   1      39.549 -23.312 -34.572  0.00  0.00    -0.010 C 
ATOM     39  C   UNL A   1      40.021 -23.147 -33.133  0.00  0.00    -0.047 C 
ATOM     40  C   UNL A   1      40.198 -21.670 -32.818  0.00  0.00    -0.049 C 
ATOM     41  C   UNL A   1      41.271 -21.058 -33.717  0.00  0.00    -0.024 C 
ENDBRANCH  26  28
ENDBRANCH  25  26
ENDBRANCH  24  25
ENDBRANCH  23  24
ENDBRANCH  22  23
ENDBRANCH   1  22
TORSDOF 13
ENDMDL
MODEL 11
REMARK VINA RESULT:    -6.453      2.681      6.766
REMARK INTER + INTRA:         -14.331
REMARK INTER:                 -10.637
REMARK INTRA:                  -3.694
REMARK UNBOUND:                -3.163
REMARK  Name = cpd145.pdb
REMARK  15 active torsions:
REMARK  status: ('A' for Active; 'I' for Inactive)
REMARK    1  A    between atoms: C_1  and  O_2
REMARK    2  A    between atoms: O_2  and  C_3
REMARK    3  A    between atoms: C_5  and  C_6
REMARK    4  A    between atoms: C_7  and  C_8
REMARK    5  A    between atoms: C_7  and  C_11
REMARK    6  A    between atoms: C_8  and  C_9
REMARK    7  A    between atoms: N_13  and  C_14
REMARK    8  A    between atoms: C_14  and  C_15
REMARK    9  A    between atoms: C_15  and  C_16
REMARK   10  A    between atoms: C_16  and  C_17
REMARK   11  A    between atoms: C_17  and  C_18
REMARK   12  A    between atoms: C_18  and  C_19
REMARK   13  A    between atoms: C_19  and  N_20
REMARK   14  A    between atoms: N_20  and  C_21
REMARK   15  A    between atoms: C_37  and  O_38
REMARK                            x       y       z     vdW  Elec       q    Type
REMARK                         _______ _______ _______ _____ _____    ______ ____
ROOT
ATOM      1  C   UNL A   1      38.715 -36.275 -31.232  0.00  0.00    -0.037 C 
ENDROOT
BRANCH   1   2
ATOM      2  C   UNL A   1      37.836 -35.303 -32.014  0.00  0.00    +0.012 C 
BRANCH   2   5
ATOM      3  C   UNL A   1      36.023 -33.992 -31.029  0.00  0.00    +0.247 C 
ATOM      4  O   UNL A   1      36.649 -32.942 -31.111  0.00  0.00    -0.270 OA
ATOM      5  N   UNL A   1      36.500 -35.208 -31.466  0.00  0.00    -0.311 N 
ATOM      6  H   UNL A   1      35.933 -36.011 -31.406  0.00  0.00    +0.000 HD
BRANCH   3   8
ATOM      7  C   UNL A   1      34.299 -35.157 -29.750  0.00  0.00    -0.039 C 
ATOM      8  C   UNL A   1      34.684 -34.034 -30.388  0.00  0.00    +0.079 C 
BRANCH   7  11
ATOM      9  C   UNL A   1      30.754 -36.406 -29.523  0.00  0.00    +0.162 A 
ATOM     10  C   UNL A   1      32.035 -36.113 -30.005  0.00  0.00    -0.009 A 
ATOM     11  C   UNL A   1      32.965 -35.434 -29.201  0.00  0.00    -0.021 A 
ATOM     12  C   UNL A   1      32.612 -35.071 -27.898  0.00  0.00    -0.051 A 
ATOM     13  C   UNL A   1      31.333 -35.344 -27.413  0.00  0.00    -0.016 A 
ATOM     14  C   UNL A   1      30.412 -36.002 -28.227  0.00  0.00    +0.158 A 
BRANCH   9  16
ATOM     15  C   UNL A   1      29.426 -36.512 -31.501  0.00  0.00    +0.079 C 
ATOM     16  O   UNL A   1      29.778 -37.053 -30.236  0.00  0.00    -0.491 OA
ENDBRANCH   9  16
BRANCH  14  17
ATOM     17  O   UNL A   1      29.155 -36.267 -27.753  0.00  0.00    -0.503 OA
ATOM     18  H   UNL A   1      29.030 -36.928 -27.102  0.00  0.00    +0.000 HD
ENDBRANCH  14  17
ENDBRANCH   7  11
BRANCH   8  19
ATOM     19  C   UNL A   1      33.753 -32.900 -30.624  0.00  0.00    +0.165 C 
ATOM     20  C   UNL A   1      32.899 -32.937 -31.862  0.00  0.00    -0.001 C 
ATOM     21  O   UNL A   1      33.731 -31.945 -29.847  0.00  0.00    -0.292 OA
ENDBRANCH   8  19
ENDBRANCH   3   8
ENDBRANCH   2   5
ENDBRANCH   1   2
BRANCH   1  22
ATOM     22  C   UNL A   1      37.904 -37.178 -30.298  0.00  0.00    -0.052 C 
BRANCH  22  23
ATOM     23  C   UNL A   1      38.778 -38.043 -29.385  0.00  0.00    -0.052 C 
BRANCH  23  24
ATOM     24  C   UNL A   1      38.244 -38.051 -27.949  0.00  0.00    -0.037 C 
BRANCH  24  25
ATOM     25  C   UNL A   1      36.714 -38.060 -27.899  0.00  0.00    +0.009 C 
BRANCH  25  26
ATOM     26  N   UNL A   1      36.229 -39.446 -27.833  0.00  0.00    -0.343 N 
ATOM     27  H   UNL A   1      36.732 -40.190 -27.431  0.00  0.00    +0.000 HD
BRANCH  26  28
ATOM     28  C   UNL A   1      34.936 -39.577 -28.426  0.00  0.00    +0.041 A 
ATOM     29  C   UNL A   1      34.793 -40.040 -29.752  0.00  0.00    -0.005 A 
ATOM     30  C   UNL A   1      33.494 -40.200 -30.242  0.00  0.00    +0.047 A 
ATOM     31  N   UNL A   1      32.384 -39.975 -29.499  0.00  0.00    -0.251 NA
ATOM     32  C   UNL A   1      32.522 -39.548 -28.236  0.00  0.00    +0.073 A 
ATOM     33  C   UNL A   1      31.372 -39.309 -27.494  0.00  0.00    -0.036 A 
ATOM     34  C   UNL A   1      31.424 -38.850 -26.176  0.00  0.00    -0.060 A 
ATOM     35  C   UNL A   1      32.655 -38.620 -25.580  0.00  0.00    -0.061 A 
ATOM     36  C   UNL A   1      33.821 -38.856 -26.306  0.00  0.00    -0.051 A 
ATOM     37  C   UNL A   1      33.777 -39.330 -27.639  0.00  0.00    +0.021 A 
ATOM     38  C   UNL A   1      33.226 -40.706 -31.637  0.00  0.00    -0.010 C 
ATOM     39  C   UNL A   1      34.414 -40.549 -32.577  0.00  0.00    -0.047 C 
ATOM     40  C   UNL A   1      35.671 -41.082 -31.909  0.00  0.00    -0.049 C 
ATOM     41  C   UNL A   1      35.986 -40.278 -30.648  0.00  0.00    -0.024 C 
ENDBRANCH  26  28
ENDBRANCH  25  26
ENDBRANCH  24  25
ENDBRANCH  23  24
ENDBRANCH  22  23
ENDBRANCH   1  22
TORSDOF 13
ENDMDL
MODEL 12
REMARK VINA RESULT:    -6.435     18.518     20.883
REMARK INTER + INTRA:         -14.299
REMARK INTER:                 -11.073
REMARK INTRA:                  -3.226
REMARK UNBOUND:                -3.163
REMARK  Name = cpd145.pdb
REMARK  15 active torsions:
REMARK  status: ('A' for Active; 'I' for Inactive)
REMARK    1  A    between atoms: C_1  and  O_2
REMARK    2  A    between atoms: O_2  and  C_3
REMARK    3  A    between atoms: C_5  and  C_6
REMARK    4  A    between atoms: C_7  and  C_8
REMARK    5  A    between atoms: C_7  and  C_11
REMARK    6  A    between atoms: C_8  and  C_9
REMARK    7  A    between atoms: N_13  and  C_14
REMARK    8  A    between atoms: C_14  and  C_15
REMARK    9  A    between atoms: C_15  and  C_16
REMARK   10  A    between atoms: C_16  and  C_17
REMARK   11  A    between atoms: C_17  and  C_18
REMARK   12  A    between atoms: C_18  and  C_19
REMARK   13  A    between atoms: C_19  and  N_20
REMARK   14  A    between atoms: N_20  and  C_21
REMARK   15  A    between atoms: C_37  and  O_38
REMARK                            x       y       z     vdW  Elec       q    Type
REMARK                         _______ _______ _______ _____ _____    ______ ____
ROOT
ATOM      1  C   UNL A   1      43.845 -16.779 -35.006  0.00  0.00    -0.037 C 
ENDROOT
BRANCH   1   2
ATOM      2  C   UNL A   1      43.681 -15.935 -36.266  0.00  0.00    +0.012 C 
BRANCH   2   5
ATOM      3  C   UNL A   1      43.170 -17.469 -38.100  0.00  0.00    +0.247 C 
ATOM      4  O   UNL A   1      42.006 -17.610 -37.745  0.00  0.00    -0.270 OA
ATOM      5  N   UNL A   1      44.075 -16.649 -37.462  0.00  0.00    -0.311 N 
ATOM      6  H   UNL A   1      44.987 -16.550 -37.818  0.00  0.00    +0.000 HD
BRANCH   3   8
ATOM      7  C   UNL A   1      43.642 -19.579 -39.234  0.00  0.00    -0.039 C 
ATOM      8  C   UNL A   1      43.715 -18.234 -39.250  0.00  0.00    +0.079 C 
BRANCH   7  11
ATOM      9  C   UNL A   1      46.038 -22.091 -40.693  0.00  0.00    +0.162 A 
ATOM     10  C   UNL A   1      45.415 -21.199 -39.812  0.00  0.00    -0.009 A 
ATOM     11  C   UNL A   1      44.261 -20.498 -40.199  0.00  0.00    -0.021 A 
ATOM     12  C   UNL A   1      43.719 -20.714 -41.469  0.00  0.00    -0.051 A 
ATOM     13  C   UNL A   1      44.340 -21.587 -42.360  0.00  0.00    -0.016 A 
ATOM     14  C   UNL A   1      45.495 -22.265 -41.972  0.00  0.00    +0.158 A 
BRANCH   9  16
ATOM     15  C   UNL A   1      48.414 -22.131 -40.497  0.00  0.00    +0.079 C 
ATOM     16  O   UNL A   1      47.170 -22.810 -40.410  0.00  0.00    -0.491 OA
ENDBRANCH   9  16
BRANCH  14  17
ATOM     17  O   UNL A   1      46.108 -23.120 -42.849  0.00  0.00    -0.503 OA
ATOM     18  H   UNL A   1      46.568 -23.870 -42.527  0.00  0.00    +0.000 HD
ENDBRANCH  14  17
ENDBRANCH   7  11
BRANCH   8  19
ATOM     19  C   UNL A   1      44.476 -17.496 -40.291  0.00  0.00    +0.165 C 
ATOM     20  C   UNL A   1      43.710 -16.945 -41.463  0.00  0.00    -0.001 C 
ATOM     21  O   UNL A   1      45.700 -17.392 -40.208  0.00  0.00    -0.292 OA
ENDBRANCH   8  19
ENDBRANCH   3   8
ENDBRANCH   2   5
ENDBRANCH   1   2
BRANCH   1  22
ATOM     22  C   UNL A   1      45.220 -17.450 -34.924  0.00  0.00    -0.052 C 
BRANCH  22  23
ATOM     23  C   UNL A   1      45.217 -18.732 -34.087  0.00  0.00    -0.052 C 
BRANCH  23  24
ATOM     24  C   UNL A   1      45.316 -19.976 -34.974  0.00  0.00    -0.037 C 
BRANCH  24  25
ATOM     25  C   UNL A   1      44.057 -20.190 -35.817  0.00  0.00    +0.009 C 
BRANCH  25  26
ATOM     26  N   UNL A   1      43.143 -21.105 -35.119  0.00  0.00    -0.343 N 
ATOM     27  H   UNL A   1      43.435 -21.869 -34.571  0.00  0.00    +0.000 HD
BRANCH  26  28
ATOM     28  C   UNL A   1      41.777 -20.748 -35.336  0.00  0.00    +0.041 A 
ATOM     29  C   UNL A   1      41.076 -19.968 -34.390  0.00  0.00    -0.005 A 
ATOM     30  C   UNL A   1      39.761 -19.608 -34.700  0.00  0.00    +0.047 A 
ATOM     31  N   UNL A   1      39.155 -19.931 -35.868  0.00  0.00    -0.251 NA
ATOM     32  C   UNL A   1      39.828 -20.660 -36.769  0.00  0.00    +0.073 A 
ATOM     33  C   UNL A   1      39.185 -20.995 -37.955  0.00  0.00    -0.036 A 
ATOM     34  C   UNL A   1      39.806 -21.762 -38.943  0.00  0.00    -0.060 A 
ATOM     35  C   UNL A   1      41.103 -22.212 -38.745  0.00  0.00    -0.061 A 
ATOM     36  C   UNL A   1      41.767 -21.885 -37.564  0.00  0.00    -0.051 A 
ATOM     37  C   UNL A   1      41.148 -21.100 -36.562  0.00  0.00    +0.021 A 
ATOM     38  C   UNL A   1      38.928 -18.761 -33.772  0.00  0.00    -0.010 C 
ATOM     39  C   UNL A   1      39.430 -18.765 -32.333  0.00  0.00    -0.047 C 
ATOM     40  C   UNL A   1      40.927 -18.496 -32.312  0.00  0.00    -0.049 C 
ATOM     41  C   UNL A   1      41.677 -19.601 -33.054  0.00  0.00    -0.024 C 
ENDBRANCH  26  28
ENDBRANCH  25  26
ENDBRANCH  24  25
ENDBRANCH  23  24
ENDBRANCH  22  23
ENDBRANCH   1  22
TORSDOF 13
ENDMDL
MODEL 13
REMARK VINA RESULT:    -6.396     17.443     20.786
REMARK INTER + INTRA:         -14.233
REMARK INTER:                 -10.013
REMARK INTRA:                  -4.220
REMARK UNBOUND:                -3.163
REMARK  Name = cpd145.pdb
REMARK  15 active torsions:
REMARK  status: ('A' for Active; 'I' for Inactive)
REMARK    1  A    between atoms: C_1  and  O_2
REMARK    2  A    between atoms: O_2  and  C_3
REMARK    3  A    between atoms: C_5  and  C_6
REMARK    4  A    between atoms: C_7  and  C_8
REMARK    5  A    between atoms: C_7  and  C_11
REMARK    6  A    between atoms: C_8  and  C_9
REMARK    7  A    between atoms: N_13  and  C_14
REMARK    8  A    between atoms: C_14  and  C_15
REMARK    9  A    between atoms: C_15  and  C_16
REMARK   10  A    between atoms: C_16  and  C_17
REMARK   11  A    between atoms: C_17  and  C_18
REMARK   12  A    between atoms: C_18  and  C_19
REMARK   13  A    between atoms: C_19  and  N_20
REMARK   14  A    between atoms: N_20  and  C_21
REMARK   15  A    between atoms: C_37  and  O_38
REMARK                            x       y       z     vdW  Elec       q    Type
REMARK                         _______ _______ _______ _____ _____    ______ ____
ROOT
ATOM      1  C   UNL A   1      38.293 -20.374 -33.864  0.00  0.00    -0.037 C 
ENDROOT
BRANCH   1   2
ATOM      2  C   UNL A   1      38.501 -21.585 -34.769  0.00  0.00    +0.012 C 
BRANCH   2   5
ATOM      3  C   UNL A   1      40.598 -21.763 -36.014  0.00  0.00    +0.247 C 
ATOM      4  O   UNL A   1      41.106 -22.502 -35.179  0.00  0.00    -0.270 OA
ATOM      5  N   UNL A   1      39.313 -21.274 -35.926  0.00  0.00    -0.311 N 
ATOM      6  H   UNL A   1      38.948 -20.714 -36.649  0.00  0.00    +0.000 HD
BRANCH   3   8
ATOM      7  C   UNL A   1      42.628 -20.837 -37.006  0.00  0.00    -0.039 C 
ATOM      8  C   UNL A   1      41.372 -21.292 -37.190  0.00  0.00    +0.079 C 
BRANCH   7  11
ATOM      9  C   UNL A   1      45.178 -20.425 -39.745  0.00  0.00    +0.162 A 
ATOM     10  C   UNL A   1      44.354 -20.992 -38.767  0.00  0.00    -0.009 A 
ATOM     11  C   UNL A   1      43.477 -20.192 -38.016  0.00  0.00    -0.021 A 
ATOM     12  C   UNL A   1      43.413 -18.819 -38.269  0.00  0.00    -0.051 A 
ATOM     13  C   UNL A   1      44.241 -18.240 -39.230  0.00  0.00    -0.016 A 
ATOM     14  C   UNL A   1      45.121 -19.042 -39.956  0.00  0.00    +0.158 A 
BRANCH   9  16
ATOM     15  C   UNL A   1      47.275 -21.550 -39.899  0.00  0.00    +0.079 C 
ATOM     16  O   UNL A   1      46.071 -21.121 -40.518  0.00  0.00    -0.491 OA
ENDBRANCH   9  16
BRANCH  14  17
ATOM     17  O   UNL A   1      45.937 -18.474 -40.898  0.00  0.00    -0.503 OA
ATOM     18  H   UNL A   1      46.003 -17.541 -40.959  0.00  0.00    +0.000 HD
ENDBRANCH  14  17
ENDBRANCH   7  11
BRANCH   8  19
ATOM     19  C   UNL A   1      40.673 -21.177 -38.495  0.00  0.00    +0.165 C 
ATOM     20  C   UNL A   1      40.889 -22.269 -39.507  0.00  0.00    -0.001 C 
ATOM     21  O   UNL A   1      39.984 -20.188 -38.744  0.00  0.00    -0.292 OA
ENDBRANCH   8  19
ENDBRANCH   3   8
ENDBRANCH   2   5
ENDBRANCH   1   2
BRANCH   1  22
ATOM     22  C   UNL A   1      39.358 -20.270 -32.769  0.00  0.00    -0.052 C 
BRANCH  22  23
ATOM     23  C   UNL A   1      40.539 -19.374 -33.157  0.00  0.00    -0.052 C 
BRANCH  23  24
ATOM     24  C   UNL A   1      41.849 -19.889 -32.554  0.00  0.00    -0.037 C 
BRANCH  24  25
ATOM     25  C   UNL A   1      42.979 -19.948 -33.585  0.00  0.00    +0.009 C 
BRANCH  25  26
ATOM     26  N   UNL A   1      44.161 -19.246 -33.065  0.00  0.00    -0.343 N 
ATOM     27  H   UNL A   1      44.596 -19.453 -32.207  0.00  0.00    +0.000 HD
BRANCH  26  28
ATOM     28  C   UNL A   1      44.599 -18.223 -33.962  0.00  0.00    +0.041 A 
ATOM     29  C   UNL A   1      44.190 -16.884 -33.785  0.00  0.00    -0.005 A 
ATOM     30  C   UNL A   1      44.708 -15.930 -34.666  0.00  0.00    +0.047 A 
ATOM     31  N   UNL A   1      45.604 -16.223 -35.638  0.00  0.00    -0.251 NA
ATOM     32  C   UNL A   1      46.001 -17.493 -35.795  0.00  0.00    +0.073 A 
ATOM     33  C   UNL A   1      46.910 -17.777 -36.807  0.00  0.00    -0.036 A 
ATOM     34  C   UNL A   1      47.367 -19.075 -37.049  0.00  0.00    -0.060 A 
ATOM     35  C   UNL A   1      46.905 -20.121 -36.265  0.00  0.00    -0.061 A 
ATOM     36  C   UNL A   1      45.994 -19.857 -35.243  0.00  0.00    -0.051 A 
ATOM     37  C   UNL A   1      45.534 -18.544 -34.984  0.00  0.00    +0.021 A 
ATOM     38  C   UNL A   1      44.353 -14.469 -34.556  0.00  0.00    -0.010 C 
ATOM     39  C   UNL A   1      43.068 -14.214 -33.779  0.00  0.00    -0.047 C 
ATOM     40  C   UNL A   1      43.096 -14.990 -32.472  0.00  0.00    -0.049 C 
ATOM     41  C   UNL A   1      43.167 -16.492 -32.744  0.00  0.00    -0.024 C 
ENDBRANCH  26  28
ENDBRANCH  25  26
ENDBRANCH  24  25
ENDBRANCH  23  24
ENDBRANCH  22  23
ENDBRANCH   1  22
TORSDOF 13
ENDMDL
MODEL 14
REMARK VINA RESULT:    -6.365     17.438     20.972
REMARK INTER + INTRA:         -14.179
REMARK INTER:                 -11.992
REMARK INTRA:                  -2.187
REMARK UNBOUND:                -3.163
REMARK  Name = cpd145.pdb
REMARK  15 active torsions:
REMARK  status: ('A' for Active; 'I' for Inactive)
REMARK    1  A    between atoms: C_1  and  O_2
REMARK    2  A    between atoms: O_2  and  C_3
REMARK    3  A    between atoms: C_5  and  C_6
REMARK    4  A    between atoms: C_7  and  C_8
REMARK    5  A    between atoms: C_7  and  C_11
REMARK    6  A    between atoms: C_8  and  C_9
REMARK    7  A    between atoms: N_13  and  C_14
REMARK    8  A    between atoms: C_14  and  C_15
REMARK    9  A    between atoms: C_15  and  C_16
REMARK   10  A    between atoms: C_16  and  C_17
REMARK   11  A    between atoms: C_17  and  C_18
REMARK   12  A    between atoms: C_18  and  C_19
REMARK   13  A    between atoms: C_19  and  N_20
REMARK   14  A    between atoms: N_20  and  C_21
REMARK   15  A    between atoms: C_37  and  O_38
REMARK                            x       y       z     vdW  Elec       q    Type
REMARK                         _______ _______ _______ _____ _____    ______ ____
ROOT
ATOM      1  C   UNL A   1      39.891 -22.889 -35.776  0.00  0.00    -0.037 C 
ENDROOT
BRANCH   1   2
ATOM      2  C   UNL A   1      39.333 -21.790 -36.676  0.00  0.00    +0.012 C 
BRANCH   2   5
ATOM      3  C   UNL A   1      40.929 -21.854 -38.528  0.00  0.00    +0.247 C 
ATOM      4  O   UNL A   1      40.587 -22.981 -38.869  0.00  0.00    -0.270 OA
ATOM      5  N   UNL A   1      40.361 -21.163 -37.480  0.00  0.00    -0.311 N 
ATOM      6  H   UNL A   1      40.654 -20.245 -37.279  0.00  0.00    +0.000 HD
BRANCH   3   8
ATOM      7  C   UNL A   1      42.771 -21.824 -40.130  0.00  0.00    -0.039 C 
ATOM      8  C   UNL A   1      42.046 -21.156 -39.212  0.00  0.00    +0.079 C 
BRANCH   7  11
ATOM      9  C   UNL A   1      46.431 -21.390 -40.900  0.00  0.00    +0.162 A 
ATOM     10  C   UNL A   1      45.236 -21.806 -40.304  0.00  0.00    -0.009 A 
ATOM     11  C   UNL A   1      43.997 -21.351 -40.785  0.00  0.00    -0.021 A 
ATOM     12  C   UNL A   1      43.963 -20.492 -41.887  0.00  0.00    -0.051 A 
ATOM     13  C   UNL A   1      45.148 -20.057 -42.479  0.00  0.00    -0.016 A 
ATOM     14  C   UNL A   1      46.372 -20.501 -41.981  0.00  0.00    +0.158 A 
BRANCH   9  16
ATOM     15  C   UNL A   1      48.160 -23.032 -40.940  0.00  0.00    +0.079 C 
ATOM     16  O   UNL A   1      47.684 -21.771 -40.494  0.00  0.00    -0.491 OA
ENDBRANCH   9  16
BRANCH  14  17
ATOM     17  O   UNL A   1      47.537 -20.072 -42.559  0.00  0.00    -0.503 OA
ATOM     18  H   UNL A   1      47.528 -19.339 -43.143  0.00  0.00    +0.000 HD
ENDBRANCH  14  17
ENDBRANCH   7  11
BRANCH   8  19
ATOM     19  C   UNL A   1      42.430 -19.802 -38.734  0.00  0.00    +0.165 C 
ATOM     20  C   UNL A   1      43.543 -19.702 -37.727  0.00  0.00    -0.001 C 
ATOM     21  O   UNL A   1      41.812 -18.810 -39.120  0.00  0.00    -0.292 OA
ENDBRANCH   8  19
ENDBRANCH   3   8
ENDBRANCH   2   5
ENDBRANCH   1   2
BRANCH   1  22
ATOM     22  C   UNL A   1      39.851 -22.508 -34.293  0.00  0.00    -0.052 C 
BRANCH  22  23
ATOM     23  C   UNL A   1      39.890 -20.996 -34.056  0.00  0.00    -0.052 C 
BRANCH  23  24
ATOM     24  C   UNL A   1      41.117 -20.594 -33.231  0.00  0.00    -0.037 C 
BRANCH  24  25
ATOM     25  C   UNL A   1      42.228 -19.995 -34.097  0.00  0.00    +0.009 C 
BRANCH  25  26
ATOM     26  N   UNL A   1      43.388 -19.668 -33.257  0.00  0.00    -0.343 N 
ATOM     27  H   UNL A   1      43.617 -20.136 -32.421  0.00  0.00    +0.000 HD
BRANCH  26  28
ATOM     28  C   UNL A   1      44.143 -18.586 -33.804  0.00  0.00    +0.041 A 
ATOM     29  C   UNL A   1      45.282 -18.830 -34.601  0.00  0.00    -0.005 A 
ATOM     30  C   UNL A   1      45.934 -17.722 -35.152  0.00  0.00    +0.047 A 
ATOM     31  N   UNL A   1      45.501 -16.449 -34.991  0.00  0.00    -0.251 NA
ATOM     32  C   UNL A   1      44.412 -16.220 -34.245  0.00  0.00    +0.073 A 
ATOM     33  C   UNL A   1      43.992 -14.906 -34.081  0.00  0.00    -0.036 A 
ATOM     34  C   UNL A   1      42.875 -14.577 -33.309  0.00  0.00    -0.060 A 
ATOM     35  C   UNL A   1      42.157 -15.583 -32.681  0.00  0.00    -0.061 A 
ATOM     36  C   UNL A   1      42.560 -16.909 -32.835  0.00  0.00    -0.051 A 
ATOM     37  C   UNL A   1      43.685 -17.252 -33.623  0.00  0.00    +0.021 A 
ATOM     38  C   UNL A   1      47.147 -17.870 -36.033  0.00  0.00    -0.010 C 
ATOM     39  C   UNL A   1      47.861 -19.205 -35.864  0.00  0.00    -0.047 C 
ATOM     40  C   UNL A   1      46.850 -20.339 -35.933  0.00  0.00    -0.049 C 
ATOM     41  C   UNL A   1      45.839 -20.221 -34.793  0.00  0.00    -0.024 C 
ENDBRANCH  26  28
ENDBRANCH  25  26
ENDBRANCH  24  25
ENDBRANCH  23  24
ENDBRANCH  22  23
ENDBRANCH   1  22
TORSDOF 13
ENDMDL
MODEL 15
REMARK VINA RESULT:    -6.284     17.718     20.975
REMARK INTER + INTRA:         -14.038
REMARK INTER:                 -10.324
REMARK INTRA:                  -3.714
REMARK UNBOUND:                -3.163
REMARK  Name = cpd145.pdb
REMARK  15 active torsions:
REMARK  status: ('A' for Active; 'I' for Inactive)
REMARK    1  A    between atoms: C_1  and  O_2
REMARK    2  A    between atoms: O_2  and  C_3
REMARK    3  A    between atoms: C_5  and  C_6
REMARK    4  A    between atoms: C_7  and  C_8
REMARK    5  A    between atoms: C_7  and  C_11
REMARK    6  A    between atoms: C_8  and  C_9
REMARK    7  A    between atoms: N_13  and  C_14
REMARK    8  A    between atoms: C_14  and  C_15
REMARK    9  A    between atoms: C_15  and  C_16
REMARK   10  A    between atoms: C_16  and  C_17
REMARK   11  A    between atoms: C_17  and  C_18
REMARK   12  A    between atoms: C_18  and  C_19
REMARK   13  A    between atoms: C_19  and  N_20
REMARK   14  A    between atoms: N_20  and  C_21
REMARK   15  A    between atoms: C_37  and  O_38
REMARK                            x       y       z     vdW  Elec       q    Type
REMARK                         _______ _______ _______ _____ _____    ______ ____
ROOT
ATOM      1  C   UNL A   1      41.250 -16.900 -35.798  0.00  0.00    -0.037 C 
ENDROOT
BRANCH   1   2
ATOM      2  C   UNL A   1      40.936 -16.821 -37.289  0.00  0.00    +0.012 C 
BRANCH   2   5
ATOM      3  C   UNL A   1      43.005 -16.842 -38.593  0.00  0.00    +0.247 C 
ATOM      4  O   UNL A   1      43.240 -15.662 -38.361  0.00  0.00    -0.270 OA
ATOM      5  N   UNL A   1      41.915 -17.521 -38.095  0.00  0.00    -0.311 N 
ATOM      6  H   UNL A   1      41.801 -18.480 -38.287  0.00  0.00    +0.000 HD
BRANCH   3   8
ATOM      7  C   UNL A   1      43.379 -18.722 -40.105  0.00  0.00    -0.039 C 
ATOM      8  C   UNL A   1      43.882 -17.633 -39.493  0.00  0.00    +0.079 C 
BRANCH   7  11
ATOM      9  C   UNL A   1      45.550 -21.685 -40.933  0.00  0.00    +0.162 A 
ATOM     10  C   UNL A   1      44.825 -20.722 -40.222  0.00  0.00    -0.009 A 
ATOM     11  C   UNL A   1      44.132 -19.703 -40.897  0.00  0.00    -0.021 A 
ATOM     12  C   UNL A   1      44.152 -19.669 -42.294  0.00  0.00    -0.051 A 
ATOM     13  C   UNL A   1      44.885 -20.613 -43.012  0.00  0.00    -0.016 A 
ATOM     14  C   UNL A   1      45.583 -21.609 -42.331  0.00  0.00    +0.158 A 
BRANCH   9  16
ATOM     15  C   UNL A   1      47.582 -22.416 -39.919  0.00  0.00    +0.079 C 
ATOM     16  O   UNL A   1      46.264 -22.707 -40.363  0.00  0.00    -0.491 OA
ENDBRANCH   9  16
BRANCH  14  17
ATOM     17  O   UNL A   1      46.307 -22.534 -43.035  0.00  0.00    -0.503 OA
ATOM     18  H   UNL A   1      45.876 -23.097 -43.648  0.00  0.00    +0.000 HD
ENDBRANCH  14  17
ENDBRANCH   7  11
BRANCH   8  19
ATOM     19  C   UNL A   1      45.327 -17.292 -39.548  0.00  0.00    +0.165 C 
ATOM     20  C   UNL A   1      45.815 -16.485 -40.720  0.00  0.00    -0.001 C 
ATOM     21  O   UNL A   1      46.096 -17.707 -38.681  0.00  0.00    -0.292 OA
ENDBRANCH   8  19
ENDBRANCH   3   8
ENDBRANCH   2   5
ENDBRANCH   1   2
BRANCH   1  22
ATOM     22  C   UNL A   1      40.036 -17.323 -34.965  0.00  0.00    -0.052 C 
BRANCH  22  23
ATOM     23  C   UNL A   1      40.305 -17.313 -33.457  0.00  0.00    -0.052 C 
BRANCH  23  24
ATOM     24  C   UNL A   1      39.747 -18.571 -32.785  0.00  0.00    -0.037 C 
BRANCH  24  25
ATOM     25  C   UNL A   1      39.487 -19.699 -33.787  0.00  0.00    +0.009 C 
BRANCH  25  26
ATOM     26  N   UNL A   1      40.559 -20.700 -33.695  0.00  0.00    -0.343 N 
ATOM     27  H   UNL A   1      40.674 -21.320 -32.940  0.00  0.00    +0.000 HD
BRANCH  26  28
ATOM     28  C   UNL A   1      41.413 -20.660 -34.840  0.00  0.00    +0.041 A 
ATOM     29  C   UNL A   1      40.967 -21.138 -36.090  0.00  0.00    -0.005 A 
ATOM     30  C   UNL A   1      41.837 -21.010 -37.177  0.00  0.00    +0.047 A 
ATOM     31  N   UNL A   1      43.052 -20.417 -37.093  0.00  0.00    -0.251 NA
ATOM     32  C   UNL A   1      43.468 -19.952 -35.907  0.00  0.00    +0.073 A 
ATOM     33  C   UNL A   1      44.723 -19.360 -35.837  0.00  0.00    -0.036 A 
ATOM     34  C   UNL A   1      45.240 -18.860 -34.639  0.00  0.00    -0.060 A 
ATOM     35  C   UNL A   1      44.488 -18.954 -33.477  0.00  0.00    -0.061 A 
ATOM     36  C   UNL A   1      43.225 -19.542 -33.526  0.00  0.00    -0.051 A 
ATOM     37  C   UNL A   1      42.690 -20.042 -34.738  0.00  0.00    +0.021 A 
ATOM     38  C   UNL A   1      41.455 -21.470 -38.561  0.00  0.00    -0.010 C 
ATOM     39  C   UNL A   1      40.320 -22.486 -38.571  0.00  0.00    -0.047 C 
ATOM     40  C   UNL A   1      39.179 -21.988 -37.699  0.00  0.00    -0.049 C 
ATOM     41  C   UNL A   1      39.639 -21.841 -36.250  0.00  0.00    -0.024 C 
ENDBRANCH  26  28
ENDBRANCH  25  26
ENDBRANCH  24  25
ENDBRANCH  23  24
ENDBRANCH  22  23
ENDBRANCH   1  22
TORSDOF 13
ENDMDL
MODEL 16
REMARK VINA RESULT:    -6.157     17.335     21.403
REMARK INTER + INTRA:         -13.818
REMARK INTER:                  -9.699
REMARK INTRA:                  -4.119
REMARK UNBOUND:                -3.163
REMARK  Name = cpd145.pdb
REMARK  15 active torsions:
REMARK  status: ('A' for Active; 'I' for Inactive)
REMARK    1  A    between atoms: C_1  and  O_2
REMARK    2  A    between atoms: O_2  and  C_3
REMARK    3  A    between atoms: C_5  and  C_6
REMARK    4  A    between atoms: C_7  and  C_8
REMARK    5  A    between atoms: C_7  and  C_11
REMARK    6  A    between atoms: C_8  and  C_9
REMARK    7  A    between atoms: N_13  and  C_14
REMARK    8  A    between atoms: C_14  and  C_15
REMARK    9  A    between atoms: C_15  and  C_16
REMARK   10  A    between atoms: C_16  and  C_17
REMARK   11  A    between atoms: C_17  and  C_18
REMARK   12  A    between atoms: C_18  and  C_19
REMARK   13  A    between atoms: C_19  and  N_20
REMARK   14  A    between atoms: N_20  and  C_21
REMARK   15  A    between atoms: C_37  and  O_38
REMARK                            x       y       z     vdW  Elec       q    Type
REMARK                         _______ _______ _______ _____ _____    ______ ____
ROOT
ATOM      1  C   UNL A   1      46.787 -18.546 -39.738  0.00  0.00    -0.037 C 
ENDROOT
BRANCH   1   2
ATOM      2  C   UNL A   1      47.110 -19.013 -38.322  0.00  0.00    +0.012 C 
BRANCH   2   5
ATOM      3  C   UNL A   1      46.230 -18.776 -36.053  0.00  0.00    +0.247 C 
ATOM      4  O   UNL A   1      47.341 -18.858 -35.543  0.00  0.00    -0.270 OA
ATOM      5  N   UNL A   1      46.003 -18.813 -37.411  0.00  0.00    -0.311 N 
ATOM      6  H   UNL A   1      45.089 -18.705 -37.761  0.00  0.00    +0.000 HD
BRANCH   3   8
ATOM      7  C   UNL A   1      44.006 -19.552 -35.410  0.00  0.00    -0.039 C 
ATOM      8  C   UNL A   1      45.010 -18.676 -35.213  0.00  0.00    +0.079 C 
BRANCH   7  11
ATOM      9  C   UNL A   1      41.052 -20.545 -33.298  0.00  0.00    +0.162 A 
ATOM     10  C   UNL A   1      42.305 -20.547 -33.920  0.00  0.00    -0.009 A 
ATOM     11  C   UNL A   1      42.675 -19.507 -34.789  0.00  0.00    -0.021 A 
ATOM     12  C   UNL A   1      41.789 -18.450 -35.013  0.00  0.00    -0.051 A 
ATOM     13  C   UNL A   1      40.531 -18.447 -34.412  0.00  0.00    -0.016 A 
ATOM     14  C   UNL A   1      40.167 -19.493 -33.565  0.00  0.00    +0.158 A 
BRANCH   9  16
ATOM     15  C   UNL A   1      40.461 -22.832 -32.967  0.00  0.00    +0.079 C 
ATOM     16  O   UNL A   1      40.599 -21.518 -32.445  0.00  0.00    -0.491 OA
ENDBRANCH   9  16
BRANCH  14  17
ATOM     17  O   UNL A   1      38.930 -19.492 -32.977  0.00  0.00    -0.503 OA
ATOM     18  H   UNL A   1      38.176 -19.745 -33.472  0.00  0.00    +0.000 HD
ENDBRANCH  14  17
ENDBRANCH   7  11
BRANCH   8  19
ATOM     19  C   UNL A   1      44.873 -17.507 -34.305  0.00  0.00    +0.165 C 
ATOM     20  C   UNL A   1      44.952 -17.753 -32.824  0.00  0.00    -0.001 C 
ATOM     21  O   UNL A   1      44.650 -16.387 -34.767  0.00  0.00    -0.292 OA
ENDBRANCH   8  19
ENDBRANCH   3   8
ENDBRANCH   2   5
ENDBRANCH   1   2
BRANCH   1  22
ATOM     22  C   UNL A   1      47.013 -19.642 -40.784  0.00  0.00    -0.052 C 
BRANCH  22  23
ATOM     23  C   UNL A   1      45.723 -20.095 -41.473  0.00  0.00    -0.052 C 
BRANCH  23  24
ATOM     24  C   UNL A   1      45.145 -21.346 -40.804  0.00  0.00    -0.037 C 
BRANCH  24  25
ATOM     25  C   UNL A   1      43.698 -21.143 -40.345  0.00  0.00    +0.009 C 
BRANCH  25  26
ATOM     26  N   UNL A   1      43.684 -20.582 -38.987  0.00  0.00    -0.343 N 
ATOM     27  H   UNL A   1      44.428 -20.660 -38.347  0.00  0.00    +0.000 HD
BRANCH  26  28
ATOM     28  C   UNL A   1      42.454 -19.909 -38.711  0.00  0.00    +0.041 A 
ATOM     29  C   UNL A   1      42.206 -18.618 -39.225  0.00  0.00    -0.005 A 
ATOM     30  C   UNL A   1      40.956 -18.049 -38.963  0.00  0.00    +0.047 A 
ATOM     31  N   UNL A   1      39.974 -18.690 -38.286  0.00  0.00    -0.251 NA
ATOM     32  C   UNL A   1      40.207 -19.921 -37.810  0.00  0.00    +0.073 A 
ATOM     33  C   UNL A   1      39.192 -20.556 -37.106  0.00  0.00    -0.036 A 
ATOM     34  C   UNL A   1      39.354 -21.834 -36.564  0.00  0.00    -0.060 A 
ATOM     35  C   UNL A   1      40.561 -22.497 -36.726  0.00  0.00    -0.061 A 
ATOM     36  C   UNL A   1      41.592 -21.878 -37.432  0.00  0.00    -0.051 A 
ATOM     37  C   UNL A   1      41.432 -20.588 -37.992  0.00  0.00    +0.021 A 
ATOM     38  C   UNL A   1      40.579 -16.684 -39.480  0.00  0.00    -0.010 C 
ATOM     39  C   UNL A   1      41.779 -15.823 -39.849  0.00  0.00    -0.047 C 
ATOM     40  C   UNL A   1      42.735 -16.621 -40.722  0.00  0.00    -0.049 C 
ATOM     41  C   UNL A   1      43.268 -17.833 -39.959  0.00  0.00    -0.024 C 
ENDBRANCH  26  28
ENDBRANCH  25  26
ENDBRANCH  24  25
ENDBRANCH  23  24
ENDBRANCH  22  23
ENDBRANCH   1  22
TORSDOF 13
ENDMDL
MODEL 17
REMARK VINA RESULT:    -6.114     17.516     20.470
REMARK INTER + INTRA:         -13.745
REMARK INTER:                 -10.336
REMARK INTRA:                  -3.409
REMARK UNBOUND:                -3.163
REMARK  Name = cpd145.pdb
REMARK  15 active torsions:
REMARK  status: ('A' for Active; 'I' for Inactive)
REMARK    1  A    between atoms: C_1  and  O_2
REMARK    2  A    between atoms: O_2  and  C_3
REMARK    3  A    between atoms: C_5  and  C_6
REMARK    4  A    between atoms: C_7  and  C_8
REMARK    5  A    between atoms: C_7  and  C_11
REMARK    6  A    between atoms: C_8  and  C_9
REMARK    7  A    between atoms: N_13  and  C_14
REMARK    8  A    between atoms: C_14  and  C_15
REMARK    9  A    between atoms: C_15  and  C_16
REMARK   10  A    between atoms: C_16  and  C_17
REMARK   11  A    between atoms: C_17  and  C_18
REMARK   12  A    between atoms: C_18  and  C_19
REMARK   13  A    between atoms: C_19  and  N_20
REMARK   14  A    between atoms: N_20  and  C_21
REMARK   15  A    between atoms: C_37  and  O_38
REMARK                            x       y       z     vdW  Elec       q    Type
REMARK                         _______ _______ _______ _____ _____    ______ ____
ROOT
ATOM      1  C   UNL A   1      40.999 -20.021 -33.049  0.00  0.00    -0.037 C 
ENDROOT
BRANCH   1   2
ATOM      2  C   UNL A   1      42.172 -20.952 -33.344  0.00  0.00    +0.012 C 
BRANCH   2   5
ATOM      3  C   UNL A   1      43.979 -20.193 -34.806  0.00  0.00    +0.247 C 
ATOM      4  O   UNL A   1      44.708 -19.904 -33.864  0.00  0.00    -0.270 OA
ATOM      5  N   UNL A   1      42.723 -20.739 -34.666  0.00  0.00    -0.311 N 
ATOM      6  H   UNL A   1      42.200 -20.985 -35.464  0.00  0.00    +0.000 HD
BRANCH   3   8
ATOM      7  C   UNL A   1      43.552 -20.225 -37.210  0.00  0.00    -0.039 C 
ATOM      8  C   UNL A   1      44.396 -19.920 -36.205  0.00  0.00    +0.079 C 
BRANCH   7  11
ATOM      9  C   UNL A   1      44.723 -21.303 -40.622  0.00  0.00    +0.162 A 
ATOM     10  C   UNL A   1      44.426 -21.301 -39.255  0.00  0.00    -0.009 A 
ATOM     11  C   UNL A   1      43.852 -20.173 -38.647  0.00  0.00    -0.021 A 
ATOM     12  C   UNL A   1      43.554 -19.050 -39.425  0.00  0.00    -0.051 A 
ATOM     13  C   UNL A   1      43.862 -19.035 -40.785  0.00  0.00    -0.016 A 
ATOM     14  C   UNL A   1      44.447 -20.154 -41.373  0.00  0.00    +0.158 A 
BRANCH   9  16
ATOM     15  C   UNL A   1      46.628 -22.697 -40.963  0.00  0.00    +0.079 C 
ATOM     16  O   UNL A   1      45.293 -22.350 -41.299  0.00  0.00    -0.491 OA
ENDBRANCH   9  16
BRANCH  14  17
ATOM     17  O   UNL A   1      44.753 -20.138 -42.708  0.00  0.00    -0.503 OA
ATOM     18  H   UNL A   1      45.641 -20.023 -42.984  0.00  0.00    +0.000 HD
ENDBRANCH  14  17
ENDBRANCH   7  11
BRANCH   8  19
ATOM     19  C   UNL A   1      45.795 -19.484 -36.452  0.00  0.00    +0.165 C 
ATOM     20  C   UNL A   1      46.048 -18.014 -36.650  0.00  0.00    -0.001 C 
ATOM     21  O   UNL A   1      46.697 -20.316 -36.540  0.00  0.00    -0.292 OA
ENDBRANCH   8  19
ENDBRANCH   3   8
ENDBRANCH   2   5
ENDBRANCH   1   2
BRANCH   1  22
ATOM     22  C   UNL A   1      39.724 -20.785 -32.680  0.00  0.00    -0.052 C 
BRANCH  22  23
ATOM     23  C   UNL A   1      38.452 -19.944 -32.831  0.00  0.00    -0.052 C 
BRANCH  23  24
ATOM     24  C   UNL A   1      37.421 -20.651 -33.716  0.00  0.00    -0.037 C 
BRANCH  24  25
ATOM     25  C   UNL A   1      37.140 -19.881 -35.009  0.00  0.00    +0.009 C 
BRANCH  25  26
ATOM     26  N   UNL A   1      38.337 -19.127 -35.406  0.00  0.00    -0.343 N 
ATOM     27  H   UNL A   1      38.903 -18.618 -34.783  0.00  0.00    +0.000 HD
BRANCH  26  28
ATOM     28  C   UNL A   1      38.576 -19.226 -36.812  0.00  0.00    +0.041 A 
ATOM     29  C   UNL A   1      38.134 -18.215 -37.692  0.00  0.00    -0.005 A 
ATOM     30  C   UNL A   1      38.458 -18.352 -39.045  0.00  0.00    +0.047 A 
ATOM     31  N   UNL A   1      39.202 -19.373 -39.533  0.00  0.00    -0.251 NA
ATOM     32  C   UNL A   1      39.632 -20.325 -38.693  0.00  0.00    +0.073 A 
ATOM     33  C   UNL A   1      40.381 -21.372 -39.215  0.00  0.00    -0.036 A 
ATOM     34  C   UNL A   1      40.858 -22.412 -38.413  0.00  0.00    -0.060 A 
ATOM     35  C   UNL A   1      40.578 -22.412 -37.055  0.00  0.00    -0.061 A 
ATOM     36  C   UNL A   1      39.829 -21.370 -36.511  0.00  0.00    -0.051 A 
ATOM     37  C   UNL A   1      39.351 -20.307 -37.314  0.00  0.00    +0.021 A 
ATOM     38  C   UNL A   1      38.052 -17.322 -40.068  0.00  0.00    -0.010 C 
ATOM     39  C   UNL A   1      36.896 -16.440 -39.617  0.00  0.00    -0.047 C 
ATOM     40  C   UNL A   1      37.170 -15.912 -38.217  0.00  0.00    -0.049 C 
ATOM     41  C   UNL A   1      37.271 -17.067 -37.222  0.00  0.00    -0.024 C 
ENDBRANCH  26  28
ENDBRANCH  25  26
ENDBRANCH  24  25
ENDBRANCH  23  24
ENDBRANCH  22  23
ENDBRANCH   1  22
TORSDOF 13
ENDMDL
MODEL 18
REMARK VINA RESULT:    -6.030     17.897     21.302
REMARK INTER + INTRA:         -13.599
REMARK INTER:                 -10.521
REMARK INTRA:                  -3.077
REMARK UNBOUND:                -3.163
REMARK  Name = cpd145.pdb
REMARK  15 active torsions:
REMARK  status: ('A' for Active; 'I' for Inactive)
REMARK    1  A    between atoms: C_1  and  O_2
REMARK    2  A    between atoms: O_2  and  C_3
REMARK    3  A    between atoms: C_5  and  C_6
REMARK    4  A    between atoms: C_7  and  C_8
REMARK    5  A    between atoms: C_7  and  C_11
REMARK    6  A    between atoms: C_8  and  C_9
REMARK    7  A    between atoms: N_13  and  C_14
REMARK    8  A    between atoms: C_14  and  C_15
REMARK    9  A    between atoms: C_15  and  C_16
REMARK   10  A    between atoms: C_16  and  C_17
REMARK   11  A    between atoms: C_17  and  C_18
REMARK   12  A    between atoms: C_18  and  C_19
REMARK   13  A    between atoms: C_19  and  N_20
REMARK   14  A    between atoms: N_20  and  C_21
REMARK   15  A    between atoms: C_37  and  O_38
REMARK                            x       y       z     vdW  Elec       q    Type
REMARK                         _______ _______ _______ _____ _____    ______ ____
ROOT
ATOM      1  C   UNL A   1      43.196 -14.638 -36.901  0.00  0.00    -0.037 C 
ENDROOT
BRANCH   1   2
ATOM      2  C   UNL A   1      42.127 -15.618 -37.375  0.00  0.00    +0.012 C 
BRANCH   2   5
ATOM      3  C   UNL A   1      41.984 -18.059 -37.371  0.00  0.00    +0.247 C 
ATOM      4  O   UNL A   1      41.777 -18.113 -38.577  0.00  0.00    -0.270 OA
ATOM      5  N   UNL A   1      42.196 -16.886 -36.680  0.00  0.00    -0.311 N 
ATOM      6  H   UNL A   1      42.395 -16.910 -35.716  0.00  0.00    +0.000 HD
BRANCH   3   8
ATOM      7  C   UNL A   1      40.921 -19.515 -35.724  0.00  0.00    -0.039 C 
ATOM      8  C   UNL A   1      41.971 -19.287 -36.537  0.00  0.00    +0.079 C 
BRANCH   7  11
ATOM      9  C   UNL A   1      40.038 -22.827 -34.166  0.00  0.00    +0.162 A 
ATOM     10  C   UNL A   1      40.162 -21.777 -35.082  0.00  0.00    -0.009 A 
ATOM     11  C   UNL A   1      40.810 -20.584 -34.722  0.00  0.00    -0.021 A 
ATOM     12  C   UNL A   1      41.356 -20.458 -33.442  0.00  0.00    -0.051 A 
ATOM     13  C   UNL A   1      41.223 -21.491 -32.515  0.00  0.00    -0.016 A 
ATOM     14  C   UNL A   1      40.563 -22.664 -32.878  0.00  0.00    +0.158 A 
BRANCH   9  16
ATOM     15  C   UNL A   1      38.055 -24.146 -34.030  0.00  0.00    +0.079 C 
ATOM     16  O   UNL A   1      39.414 -24.021 -34.422  0.00  0.00    -0.491 OA
ENDBRANCH   9  16
BRANCH  14  17
ATOM     17  O   UNL A   1      40.429 -23.678 -31.967  0.00  0.00    -0.503 OA
ATOM     18  H   UNL A   1      39.774 -23.624 -31.299  0.00  0.00    +0.000 HD
ENDBRANCH  14  17
ENDBRANCH   7  11
BRANCH   8  19
ATOM     19  C   UNL A   1      43.195 -20.129 -36.503  0.00  0.00    +0.165 C 
ATOM     20  C   UNL A   1      44.173 -19.902 -35.383  0.00  0.00    -0.001 C 
ATOM     21  O   UNL A   1      43.411 -20.945 -37.398  0.00  0.00    -0.292 OA
ENDBRANCH   8  19
ENDBRANCH   3   8
ENDBRANCH   2   5
ENDBRANCH   1   2
BRANCH   1  22
ATOM     22  C   UNL A   1      43.944 -13.977 -38.063  0.00  0.00    -0.052 C 
BRANCH  22  23
ATOM     23  C   UNL A   1      43.516 -14.507 -39.435  0.00  0.00    -0.052 C 
BRANCH  23  24
ATOM     24  C   UNL A   1      44.686 -14.499 -40.423  0.00  0.00    -0.037 C 
BRANCH  24  25
ATOM     25  C   UNL A   1      45.070 -15.908 -40.880  0.00  0.00    +0.009 C 
BRANCH  25  26
ATOM     26  N   UNL A   1      44.255 -16.900 -40.165  0.00  0.00    -0.343 N 
ATOM     27  H   UNL A   1      43.313 -16.766 -39.914  0.00  0.00    +0.000 HD
BRANCH  26  28
ATOM     28  C   UNL A   1      45.002 -18.084 -39.880  0.00  0.00    +0.041 A 
ATOM     29  C   UNL A   1      45.043 -19.151 -40.802  0.00  0.00    -0.005 A 
ATOM     30  C   UNL A   1      45.844 -20.251 -40.480  0.00  0.00    +0.047 A 
ATOM     31  N   UNL A   1      46.602 -20.318 -39.360  0.00  0.00    -0.251 NA
ATOM     32  C   UNL A   1      46.572 -19.297 -38.492  0.00  0.00    +0.073 A 
ATOM     33  C   UNL A   1      47.346 -19.389 -37.342  0.00  0.00    -0.036 A 
ATOM     34  C   UNL A   1      47.363 -18.378 -36.378  0.00  0.00    -0.060 A 
ATOM     35  C   UNL A   1      46.586 -17.244 -36.562  0.00  0.00    -0.061 A 
ATOM     36  C   UNL A   1      45.804 -17.131 -37.711  0.00  0.00    -0.051 A 
ATOM     37  C   UNL A   1      45.788 -18.146 -38.697  0.00  0.00    +0.021 A 
ATOM     38  C   UNL A   1      45.976 -21.437 -41.402  0.00  0.00    -0.010 C 
ATOM     39  C   UNL A   1      44.837 -21.554 -42.407  0.00  0.00    -0.047 C 
ATOM     40  C   UNL A   1      44.610 -20.211 -43.082  0.00  0.00    -0.049 C 
ATOM     41  C   UNL A   1      44.197 -19.160 -42.054  0.00  0.00    -0.024 C 
ENDBRANCH  26  28
ENDBRANCH  25  26
ENDBRANCH  24  25
ENDBRANCH  23  24
ENDBRANCH  22  23
ENDBRANCH   1  22
TORSDOF 13
ENDMDL
MODEL 19
REMARK VINA RESULT:    -5.999     17.986     21.750
REMARK INTER + INTRA:         -13.546
REMARK INTER:                 -11.212
REMARK INTRA:                  -2.334
REMARK UNBOUND:                -3.163
REMARK  Name = cpd145.pdb
REMARK  15 active torsions:
REMARK  status: ('A' for Active; 'I' for Inactive)
REMARK    1  A    between atoms: C_1  and  O_2
REMARK    2  A    between atoms: O_2  and  C_3
REMARK    3  A    between atoms: C_5  and  C_6
REMARK    4  A    between atoms: C_7  and  C_8
REMARK    5  A    between atoms: C_7  and  C_11
REMARK    6  A    between atoms: C_8  and  C_9
REMARK    7  A    between atoms: N_13  and  C_14
REMARK    8  A    between atoms: C_14  and  C_15
REMARK    9  A    between atoms: C_15  and  C_16
REMARK   10  A    between atoms: C_16  and  C_17
REMARK   11  A    between atoms: C_17  and  C_18
REMARK   12  A    between atoms: C_18  and  C_19
REMARK   13  A    between atoms: C_19  and  N_20
REMARK   14  A    between atoms: N_20  and  C_21
REMARK   15  A    between atoms: C_37  and  O_38
REMARK                            x       y       z     vdW  Elec       q    Type
REMARK                         _______ _______ _______ _____ _____    ______ ____
ROOT
ATOM      1  C   UNL A   1      43.871 -16.031 -34.876  0.00  0.00    -0.037 C 
ENDROOT
BRANCH   1   2
ATOM      2  C   UNL A   1      45.282 -16.052 -35.456  0.00  0.00    +0.012 C 
BRANCH   2   5
ATOM      3  C   UNL A   1      45.556 -15.930 -37.883  0.00  0.00    +0.247 C 
ATOM      4  O   UNL A   1      45.765 -14.723 -37.864  0.00  0.00    -0.270 OA
ATOM      5  N   UNL A   1      45.333 -16.689 -36.755  0.00  0.00    -0.311 N 
ATOM      6  H   UNL A   1      45.209 -17.663 -36.833  0.00  0.00    +0.000 HD
BRANCH   3   8
ATOM      7  C   UNL A   1      45.151 -17.979 -39.149  0.00  0.00    -0.039 C 
ATOM      8  C   UNL A   1      45.479 -16.672 -39.167  0.00  0.00    +0.079 C 
BRANCH   7  11
ATOM      9  C   UNL A   1      46.122 -20.901 -41.314  0.00  0.00    +0.162 A 
ATOM     10  C   UNL A   1      46.064 -19.991 -40.253  0.00  0.00    -0.009 A 
ATOM     11  C   UNL A   1      45.180 -18.901 -40.292  0.00  0.00    -0.021 A 
ATOM     12  C   UNL A   1      44.334 -18.740 -41.393  0.00  0.00    -0.051 A 
ATOM     13  C   UNL A   1      44.395 -19.631 -42.464  0.00  0.00    -0.016 A 
ATOM     14  C   UNL A   1      45.289 -20.700 -42.422  0.00  0.00    +0.158 A 
BRANCH   9  16
ATOM     15  C   UNL A   1      48.351 -21.733 -41.476  0.00  0.00    +0.079 C 
ATOM     16  O   UNL A   1      46.958 -21.986 -41.372  0.00  0.00    -0.491 OA
ENDBRANCH   9  16
BRANCH  14  17
ATOM     17  O   UNL A   1      45.353 -21.574 -43.475  0.00  0.00    -0.503 OA
ATOM     18  H   UNL A   1      44.570 -21.816 -43.930  0.00  0.00    +0.000 HD
ENDBRANCH  14  17
ENDBRANCH   7  11
BRANCH   8  19
ATOM     19  C   UNL A   1      45.936 -15.988 -40.405  0.00  0.00    +0.165 C 
ATOM     20  C   UNL A   1      47.401 -16.046 -40.740  0.00  0.00    -0.001 C 
ATOM     21  O   UNL A   1      45.136 -15.356 -41.094  0.00  0.00    -0.292 OA
ENDBRANCH   8  19
ENDBRANCH   3   8
ENDBRANCH   2   5
ENDBRANCH   1   2
BRANCH   1  22
ATOM     22  C   UNL A   1      43.845 -16.375 -33.383  0.00  0.00    -0.052 C 
BRANCH  22  23
ATOM     23  C   UNL A   1      44.214 -17.833 -33.093  0.00  0.00    -0.052 C 
BRANCH  23  24
ATOM     24  C   UNL A   1      43.138 -18.792 -33.610  0.00  0.00    -0.037 C 
BRANCH  24  25
ATOM     25  C   UNL A   1      43.632 -19.643 -34.782  0.00  0.00    +0.009 C 
BRANCH  25  26
ATOM     26  N   UNL A   1      43.030 -20.981 -34.711  0.00  0.00    -0.343 N 
ATOM     27  H   UNL A   1      43.454 -21.756 -34.276  0.00  0.00    +0.000 HD
BRANCH  26  28
ATOM     28  C   UNL A   1      41.754 -21.018 -35.352  0.00  0.00    +0.041 A 
ATOM     29  C   UNL A   1      41.654 -21.071 -36.759  0.00  0.00    -0.005 A 
ATOM     30  C   UNL A   1      40.373 -21.166 -37.311  0.00  0.00    +0.047 A 
ATOM     31  N   UNL A   1      39.245 -21.250 -36.566  0.00  0.00    -0.251 NA
ATOM     32  C   UNL A   1      39.344 -21.213 -35.230  0.00  0.00    +0.073 A 
ATOM     33  C   UNL A   1      38.175 -21.286 -34.482  0.00  0.00    -0.036 A 
ATOM     34  C   UNL A   1      38.185 -21.241 -33.086  0.00  0.00    -0.060 A 
ATOM     35  C   UNL A   1      39.392 -21.116 -32.414  0.00  0.00    -0.061 A 
ATOM     36  C   UNL A   1      40.577 -21.043 -33.145  0.00  0.00    -0.051 A 
ATOM     37  C   UNL A   1      40.576 -21.098 -34.560  0.00  0.00    +0.021 A 
ATOM     38  C   UNL A   1      40.152 -21.248 -38.800  0.00  0.00    -0.010 C 
ATOM     39  C   UNL A   1      41.331 -20.736 -39.617  0.00  0.00    -0.047 C 
ATOM     40  C   UNL A   1      42.620 -21.356 -39.103  0.00  0.00    -0.049 C 
ATOM     41  C   UNL A   1      42.866 -20.947 -37.652  0.00  0.00    -0.024 C 
ENDBRANCH  26  28
ENDBRANCH  25  26
ENDBRANCH  24  25
ENDBRANCH  23  24
ENDBRANCH  22  23
ENDBRANCH   1  22
TORSDOF 13
ENDMDL
MODEL 20
REMARK VINA RESULT:    -5.873     19.499     22.950
REMARK INTER + INTRA:         -13.328
REMARK INTER:                  -8.980
REMARK INTRA:                  -4.348
REMARK UNBOUND:                -3.163
REMARK  Name = cpd145.pdb
REMARK  15 active torsions:
REMARK  status: ('A' for Active; 'I' for Inactive)
REMARK    1  A    between atoms: C_1  and  O_2
REMARK    2  A    between atoms: O_2  and  C_3
REMARK    3  A    between atoms: C_5  and  C_6
REMARK    4  A    between atoms: C_7  and  C_8
REMARK    5  A    between atoms: C_7  and  C_11
REMARK    6  A    between atoms: C_8  and  C_9
REMARK    7  A    between atoms: N_13  and  C_14
REMARK    8  A    between atoms: C_14  and  C_15
REMARK    9  A    between atoms: C_15  and  C_16
REMARK   10  A    between atoms: C_16  and  C_17
REMARK   11  A    between atoms: C_17  and  C_18
REMARK   12  A    between atoms: C_18  and  C_19
REMARK   13  A    between atoms: C_19  and  N_20
REMARK   14  A    between atoms: N_20  and  C_21
REMARK   15  A    between atoms: C_37  and  O_38
REMARK                            x       y       z     vdW  Elec       q    Type
REMARK                         _______ _______ _______ _____ _____    ______ ____
ROOT
ATOM      1  C   UNL A   1      44.747 -12.762 -39.988  0.00  0.00    -0.037 C 
ENDROOT
BRANCH   1   2
ATOM      2  C   UNL A   1      43.725 -13.499 -40.850  0.00  0.00    +0.012 C 
BRANCH   2   5
ATOM      3  C   UNL A   1      42.062 -14.763 -39.579  0.00  0.00    +0.247 C 
ATOM      4  O   UNL A   1      41.294 -13.811 -39.512  0.00  0.00    -0.270 OA
ATOM      5  N   UNL A   1      43.273 -14.729 -40.236  0.00  0.00    -0.311 N 
ATOM      6  H   UNL A   1      43.830 -15.540 -40.286  0.00  0.00    +0.000 HD
BRANCH   3   8
ATOM      7  C   UNL A   1      42.757 -16.899 -38.620  0.00  0.00    -0.039 C 
ATOM      8  C   UNL A   1      41.752 -16.045 -38.896  0.00  0.00    +0.079 C 
BRANCH   7  11
ATOM      9  C   UNL A   1      42.670 -19.759 -36.173  0.00  0.00    +0.162 A 
ATOM     10  C   UNL A   1      42.796 -18.477 -36.720  0.00  0.00    -0.009 A 
ATOM     11  C   UNL A   1      42.621 -18.265 -38.097  0.00  0.00    -0.021 A 
ATOM     12  C   UNL A   1      42.293 -19.344 -38.923  0.00  0.00    -0.051 A 
ATOM     13  C   UNL A   1      42.181 -20.628 -38.391  0.00  0.00    -0.016 A 
ATOM     14  C   UNL A   1      42.374 -20.830 -37.026  0.00  0.00    +0.158 A 
BRANCH   9  16
ATOM     15  C   UNL A   1      43.622 -19.181 -34.064  0.00  0.00    +0.079 C 
ATOM     16  O   UNL A   1      42.833 -20.065 -34.847  0.00  0.00    -0.491 OA
ENDBRANCH   9  16
BRANCH  14  17
ATOM     17  O   UNL A   1      42.268 -22.092 -36.504  0.00  0.00    -0.503 OA
ATOM     18  H   UNL A   1      42.024 -22.808 -37.057  0.00  0.00    +0.000 HD
ENDBRANCH  14  17
ENDBRANCH   7  11
BRANCH   8  19
ATOM     19  C   UNL A   1      40.326 -16.412 -38.700  0.00  0.00    +0.165 C 
ATOM     20  C   UNL A   1      39.721 -16.182 -37.342  0.00  0.00    -0.001 C 
ATOM     21  O   UNL A   1      39.689 -16.935 -39.614  0.00  0.00    -0.292 OA
ENDBRANCH   8  19
ENDBRANCH   3   8
ENDBRANCH   2   5
ENDBRANCH   1   2
BRANCH   1  22
ATOM     22  C   UNL A   1      45.952 -13.637 -39.630  0.00  0.00    -0.052 C 
BRANCH  22  23
ATOM     23  C   UNL A   1      46.628 -14.264 -40.853  0.00  0.00    -0.052 C 
BRANCH  23  24
ATOM     24  C   UNL A   1      47.598 -15.376 -40.444  0.00  0.00    -0.037 C 
BRANCH  24  25
ATOM     25  C   UNL A   1      47.193 -16.739 -41.012  0.00  0.00    +0.009 C 
BRANCH  25  26
ATOM     26  N   UNL A   1      45.875 -17.122 -40.488  0.00  0.00    -0.343 N 
ATOM     27  H   UNL A   1      45.076 -16.549 -40.524  0.00  0.00    +0.000 HD
BRANCH  26  28
ATOM     28  C   UNL A   1      45.898 -18.432 -39.917  0.00  0.00    +0.041 A 
ATOM     29  C   UNL A   1      46.142 -18.615 -38.539  0.00  0.00    -0.005 A 
ATOM     30  C   UNL A   1      46.089 -19.921 -38.044  0.00  0.00    +0.047 A 
ATOM     31  N   UNL A   1      45.777 -20.996 -38.807  0.00  0.00    -0.251 NA
ATOM     32  C   UNL A   1      45.533 -20.817 -40.113  0.00  0.00    +0.073 A 
ATOM     33  C   UNL A   1      45.228 -21.933 -40.883  0.00  0.00    -0.036 A 
ATOM     34  C   UNL A   1      44.973 -21.840 -42.253  0.00  0.00    -0.060 A 
ATOM     35  C   UNL A   1      45.026 -20.602 -42.876  0.00  0.00    -0.061 A 
ATOM     36  C   UNL A   1      45.327 -19.469 -42.121  0.00  0.00    -0.051 A 
ATOM     37  C   UNL A   1      45.577 -19.554 -40.730  0.00  0.00    +0.021 A 
ATOM     38  C   UNL A   1      46.315 -20.229 -36.585  0.00  0.00    -0.010 C 
ATOM     39  C   UNL A   1      47.063 -19.130 -35.842  0.00  0.00    -0.047 C 
ATOM     40  C   UNL A   1      46.427 -17.782 -36.145  0.00  0.00    -0.049 C 
ATOM     41  C   UNL A   1      46.529 -17.467 -37.637  0.00  0.00    -0.024 C 
ENDBRANCH  26  28
ENDBRANCH  25  26
ENDBRANCH  24  25
ENDBRANCH  23  24
ENDBRANCH  22  23
ENDBRANCH   1  22
TORSDOF 13
ENDMDL
