REMARK  Name = cpd56.pdb
REMARK  11 active torsions:
REMARK  status: ('A' for Active; 'I' for Inactive)
REMARK    1  A    between atoms: C_1  and  O_2
REMARK    2  A    between atoms: O_2  and  C_3
REMARK    3  A    between atoms: C_12  and  O_13
REMARK    4  A    between atoms: N_19  and  C_20
REMARK    5  A    between atoms: C_20  and  C_21
REMARK    6  A    between atoms: C_21  and  C_22
REMARK    7  A    between atoms: C_22  and  C_23
REMARK    8  A    between atoms: C_23  and  C_24
REMARK    9  A    between atoms: C_24  and  C_25
REMARK   10  A    between atoms: C_25  and  O_26
REMARK   11  A    between atoms: O_26  and  C_27
REMARK                            x       y       z     vdW  Elec       q    Type
REMARK                         _______ _______ _______ _____ _____    ______ ____
ROOT
ATOM      1  C   UNL     1       4.668  -1.332  -0.347  0.00  0.00    +0.162 A 
ATOM      2  C   UNL     1       4.274  -0.146  -0.966  0.00  0.00    -0.016 A 
ATOM      3  C   UNL     1       2.910   0.180  -1.080  0.00  0.00    -0.053 A 
ATOM      4  C   UNL     1       1.907  -0.687  -0.614  0.00  0.00    -0.026 A 
ATOM      5  C   UNL     1       2.313  -1.910  -0.086  0.00  0.00    +0.016 A 
ATOM      6  C   UNL     1       3.663  -2.184   0.095  0.00  0.00    +0.167 A 
ATOM      7  O   UNL     1       3.907  -3.312   0.837  0.00  0.00    -0.484 OA
ATOM      8  C   UNL     1       2.615  -3.943   1.018  0.00  0.00    +0.116 C 
ATOM      9  C   UNL     1       2.708  -5.281   0.275  0.00  0.00    +0.015 C 
ATOM     10  C   UNL     1       1.351  -5.941   0.099  0.00  0.00    +0.077 C 
ATOM     11  C   UNL     1       0.409  -4.993  -0.559  0.00  0.00    -0.059 C 
ATOM     12  C   UNL     1       0.497  -3.662  -0.404  0.00  0.00    -0.071 C 
ATOM     13  C   UNL     1       1.474  -2.977   0.540  0.00  0.00    +0.056 C 
ATOM     14  C   UNL     1       0.734  -2.357   1.748  0.00  0.00    -0.023 C 
ATOM     15  C   UNL     1      -0.426  -1.398   1.411  0.00  0.00    +0.000 C 
ATOM     16  N   UNL     1      -0.077  -0.121   0.763  0.00  0.00    -0.298 N 
ATOM     17  C   UNL     1       0.460  -0.259  -0.602  0.00  0.00    +0.024 C 
ATOM     18  H   UNL     1       0.690   0.263   1.314  0.00  0.00    +0.000 HD
ENDROOT
BRANCH   1  20
ATOM     19  C   UNL     1       6.988  -0.856  -0.543  0.00  0.00    +0.079 C 
ATOM     20  O   UNL     1       5.954  -1.732  -0.119  0.00  0.00    -0.491 OA
ENDBRANCH   1  20
BRANCH  10  21
ATOM     21  O   UNL     1       1.475  -7.074  -0.750  0.00  0.00    -0.388 OA
ATOM     22  H   UNL     1       1.805  -6.793  -1.618  0.00  0.00    +0.000 HD
ENDBRANCH  10  21
BRANCH  16  23
ATOM     23  C   UNL     1      -1.213   0.823   0.802  0.00  0.00    -0.001 C 
BRANCH  23  24
ATOM     24  C   UNL     1      -2.461   0.400   0.010  0.00  0.00    -0.040 C 
BRANCH  24  25
ATOM     25  C   UNL     1      -3.621   1.381   0.206  0.00  0.00    -0.052 C 
BRANCH  25  26
ATOM     26  C   UNL     1      -4.896   0.836  -0.441  0.00  0.00    -0.050 C 
BRANCH  26  27
ATOM     27  C   UNL     1      -6.113   1.705  -0.134  0.00  0.00    -0.019 C 
BRANCH  27  28
ATOM     28  C   UNL     1      -7.399   1.034  -0.614  0.00  0.00    +0.089 C 
BRANCH  28  29
ATOM     29  O   UNL     1      -8.506   1.840  -0.209  0.00  0.00    -0.496 OA
BRANCH  29  30
ATOM     30  C   UNL     1      -9.771   1.301  -0.340  0.00  0.00    +0.102 C 
ATOM     31  C   UNL     1     -10.079   0.142  -0.965  0.00  0.00    -0.022 C 
ATOM     32  C   UNL     1     -11.439  -0.358  -1.009  0.00  0.00    -0.033 C 
ATOM     33  C   UNL     1     -12.426   0.315  -0.416  0.00  0.00    +0.068 C 
ATOM     34  N   UNL     1     -13.749  -0.025  -0.338  0.00  0.00    -0.255 NA
ATOM     35  C   UNL     1     -14.277   0.939   0.354  0.00  0.00    +0.029 C 
ATOM     36  C   UNL     1     -13.363   1.999   0.790  0.00  0.00    -0.038 C 
ATOM     37  C   UNL     1     -12.213   1.560   0.276  0.00  0.00    -0.013 C 
ATOM     38  C   UNL     1     -10.841   2.157   0.330  0.00  0.00    +0.032 C 
ENDBRANCH  29  30
ENDBRANCH  28  29
ENDBRANCH  27  28
ENDBRANCH  26  27
ENDBRANCH  25  26
ENDBRANCH  24  25
ENDBRANCH  23  24
ENDBRANCH  16  23
TORSDOF 10
