@<TRIPOS>MOLECULE
*****
 36 41 0 0 0
SMALL
GASTEIGER

@<TRIPOS>ATOM
      1 C           4.0636   -0.9964    0.0000 C.3     1  UNL1        0.2526
      2 O           3.3018   -1.5499    0.0000 O.3     1  UNL1       -0.4684
      3 C           2.4863   -1.0791    0.0000 C.ar    1  UNL1        0.1721
      4 C           2.4862   -0.1374    0.0000 C.ar    1  UNL1        0.0397
      5 C           1.6702    0.3337    0.0000 C.ar    1  UNL1        0.0001
      6 C           0.8547   -0.1370    0.0000 C.ar    1  UNL1       -0.0066
      7 C           0.8545   -1.0791    0.0000 C.ar    1  UNL1        0.0187
      8 C           1.6705   -1.5503    0.0000 C.ar    1  UNL1        0.1682
      9 O           1.6705   -2.4919    0.0000 O.3     1  UNL1       -0.4757
     10 C           0.8548   -2.9631    0.0000 C.3     1  UNL1        0.1762
     11 C           0.8546   -3.9052    0.0000 C.3     1  UNL1        0.0816
     12 C           0.0390   -4.3760    0.0000 C.3     1  UNL1        0.1773
     13 O           0.0390   -5.3464    0.0000 O.3     1  UNL1       -0.2182
     14 C          -0.7770   -3.9049    0.0000 C.2     1  UNL1        0.0021
     15 C          -0.7770   -2.9632    0.0000 C.2     1  UNL1       -0.0211
     16 C           0.0387   -2.4920    0.0000 C.3     1  UNL1        0.0780
     17 C          -0.7175   -2.0709    0.0000 C.3     1  UNL1        0.0290
     18 C          -1.0262   -1.2623    0.0000 C.3     1  UNL1        0.0732
     19 N          -0.7428   -0.4444    0.0000 N.3     1  UNL1       -0.2689
     20 C          -1.5094    0.1788    0.0000 C.3     1  UNL1        0.0724
     21 C          -2.4324   -0.1735    0.0000 C.3     1  UNL1        0.0173
     22 C          -3.1990    0.4497    0.0000 C.3     1  UNL1        0.0016
     23 C          -4.1220    0.0974    0.0000 C.3     1  UNL1        0.0039
     24 C          -4.8886    0.7206    0.0000 C.3     1  UNL1        0.0473
     25 C          -5.8116    0.3684    0.0000 C.3     1  UNL1        0.2054
     26 O          -6.5782    0.9916    0.0000 O.3     1  UNL1       -0.4755
     27 C          -7.5012    0.6393    0.0000 C.ar    1  UNL1        0.1386
     28 C          -7.6576   -0.3362    0.0000 C.ar    1  UNL1        0.0384
     29 C          -8.5806   -0.6885    0.0000 C.ar    1  UNL1        0.0222
     30 C          -9.3472   -0.0653    0.0000 C.ar    1  UNL1        0.0816
     31 N         -10.3233   -0.2180    0.0000 N.ar    1  UNL1       -0.2438
     32 C         -10.7702    0.6631    0.0000 C.ar    1  UNL1        0.0989
     33 C         -10.0702    1.3604    0.0000 C.ar    1  UNL1        0.0222
     34 C          -9.1908    0.9102    0.0000 C.ar    1  UNL1        0.0222
     35 C          -8.2678    1.2625    0.0000 C.ar    1  UNL1        0.0384
     36 C           0.0000    0.0000    0.0000 C.3     1  UNL1        0.0989
@<TRIPOS>BOND
     1     1     2    1
     2     2     3    1
     3     3     4   ar
     4     4     5   ar
     5     5     6   ar
     6     6     7   ar
     7     7     8   ar
     8     3     8   ar
     9     8     9    1
    10     9    10    1
    11    10    11    1
    12    11    12    1
    13    12    13    1
    14    12    14    1
    15    14    15    2
    16    15    16    1
    17     7    16    1
    18    10    16    1
    19    16    17    1
    20    17    18    1
    21    18    19    1
    22    19    20    1
    23    20    21    1
    24    21    22    1
    25    22    23    1
    26    23    24    1
    27    24    25    1
    28    25    26    1
    29    26    27    1
    30    27    28   ar
    31    28    29   ar
    32    29    30   ar
    33    30    31   ar
    34    31    32   ar
    35    32    33   ar
    36    33    34   ar
    37    30    34   ar
    38    34    35   ar
    39    27    35   ar
    40    19    36    1
    41     6    36    1
