MODEL 1
REMARK VINA RESULT:    -8.095      0.000      0.000
REMARK INTER + INTRA:         -14.576
REMARK INTER:                 -12.591
REMARK INTRA:                  -1.986
REMARK UNBOUND:                -1.986
REMARK  Name = cpd56.pdb
REMARK  11 active torsions:
REMARK  status: ('A' for Active; 'I' for Inactive)
REMARK    1  A    between atoms: C_1  and  O_2
REMARK    2  A    between atoms: O_2  and  C_3
REMARK    3  A    between atoms: C_12  and  O_13
REMARK    4  A    between atoms: N_19  and  C_20
REMARK    5  A    between atoms: C_20  and  C_21
REMARK    6  A    between atoms: C_21  and  C_22
REMARK    7  A    between atoms: C_22  and  C_23
REMARK    8  A    between atoms: C_23  and  C_24
REMARK    9  A    between atoms: C_24  and  C_25
REMARK   10  A    between atoms: C_25  and  O_26
REMARK   11  A    between atoms: O_26  and  C_27
REMARK                            x       y       z     vdW  Elec       q    Type
REMARK                         _______ _______ _______ _____ _____    ______ ____
ROOT
ATOM      1  C   UNL     1      40.223 -37.112 -30.437  0.00  0.00    +0.162 A 
ATOM      2  C   UNL     1      40.117 -36.195 -31.482  0.00  0.00    -0.016 A 
ATOM      3  C   UNL     1      38.864 -35.667 -31.843  0.00  0.00    -0.053 A 
ATOM      4  C   UNL     1      37.684 -36.072 -31.196  0.00  0.00    -0.026 A 
ATOM      5  C   UNL     1      37.795 -37.059 -30.221  0.00  0.00    +0.016 A 
ATOM      6  C   UNL     1      39.045 -37.512 -29.818  0.00  0.00    +0.167 A 
ATOM      7  O   UNL     1      39.016 -38.300 -28.695  0.00  0.00    -0.484 OA
ATOM      8  C   UNL     1      37.612 -38.540 -28.427  0.00  0.00    +0.116 C 
ATOM      9  C   UNL     1      37.414 -40.048 -28.618  0.00  0.00    +0.015 C 
ATOM     10  C   UNL     1      35.946 -40.437 -28.676  0.00  0.00    +0.077 C 
ATOM     11  C   UNL     1      35.253 -39.638 -29.726  0.00  0.00    -0.059 C 
ATOM     12  C   UNL     1      35.636 -38.395 -30.059  0.00  0.00    -0.071 C 
ATOM     13  C   UNL     1      36.726 -37.617 -29.336  0.00  0.00    +0.056 C 
ATOM     14  C   UNL     1      36.125 -36.451 -28.518  0.00  0.00    -0.023 C 
ATOM     15  C   UNL     1      35.217 -35.477 -29.296  0.00  0.00    +0.000 C 
ATOM     16  N   UNL     1      35.855 -34.638 -30.327  0.00  0.00    -0.298 N 
ATOM     17  C   UNL     1      36.370 -35.387 -31.486  0.00  0.00    +0.024 C 
ATOM     18  H   UNL     1      36.680 -34.239 -29.880  0.00  0.00    +0.000 HD
ENDROOT
BRANCH   1  20
ATOM     19  C   UNL     1      42.258 -38.253 -30.890  0.00  0.00    +0.079 C 
ATOM     20  O   UNL     1      41.382 -37.648 -29.951  0.00  0.00    -0.491 OA
ENDBRANCH   1  20
BRANCH  10  21
ATOM     21  O   UNL     1      35.826 -41.806 -29.037  0.00  0.00    -0.388 OA
ATOM     22  H   UNL     1      35.856 -42.355 -28.237  0.00  0.00    +0.000 HD
ENDBRANCH  10  21
BRANCH  16  23
ATOM     23  C   UNL     1      34.961 -33.541 -30.749  0.00  0.00    -0.001 C 
BRANCH  23  24
ATOM     24  C   UNL     1      34.308 -32.736 -29.613  0.00  0.00    -0.040 C 
BRANCH  24  25
ATOM     25  C   UNL     1      32.859 -32.362 -29.938  0.00  0.00    -0.052 C 
BRANCH  25  26
ATOM     26  C   UNL     1      32.136 -33.543 -30.590  0.00  0.00    -0.050 C 
BRANCH  26  27
ATOM     27  C   UNL     1      30.870 -33.932 -29.831  0.00  0.00    -0.019 C 
BRANCH  27  28
ATOM     28  C   UNL     1      31.208 -34.450 -28.434  0.00  0.00    +0.089 C 
BRANCH  28  29
ATOM     29  O   UNL     1      31.731 -35.773 -28.558  0.00  0.00    -0.496 OA
BRANCH  29  30
ATOM     30  C   UNL     1      32.240 -36.369 -27.420  0.00  0.00    +0.102 C 
ATOM     31  C   UNL     1      32.855 -37.572 -27.362  0.00  0.00    -0.022 C 
ATOM     32  C   UNL     1      33.394 -38.089 -26.119  0.00  0.00    -0.033 C 
ATOM     33  C   UNL     1      33.306 -37.375 -24.996  0.00  0.00    +0.068 C 
ATOM     34  N   UNL     1      33.782 -37.697 -23.754  0.00  0.00    -0.255 NA
ATOM     35  C   UNL     1      33.462 -36.672 -23.023  0.00  0.00    +0.029 C 
ATOM     36  C   UNL     1      32.747 -35.589 -23.705  0.00  0.00    -0.038 C 
ATOM     37  C   UNL     1      32.672 -36.083 -24.942  0.00  0.00    -0.013 C 
ATOM     38  C   UNL     1      32.059 -35.502 -26.178  0.00  0.00    +0.032 C 
ENDBRANCH  29  30
ENDBRANCH  28  29
ENDBRANCH  27  28
ENDBRANCH  26  27
ENDBRANCH  25  26
ENDBRANCH  24  25
ENDBRANCH  23  24
ENDBRANCH  16  23
TORSDOF 10
ENDMDL
MODEL 2
REMARK VINA RESULT:    -7.862      2.247      5.296
REMARK INTER + INTRA:         -14.214
REMARK INTER:                 -12.431
REMARK INTRA:                  -1.783
REMARK UNBOUND:                -1.986
REMARK  Name = cpd56.pdb
REMARK  11 active torsions:
REMARK  status: ('A' for Active; 'I' for Inactive)
REMARK    1  A    between atoms: C_1  and  O_2
REMARK    2  A    between atoms: O_2  and  C_3
REMARK    3  A    between atoms: C_12  and  O_13
REMARK    4  A    between atoms: N_19  and  C_20
REMARK    5  A    between atoms: C_20  and  C_21
REMARK    6  A    between atoms: C_21  and  C_22
REMARK    7  A    between atoms: C_22  and  C_23
REMARK    8  A    between atoms: C_23  and  C_24
REMARK    9  A    between atoms: C_24  and  C_25
REMARK   10  A    between atoms: C_25  and  O_26
REMARK   11  A    between atoms: O_26  and  C_27
REMARK                            x       y       z     vdW  Elec       q    Type
REMARK                         _______ _______ _______ _____ _____    ______ ____
ROOT
ATOM      1  C   UNL     1      39.257 -35.967 -31.216  0.00  0.00    +0.162 A 
ATOM      2  C   UNL     1      39.964 -36.885 -30.440  0.00  0.00    -0.016 A 
ATOM      3  C   UNL     1      39.287 -37.732 -29.543  0.00  0.00    -0.053 A 
ATOM      4  C   UNL     1      37.894 -37.656 -29.372  0.00  0.00    -0.026 A 
ATOM      5  C   UNL     1      37.215 -36.670 -30.083  0.00  0.00    +0.016 A 
ATOM      6  C   UNL     1      37.883 -35.896 -31.024  0.00  0.00    +0.167 A 
ATOM      7  O   UNL     1      37.053 -35.139 -31.812  0.00  0.00    -0.484 OA
ATOM      8  C   UNL     1      35.732 -35.283 -31.233  0.00  0.00    +0.116 C 
ATOM      9  C   UNL     1      35.352 -33.884 -30.732  0.00  0.00    +0.015 C 
ATOM     10  C   UNL     1      34.133 -33.905 -29.826  0.00  0.00    +0.077 C 
ATOM     11  C   UNL     1      34.349 -34.866 -28.709  0.00  0.00    -0.059 C 
ATOM     12  C   UNL     1      35.114 -35.962 -28.836  0.00  0.00    -0.071 C 
ATOM     13  C   UNL     1      35.743 -36.415 -30.145  0.00  0.00    +0.056 C 
ATOM     14  C   UNL     1      35.058 -37.696 -30.675  0.00  0.00    -0.023 C 
ATOM     15  C   UNL     1      34.988 -38.882 -29.692  0.00  0.00    +0.000 C 
ATOM     16  N   UNL     1      36.262 -39.523 -29.319  0.00  0.00    -0.298 N 
ATOM     17  C   UNL     1      37.163 -38.669 -28.526  0.00  0.00    +0.024 C 
ATOM     18  H   UNL     1      36.752 -39.684 -30.198  0.00  0.00    +0.000 HD
ENDROOT
BRANCH   1  20
ATOM     19  C   UNL     1      40.431 -33.959 -31.702  0.00  0.00    +0.079 C 
ATOM     20  O   UNL     1      39.787 -35.138 -32.163  0.00  0.00    -0.491 OA
ENDBRANCH   1  20
BRANCH  10  21
ATOM     21  O   UNL     1      33.941 -32.620 -29.250  0.00  0.00    -0.388 OA
ATOM     22  H   UNL     1      34.800 -32.250 -28.992  0.00  0.00    +0.000 HD
ENDBRANCH  10  21
BRANCH  16  23
ATOM     23  C   UNL     1      36.029 -40.823 -28.656  0.00  0.00    -0.001 C 
BRANCH  23  24
ATOM     24  C   UNL     1      35.191 -41.838 -29.451  0.00  0.00    -0.040 C 
BRANCH  24  25
ATOM     25  C   UNL     1      34.110 -42.490 -28.583  0.00  0.00    -0.052 C 
BRANCH  25  26
ATOM     26  C   UNL     1      34.726 -43.062 -27.304  0.00  0.00    -0.050 C 
BRANCH  26  27
ATOM     27  C   UNL     1      33.704 -43.176 -26.176  0.00  0.00    -0.019 C 
BRANCH  27  28
ATOM     28  C   UNL     1      32.974 -41.850 -25.963  0.00  0.00    +0.089 C 
BRANCH  28  29
ATOM     29  O   UNL     1      33.930 -40.871 -25.553  0.00  0.00    -0.496 OA
BRANCH  29  30
ATOM     30  C   UNL     1      33.531 -39.549 -25.553  0.00  0.00    +0.102 C 
ATOM     31  C   UNL     1      32.963 -38.892 -26.590  0.00  0.00    -0.022 C 
ATOM     32  C   UNL     1      32.539 -37.511 -26.472  0.00  0.00    -0.033 C 
ATOM     33  C   UNL     1      32.690 -36.853 -25.321  0.00  0.00    +0.068 C 
ATOM     34  N   UNL     1      32.324 -35.567 -25.031  0.00  0.00    -0.255 NA
ATOM     35  C   UNL     1      32.666 -35.420 -23.787  0.00  0.00    +0.029 C 
ATOM     36  C   UNL     1      33.289 -36.582 -23.145  0.00  0.00    -0.038 C 
ATOM     37  C   UNL     1      33.284 -37.454 -24.154  0.00  0.00    -0.013 C 
ATOM     38  C   UNL     1      33.779 -38.865 -24.213  0.00  0.00    +0.032 C 
ENDBRANCH  29  30
ENDBRANCH  28  29
ENDBRANCH  27  28
ENDBRANCH  26  27
ENDBRANCH  25  26
ENDBRANCH  24  25
ENDBRANCH  23  24
ENDBRANCH  16  23
TORSDOF 10
ENDMDL
MODEL 3
REMARK VINA RESULT:    -7.582      2.493      6.433
REMARK INTER + INTRA:         -13.778
REMARK INTER:                 -10.977
REMARK INTRA:                  -2.801
REMARK UNBOUND:                -1.986
REMARK  Name = cpd56.pdb
REMARK  11 active torsions:
REMARK  status: ('A' for Active; 'I' for Inactive)
REMARK    1  A    between atoms: C_1  and  O_2
REMARK    2  A    between atoms: O_2  and  C_3
REMARK    3  A    between atoms: C_12  and  O_13
REMARK    4  A    between atoms: N_19  and  C_20
REMARK    5  A    between atoms: C_20  and  C_21
REMARK    6  A    between atoms: C_21  and  C_22
REMARK    7  A    between atoms: C_22  and  C_23
REMARK    8  A    between atoms: C_23  and  C_24
REMARK    9  A    between atoms: C_24  and  C_25
REMARK   10  A    between atoms: C_25  and  O_26
REMARK   11  A    between atoms: O_26  and  C_27
REMARK                            x       y       z     vdW  Elec       q    Type
REMARK                         _______ _______ _______ _____ _____    ______ ____
ROOT
ATOM      1  C   UNL     1      38.450 -37.273 -29.920  0.00  0.00    +0.162 A 
ATOM      2  C   UNL     1      38.648 -37.888 -28.684  0.00  0.00    -0.016 A 
ATOM      3  C   UNL     1      37.597 -37.971 -27.752  0.00  0.00    -0.053 A 
ATOM      4  C   UNL     1      36.337 -37.409 -28.016  0.00  0.00    -0.026 A 
ATOM      5  C   UNL     1      36.184 -36.714 -29.213  0.00  0.00    +0.016 A 
ATOM      6  C   UNL     1      37.202 -36.710 -30.158  0.00  0.00    +0.167 A 
ATOM      7  O   UNL     1      36.830 -36.196 -31.375  0.00  0.00    -0.484 OA
ATOM      8  C   UNL     1      35.504 -35.648 -31.174  0.00  0.00    +0.116 C 
ATOM      9  C   UNL     1      35.651 -34.137 -31.386  0.00  0.00    +0.015 C 
ATOM     10  C   UNL     1      34.429 -33.364 -30.919  0.00  0.00    +0.077 C 
ATOM     11  C   UNL     1      34.125 -33.709 -29.502  0.00  0.00    -0.059 C 
ATOM     12  C   UNL     1      34.406 -34.911 -28.974  0.00  0.00    -0.071 C 
ATOM     13  C   UNL     1      34.948 -36.087 -29.773  0.00  0.00    +0.056 C 
ATOM     14  C   UNL     1      33.877 -37.192 -29.926  0.00  0.00    -0.023 C 
ATOM     15  C   UNL     1      33.238 -37.701 -28.618  0.00  0.00    +0.000 C 
ATOM     16  N   UNL     1      34.107 -38.445 -27.689  0.00  0.00    -0.298 N 
ATOM     17  C   UNL     1      35.177 -37.637 -27.078  0.00  0.00    +0.024 C 
ATOM     18  H   UNL     1      34.589 -39.137 -28.262  0.00  0.00    +0.000 HD
ENDROOT
BRANCH   1  20
ATOM     19  C   UNL     1      40.410 -36.235 -30.772  0.00  0.00    +0.079 C 
ATOM     20  O   UNL     1      39.365 -37.183 -30.930  0.00  0.00    -0.491 OA
ENDBRANCH   1  20
BRANCH  10  21
ATOM     21  O   UNL     1      34.696 -31.969 -30.969  0.00  0.00    -0.388 OA
ATOM     22  H   UNL     1      34.558 -31.582 -30.089  0.00  0.00    +0.000 HD
ENDBRANCH  10  21
BRANCH  16  23
ATOM     23  C   UNL     1      33.309 -39.148 -26.662  0.00  0.00    -0.001 C 
BRANCH  23  24
ATOM     24  C   UNL     1      33.745 -38.920 -25.206  0.00  0.00    -0.040 C 
BRANCH  24  25
ATOM     25  C   UNL     1      33.383 -40.108 -24.309  0.00  0.00    -0.052 C 
BRANCH  25  26
ATOM     26  C   UNL     1      34.164 -41.353 -24.732  0.00  0.00    -0.050 C 
BRANCH  26  27
ATOM     27  C   UNL     1      33.244 -42.528 -25.052  0.00  0.00    -0.019 C 
BRANCH  27  28
ATOM     28  C   UNL     1      33.457 -43.015 -26.485  0.00  0.00    +0.089 C 
BRANCH  28  29
ATOM     29  O   UNL     1      34.816 -42.768 -26.847  0.00  0.00    -0.496 OA
BRANCH  29  30
ATOM     30  C   UNL     1      35.049 -42.044 -28.000  0.00  0.00    +0.102 C 
ATOM     31  C   UNL     1      36.221 -41.471 -28.354  0.00  0.00    -0.022 C 
ATOM     32  C   UNL     1      36.372 -40.766 -29.612  0.00  0.00    -0.033 C 
ATOM     33  C   UNL     1      35.350 -40.679 -30.464  0.00  0.00    +0.068 C 
ATOM     34  N   UNL     1      35.329 -40.081 -31.695  0.00  0.00    -0.255 NA
ATOM     35  C   UNL     1      34.120 -40.290 -32.120  0.00  0.00    +0.029 C 
ATOM     36  C   UNL     1      33.235 -41.034 -31.218  0.00  0.00    -0.038 C 
ATOM     37  C   UNL     1      34.057 -41.251 -30.190  0.00  0.00    -0.013 C 
ATOM     38  C   UNL     1      33.816 -41.960 -28.894  0.00  0.00    +0.032 C 
ENDBRANCH  29  30
ENDBRANCH  28  29
ENDBRANCH  27  28
ENDBRANCH  26  27
ENDBRANCH  25  26
ENDBRANCH  24  25
ENDBRANCH  23  24
ENDBRANCH  16  23
TORSDOF 10
ENDMDL
MODEL 4
REMARK VINA RESULT:    -7.566     17.308     20.471
REMARK INTER + INTRA:         -13.754
REMARK INTER:                 -11.667
REMARK INTRA:                  -2.087
REMARK UNBOUND:                -1.986
REMARK  Name = cpd56.pdb
REMARK  11 active torsions:
REMARK  status: ('A' for Active; 'I' for Inactive)
REMARK    1  A    between atoms: C_1  and  O_2
REMARK    2  A    between atoms: O_2  and  C_3
REMARK    3  A    between atoms: C_12  and  O_13
REMARK    4  A    between atoms: N_19  and  C_20
REMARK    5  A    between atoms: C_20  and  C_21
REMARK    6  A    between atoms: C_21  and  C_22
REMARK    7  A    between atoms: C_22  and  C_23
REMARK    8  A    between atoms: C_23  and  C_24
REMARK    9  A    between atoms: C_24  and  C_25
REMARK   10  A    between atoms: C_25  and  O_26
REMARK   11  A    between atoms: O_26  and  C_27
REMARK                            x       y       z     vdW  Elec       q    Type
REMARK                         _______ _______ _______ _____ _____    ______ ____
ROOT
ATOM      1  C   UNL     1      42.287 -20.954 -38.759  0.00  0.00    +0.162 A 
ATOM      2  C   UNL     1      42.281 -20.781 -37.375  0.00  0.00    -0.016 A 
ATOM      3  C   UNL     1      43.477 -20.513 -36.685  0.00  0.00    -0.053 A 
ATOM      4  C   UNL     1      44.711 -20.448 -37.353  0.00  0.00    -0.026 A 
ATOM      5  C   UNL     1      44.714 -20.719 -38.719  0.00  0.00    +0.016 A 
ATOM      6  C   UNL     1      43.518 -20.902 -39.402  0.00  0.00    +0.167 A 
ATOM      7  O   UNL     1      43.654 -20.920 -40.767  0.00  0.00    -0.484 OA
ATOM      8  C   UNL     1      45.082 -20.927 -41.013  0.00  0.00    +0.116 C 
ATOM      9  C   UNL     1      45.373 -22.275 -41.685  0.00  0.00    +0.015 C 
ATOM     10  C   UNL     1      46.859 -22.586 -41.739  0.00  0.00    +0.077 C 
ATOM     11  C   UNL     1      47.445 -22.497 -40.373  0.00  0.00    -0.059 C 
ATOM     12  C   UNL     1      46.963 -21.668 -39.432  0.00  0.00    -0.071 C 
ATOM     13  C   UNL     1      45.859 -20.651 -39.678  0.00  0.00    +0.056 C 
ATOM     14  C   UNL     1      46.419 -19.210 -39.653  0.00  0.00    -0.023 C 
ATOM     15  C   UNL     1      47.221 -18.817 -38.396  0.00  0.00    +0.000 C 
ATOM     16  N   UNL     1      46.478 -18.723 -37.126  0.00  0.00    -0.298 N 
ATOM     17  C   UNL     1      45.960 -20.009 -36.629  0.00  0.00    +0.024 C 
ATOM     18  H   UNL     1      45.651 -18.164 -37.335  0.00  0.00    +0.000 HD
ENDROOT
BRANCH   1  20
ATOM     19  C   UNL     1      40.508 -22.392 -39.403  0.00  0.00    +0.079 C 
ATOM     20  O   UNL     1      41.192 -21.157 -39.550  0.00  0.00    -0.491 OA
ENDBRANCH   1  20
BRANCH  10  21
ATOM     21  O   UNL     1      47.054 -23.917 -42.199  0.00  0.00    -0.388 OA
ATOM     22  H   UNL     1      47.883 -24.266 -41.836  0.00  0.00    +0.000 HD
ENDBRANCH  10  21
BRANCH  16  23
ATOM     23  C   UNL     1      47.275 -18.028 -36.094  0.00  0.00    -0.001 C 
BRANCH  23  24
ATOM     24  C   UNL     1      46.849 -18.279 -34.639  0.00  0.00    -0.040 C 
BRANCH  24  25
ATOM     25  C   UNL     1      45.671 -17.390 -34.228  0.00  0.00    -0.052 C 
BRANCH  25  26
ATOM     26  C   UNL     1      44.564 -18.231 -33.590  0.00  0.00    -0.050 C 
BRANCH  26  27
ATOM     27  C   UNL     1      43.173 -17.774 -34.022  0.00  0.00    -0.019 C 
BRANCH  27  28
ATOM     28  C   UNL     1      42.276 -17.531 -32.809  0.00  0.00    +0.089 C 
BRANCH  28  29
ATOM     29  O   UNL     1      40.970 -18.026 -33.108  0.00  0.00    -0.496 OA
BRANCH  29  30
ATOM     30  C   UNL     1      40.846 -19.374 -33.387  0.00  0.00    +0.102 C 
ATOM     31  C   UNL     1      41.425 -20.383 -32.698  0.00  0.00    -0.022 C 
ATOM     32  C   UNL     1      41.194 -21.771 -33.048  0.00  0.00    -0.033 C 
ATOM     33  C   UNL     1      40.386 -22.087 -34.061  0.00  0.00    +0.068 C 
ATOM     34  N   UNL     1      40.039 -23.334 -34.504  0.00  0.00    -0.255 NA
ATOM     35  C   UNL     1      39.223 -23.098 -35.487  0.00  0.00    +0.029 C 
ATOM     36  C   UNL     1      38.960 -21.687 -35.786  0.00  0.00    -0.038 C 
ATOM     37  C   UNL     1      39.718 -21.094 -34.863  0.00  0.00    -0.013 C 
ATOM     38  C   UNL     1      39.939 -19.639 -34.584  0.00  0.00    +0.032 C 
ENDBRANCH  29  30
ENDBRANCH  28  29
ENDBRANCH  27  28
ENDBRANCH  26  27
ENDBRANCH  25  26
ENDBRANCH  24  25
ENDBRANCH  23  24
ENDBRANCH  16  23
TORSDOF 10
ENDMDL
MODEL 5
REMARK VINA RESULT:    -7.427     16.734     20.674
REMARK INTER + INTRA:         -13.537
REMARK INTER:                 -11.609
REMARK INTRA:                  -1.928
REMARK UNBOUND:                -1.986
REMARK  Name = cpd56.pdb
REMARK  11 active torsions:
REMARK  status: ('A' for Active; 'I' for Inactive)
REMARK    1  A    between atoms: C_1  and  O_2
REMARK    2  A    between atoms: O_2  and  C_3
REMARK    3  A    between atoms: C_12  and  O_13
REMARK    4  A    between atoms: N_19  and  C_20
REMARK    5  A    between atoms: C_20  and  C_21
REMARK    6  A    between atoms: C_21  and  C_22
REMARK    7  A    between atoms: C_22  and  C_23
REMARK    8  A    between atoms: C_23  and  C_24
REMARK    9  A    between atoms: C_24  and  C_25
REMARK   10  A    between atoms: C_25  and  O_26
REMARK   11  A    between atoms: O_26  and  C_27
REMARK                            x       y       z     vdW  Elec       q    Type
REMARK                         _______ _______ _______ _____ _____    ______ ____
ROOT
ATOM      1  C   UNL     1      41.307 -21.834 -37.400  0.00  0.00    +0.162 A 
ATOM      2  C   UNL     1      41.889 -20.674 -37.910  0.00  0.00    -0.016 A 
ATOM      3  C   UNL     1      42.052 -19.539 -37.095  0.00  0.00    -0.053 A 
ATOM      4  C   UNL     1      41.603 -19.522 -35.763  0.00  0.00    -0.026 A 
ATOM      5  C   UNL     1      40.938 -20.653 -35.297  0.00  0.00    +0.016 A 
ATOM      6  C   UNL     1      40.856 -21.795 -36.086  0.00  0.00    +0.167 A 
ATOM      7  O   UNL     1      40.389 -22.899 -35.418  0.00  0.00    -0.484 OA
ATOM      8  C   UNL     1      39.956 -22.414 -34.123  0.00  0.00    +0.116 C 
ATOM      9  C   UNL     1      38.440 -22.641 -34.090  0.00  0.00    +0.015 C 
ATOM     10  C   UNL     1      37.771 -21.917 -32.934  0.00  0.00    +0.077 C 
ATOM     11  C   UNL     1      38.125 -20.470 -32.971  0.00  0.00    -0.059 C 
ATOM     12  C   UNL     1      39.293 -20.024 -33.462  0.00  0.00    -0.071 C 
ATOM     13  C   UNL     1      40.426 -20.930 -33.921  0.00  0.00    +0.056 C 
ATOM     14  C   UNL     1      41.622 -20.859 -32.942  0.00  0.00    -0.023 C 
ATOM     15  C   UNL     1      42.169 -19.448 -32.645  0.00  0.00    +0.000 C 
ATOM     16  N   UNL     1      42.825 -18.733 -33.754  0.00  0.00    -0.298 N 
ATOM     17  C   UNL     1      41.921 -18.359 -34.856  0.00  0.00    +0.024 C 
ATOM     18  H   UNL     1      43.479 -19.402 -34.160  0.00  0.00    +0.000 HD
ENDROOT
BRANCH   1  20
ATOM     19  C   UNL     1      40.576 -22.955 -39.364  0.00  0.00    +0.079 C 
ATOM     20  O   UNL     1      41.149 -23.016 -38.066  0.00  0.00    -0.491 OA
ENDBRANCH   1  20
BRANCH  10  21
ATOM     21  O   UNL     1      36.359 -22.011 -33.062  0.00  0.00    -0.388 OA
ATOM     22  H   UNL     1      36.138 -22.687 -33.722  0.00  0.00    +0.000 HD
ENDBRANCH  10  21
BRANCH  16  23
ATOM     23  C   UNL     1      43.583 -17.565 -33.259  0.00  0.00    -0.001 C 
BRANCH  23  24
ATOM     24  C   UNL     1      44.358 -16.771 -34.323  0.00  0.00    -0.040 C 
BRANCH  24  25
ATOM     25  C   UNL     1      45.650 -17.482 -34.737  0.00  0.00    -0.052 C 
BRANCH  25  26
ATOM     26  C   UNL     1      45.474 -18.159 -36.098  0.00  0.00    -0.050 C 
BRANCH  26  27
ATOM     27  C   UNL     1      45.403 -19.679 -35.979  0.00  0.00    -0.019 C 
BRANCH  27  28
ATOM     28  C   UNL     1      46.640 -20.334 -36.591  0.00  0.00    +0.089 C 
BRANCH  28  29
ATOM     29  O   UNL     1      46.905 -19.711 -37.849  0.00  0.00    -0.496 OA
BRANCH  29  30
ATOM     30  C   UNL     1      46.484 -20.368 -38.989  0.00  0.00    +0.102 C 
ATOM     31  C   UNL     1      45.387 -20.065 -39.719  0.00  0.00    -0.022 C 
ATOM     32  C   UNL     1      45.056 -20.793 -40.929  0.00  0.00    -0.033 C 
ATOM     33  C   UNL     1      45.843 -21.780 -41.360  0.00  0.00    +0.068 C 
ATOM     34  N   UNL     1      45.695 -22.544 -42.485  0.00  0.00    -0.255 NA
ATOM     35  C   UNL     1      46.724 -23.337 -42.459  0.00  0.00    +0.029 C 
ATOM     36  C   UNL     1      47.636 -23.176 -41.323  0.00  0.00    -0.038 C 
ATOM     37  C   UNL     1      47.034 -22.188 -40.660  0.00  0.00    -0.013 C 
ATOM     38  C   UNL     1      47.418 -21.507 -39.383  0.00  0.00    +0.032 C 
ENDBRANCH  29  30
ENDBRANCH  28  29
ENDBRANCH  27  28
ENDBRANCH  26  27
ENDBRANCH  25  26
ENDBRANCH  24  25
ENDBRANCH  23  24
ENDBRANCH  16  23
TORSDOF 10
ENDMDL
MODEL 6
REMARK VINA RESULT:    -7.358     19.986     23.118
REMARK INTER + INTRA:         -13.429
REMARK INTER:                  -9.996
REMARK INTRA:                  -3.433
REMARK UNBOUND:                -1.986
REMARK  Name = cpd56.pdb
REMARK  11 active torsions:
REMARK  status: ('A' for Active; 'I' for Inactive)
REMARK    1  A    between atoms: C_1  and  O_2
REMARK    2  A    between atoms: O_2  and  C_3
REMARK    3  A    between atoms: C_12  and  O_13
REMARK    4  A    between atoms: N_19  and  C_20
REMARK    5  A    between atoms: C_20  and  C_21
REMARK    6  A    between atoms: C_21  and  C_22
REMARK    7  A    between atoms: C_22  and  C_23
REMARK    8  A    between atoms: C_23  and  C_24
REMARK    9  A    between atoms: C_24  and  C_25
REMARK   10  A    between atoms: C_25  and  O_26
REMARK   11  A    between atoms: O_26  and  C_27
REMARK                            x       y       z     vdW  Elec       q    Type
REMARK                         _______ _______ _______ _____ _____    ______ ____
ROOT
ATOM      1  C   UNL     1      47.178 -18.742 -36.854  0.00  0.00    +0.162 A 
ATOM      2  C   UNL     1      47.175 -17.349 -36.929  0.00  0.00    -0.016 A 
ATOM      3  C   UNL     1      46.849 -16.701 -38.135  0.00  0.00    -0.053 A 
ATOM      4  C   UNL     1      46.556 -17.426 -39.302  0.00  0.00    -0.026 A 
ATOM      5  C   UNL     1      46.658 -18.814 -39.236  0.00  0.00    +0.016 A 
ATOM      6  C   UNL     1      46.901 -19.443 -38.021  0.00  0.00    +0.167 A 
ATOM      7  O   UNL     1      46.739 -20.805 -38.059  0.00  0.00    -0.484 OA
ATOM      8  C   UNL     1      46.544 -21.133 -39.457  0.00  0.00    +0.116 C 
ATOM      9  C   UNL     1      47.756 -21.987 -39.847  0.00  0.00    +0.015 C 
ATOM     10  C   UNL     1      47.877 -22.168 -41.351  0.00  0.00    +0.077 C 
ATOM     11  C   UNL     1      47.882 -20.838 -42.021  0.00  0.00    -0.059 C 
ATOM     12  C   UNL     1      47.237 -19.772 -41.519  0.00  0.00    -0.071 C 
ATOM     13  C   UNL     1      46.338 -19.821 -40.293  0.00  0.00    +0.056 C 
ATOM     14  C   UNL     1      44.853 -19.645 -40.688  0.00  0.00    -0.023 C 
ATOM     15  C   UNL     1      44.520 -18.397 -41.530  0.00  0.00    +0.000 C 
ATOM     16  N   UNL     1      44.670 -17.084 -40.876  0.00  0.00    -0.298 N 
ATOM     17  C   UNL     1      46.059 -16.726 -40.543  0.00  0.00    +0.024 C 
ATOM     18  H   UNL     1      44.194 -17.172 -39.978  0.00  0.00    +0.000 HD
ENDROOT
BRANCH   1  20
ATOM     19  C   UNL     1      48.510 -19.097 -34.918  0.00  0.00    +0.079 C 
ATOM     20  O   UNL     1      47.415 -19.487 -35.734  0.00  0.00    -0.491 OA
ENDBRANCH   1  20
BRANCH  10  21
ATOM     21  O   UNL     1      49.109 -22.804 -41.660  0.00  0.00    -0.388 OA
ATOM     22  H   UNL     1      49.808 -22.135 -41.739  0.00  0.00    +0.000 HD
ENDBRANCH  10  21
BRANCH  16  23
ATOM     23  C   UNL     1      44.013 -16.020 -41.663  0.00  0.00    -0.001 C 
BRANCH  23  24
ATOM     24  C   UNL     1      44.608 -14.611 -41.509  0.00  0.00    -0.040 C 
BRANCH  24  25
ATOM     25  C   UNL     1      43.561 -13.598 -41.035  0.00  0.00    -0.052 C 
BRANCH  25  26
ATOM     26  C   UNL     1      42.808 -14.140 -39.818  0.00  0.00    -0.050 C 
BRANCH  26  27
ATOM     27  C   UNL     1      43.704 -14.245 -38.587  0.00  0.00    -0.019 C 
BRANCH  27  28
ATOM     28  C   UNL     1      43.402 -15.519 -37.798  0.00  0.00    +0.089 C 
BRANCH  28  29
ATOM     29  O   UNL     1      42.591 -16.369 -38.609  0.00  0.00    -0.496 OA
BRANCH  29  30
ATOM     30  C   UNL     1      42.600 -17.721 -38.326  0.00  0.00    +0.102 C 
ATOM     31  C   UNL     1      43.396 -18.338 -37.424  0.00  0.00    -0.022 C 
ATOM     32  C   UNL     1      43.295 -19.762 -37.171  0.00  0.00    -0.033 C 
ATOM     33  C   UNL     1      42.395 -20.501 -37.821  0.00  0.00    +0.068 C 
ATOM     34  N   UNL     1      42.149 -21.840 -37.685  0.00  0.00    -0.255 NA
ATOM     35  C   UNL     1      41.176 -22.063 -38.515  0.00  0.00    +0.029 C 
ATOM     36  C   UNL     1      40.695 -20.905 -39.275  0.00  0.00    -0.038 C 
ATOM     37  C   UNL     1      41.498 -19.950 -38.803  0.00  0.00    -0.013 C 
ATOM     38  C   UNL     1      41.570 -18.494 -39.144  0.00  0.00    +0.032 C 
ENDBRANCH  29  30
ENDBRANCH  28  29
ENDBRANCH  27  28
ENDBRANCH  26  27
ENDBRANCH  25  26
ENDBRANCH  24  25
ENDBRANCH  23  24
ENDBRANCH  16  23
TORSDOF 10
ENDMDL
MODEL 7
REMARK VINA RESULT:    -7.255      2.450      5.276
REMARK INTER + INTRA:         -13.269
REMARK INTER:                 -10.687
REMARK INTRA:                  -2.583
REMARK UNBOUND:                -1.986
REMARK  Name = cpd56.pdb
REMARK  11 active torsions:
REMARK  status: ('A' for Active; 'I' for Inactive)
REMARK    1  A    between atoms: C_1  and  O_2
REMARK    2  A    between atoms: O_2  and  C_3
REMARK    3  A    between atoms: C_12  and  O_13
REMARK    4  A    between atoms: N_19  and  C_20
REMARK    5  A    between atoms: C_20  and  C_21
REMARK    6  A    between atoms: C_21  and  C_22
REMARK    7  A    between atoms: C_22  and  C_23
REMARK    8  A    between atoms: C_23  and  C_24
REMARK    9  A    between atoms: C_24  and  C_25
REMARK   10  A    between atoms: C_25  and  O_26
REMARK   11  A    between atoms: O_26  and  C_27
REMARK                            x       y       z     vdW  Elec       q    Type
REMARK                         _______ _______ _______ _____ _____    ______ ____
ROOT
ATOM      1  C   UNL     1      39.427 -35.986 -31.162  0.00  0.00    +0.162 A 
ATOM      2  C   UNL     1      40.059 -36.976 -30.410  0.00  0.00    -0.016 A 
ATOM      3  C   UNL     1      39.307 -37.845 -29.598  0.00  0.00    -0.053 A 
ATOM      4  C   UNL     1      37.911 -37.721 -29.487  0.00  0.00    -0.026 A 
ATOM      5  C   UNL     1      37.307 -36.667 -30.168  0.00  0.00    +0.016 A 
ATOM      6  C   UNL     1      38.049 -35.869 -31.029  0.00  0.00    +0.167 A 
ATOM      7  O   UNL     1      37.288 -35.033 -31.807  0.00  0.00    -0.484 OA
ATOM      8  C   UNL     1      35.937 -35.155 -31.299  0.00  0.00    +0.116 C 
ATOM      9  C   UNL     1      35.588 -33.773 -30.734  0.00  0.00    +0.015 C 
ATOM     10  C   UNL     1      34.326 -33.795 -29.888  0.00  0.00    +0.077 C 
ATOM     11  C   UNL     1      34.451 -34.828 -28.821  0.00  0.00    -0.059 C 
ATOM     12  C   UNL     1      35.177 -35.946 -28.979  0.00  0.00    -0.071 C 
ATOM     13  C   UNL     1      35.851 -36.348 -30.282  0.00  0.00    +0.056 C 
ATOM     14  C   UNL     1      35.142 -37.566 -30.919  0.00  0.00    -0.023 C 
ATOM     15  C   UNL     1      34.979 -38.803 -30.013  0.00  0.00    +0.000 C 
ATOM     16  N   UNL     1      36.207 -39.518 -29.621  0.00  0.00    -0.298 N 
ATOM     17  C   UNL     1      37.101 -38.750 -28.738  0.00  0.00    +0.024 C 
ATOM     18  H   UNL     1      36.733 -39.648 -30.485  0.00  0.00    +0.000 HD
ENDROOT
BRANCH   1  20
ATOM     19  C   UNL     1      41.339 -35.469 -32.475  0.00  0.00    +0.079 C 
ATOM     20  O   UNL     1      40.034 -35.126 -32.032  0.00  0.00    -0.491 OA
ENDBRANCH   1  20
BRANCH  10  21
ATOM     21  O   UNL     1      34.158 -32.539 -29.245  0.00  0.00    -0.388 OA
ATOM     22  H   UNL     1      33.766 -31.907 -29.868  0.00  0.00    +0.000 HD
ENDBRANCH  10  21
BRANCH  16  23
ATOM     23  C   UNL     1      35.891 -40.843 -29.049  0.00  0.00    -0.001 C 
BRANCH  23  24
ATOM     24  C   UNL     1      34.404 -41.112 -28.768  0.00  0.00    -0.040 C 
BRANCH  24  25
ATOM     25  C   UNL     1      34.089 -41.067 -27.269  0.00  0.00    -0.052 C 
BRANCH  25  26
ATOM     26  C   UNL     1      33.977 -39.618 -26.791  0.00  0.00    -0.050 C 
BRANCH  26  27
ATOM     27  C   UNL     1      32.712 -39.380 -25.971  0.00  0.00    -0.019 C 
BRANCH  27  28
ATOM     28  C   UNL     1      32.403 -37.888 -25.863  0.00  0.00    +0.089 C 
BRANCH  28  29
ATOM     29  O   UNL     1      31.176 -37.631 -26.547  0.00  0.00    -0.496 OA
BRANCH  29  30
ATOM     30  C   UNL     1      31.250 -37.049 -27.797  0.00  0.00    +0.102 C 
ATOM     31  C   UNL     1      31.606 -37.672 -28.943  0.00  0.00    -0.022 C 
ATOM     32  C   UNL     1      31.611 -36.977 -30.215  0.00  0.00    -0.033 C 
ATOM     33  C   UNL     1      31.248 -35.695 -30.286  0.00  0.00    +0.068 C 
ATOM     34  N   UNL     1      31.169 -34.903 -31.399  0.00  0.00    -0.255 NA
ATOM     35  C   UNL     1      30.750 -33.763 -30.939  0.00  0.00    +0.029 C 
ATOM     36  C   UNL     1      30.520 -33.693 -29.493  0.00  0.00    -0.038 C 
ATOM     37  C   UNL     1      30.852 -34.933 -29.130  0.00  0.00    -0.013 C 
ATOM     38  C   UNL     1      30.859 -35.574 -27.777  0.00  0.00    +0.032 C 
ENDBRANCH  29  30
ENDBRANCH  28  29
ENDBRANCH  27  28
ENDBRANCH  26  27
ENDBRANCH  25  26
ENDBRANCH  24  25
ENDBRANCH  23  24
ENDBRANCH  16  23
TORSDOF 10
ENDMDL
MODEL 8
REMARK VINA RESULT:    -7.144     19.394     22.670
REMARK INTER + INTRA:         -13.097
REMARK INTER:                  -9.751
REMARK INTRA:                  -3.346
REMARK UNBOUND:                -1.986
REMARK  Name = cpd56.pdb
REMARK  11 active torsions:
REMARK  status: ('A' for Active; 'I' for Inactive)
REMARK    1  A    between atoms: C_1  and  O_2
REMARK    2  A    between atoms: O_2  and  C_3
REMARK    3  A    between atoms: C_12  and  O_13
REMARK    4  A    between atoms: N_19  and  C_20
REMARK    5  A    between atoms: C_20  and  C_21
REMARK    6  A    between atoms: C_21  and  C_22
REMARK    7  A    between atoms: C_22  and  C_23
REMARK    8  A    between atoms: C_23  and  C_24
REMARK    9  A    between atoms: C_24  and  C_25
REMARK   10  A    between atoms: C_25  and  O_26
REMARK   11  A    between atoms: O_26  and  C_27
REMARK                            x       y       z     vdW  Elec       q    Type
REMARK                         _______ _______ _______ _____ _____    ______ ____
ROOT
ATOM      1  C   UNL     1      42.484 -21.085 -38.922  0.00  0.00    +0.162 A 
ATOM      2  C   UNL     1      42.425 -20.840 -37.551  0.00  0.00    -0.016 A 
ATOM      3  C   UNL     1      43.581 -20.461 -36.843  0.00  0.00    -0.053 A 
ATOM      4  C   UNL     1      44.829 -20.354 -37.481  0.00  0.00    -0.026 A 
ATOM      5  C   UNL     1      44.890 -20.695 -38.830  0.00  0.00    +0.016 A 
ATOM      6  C   UNL     1      43.728 -20.988 -39.533  0.00  0.00    +0.167 A 
ATOM      7  O   UNL     1      43.907 -21.070 -40.891  0.00  0.00    -0.484 OA
ATOM      8  C   UNL     1      45.339 -20.999 -41.099  0.00  0.00    +0.116 C 
ATOM      9  C   UNL     1      45.732 -22.359 -41.688  0.00  0.00    +0.015 C 
ATOM     10  C   UNL     1      47.236 -22.579 -41.685  0.00  0.00    +0.077 C 
ATOM     11  C   UNL     1      47.774 -22.381 -40.310  0.00  0.00    -0.059 C 
ATOM     12  C   UNL     1      47.213 -21.536 -39.429  0.00  0.00    -0.071 C 
ATOM     13  C   UNL     1      46.057 -20.605 -39.759  0.00  0.00    +0.056 C 
ATOM     14  C   UNL     1      46.526 -19.132 -39.798  0.00  0.00    -0.023 C 
ATOM     15  C   UNL     1      47.263 -18.624 -38.543  0.00  0.00    +0.000 C 
ATOM     16  N   UNL     1      46.478 -18.510 -37.300  0.00  0.00    -0.298 N 
ATOM     17  C   UNL     1      46.025 -19.799 -36.748  0.00  0.00    +0.024 C 
ATOM     18  H   UNL     1      45.625 -18.017 -37.562  0.00  0.00    +0.000 HD
ENDROOT
BRANCH   1  20
ATOM     19  C   UNL     1      40.888 -22.705 -39.611  0.00  0.00    +0.079 C 
ATOM     20  O   UNL     1      41.428 -21.397 -39.730  0.00  0.00    -0.491 OA
ENDBRANCH   1  20
BRANCH  10  21
ATOM     21  O   UNL     1      47.526 -23.917 -42.067  0.00  0.00    -0.388 OA
ATOM     22  H   UNL     1      47.331 -24.033 -43.010  0.00  0.00    +0.000 HD
ENDBRANCH  10  21
BRANCH  16  23
ATOM     23  C   UNL     1      47.199 -17.713 -36.287  0.00  0.00    -0.001 C 
BRANCH  23  24
ATOM     24  C   UNL     1      47.115 -18.234 -34.843  0.00  0.00    -0.040 C 
BRANCH  24  25
ATOM     25  C   UNL     1      46.018 -17.524 -34.043  0.00  0.00    -0.052 C 
BRANCH  25  26
ATOM     26  C   UNL     1      44.866 -18.486 -33.746  0.00  0.00    -0.050 C 
BRANCH  26  27
ATOM     27  C   UNL     1      43.575 -17.748 -33.401  0.00  0.00    -0.019 C 
BRANCH  27  28
ATOM     28  C   UNL     1      42.701 -17.567 -34.641  0.00  0.00    +0.089 C 
BRANCH  28  29
ATOM     29  O   UNL     1      42.882 -16.237 -35.130  0.00  0.00    -0.496 OA
BRANCH  29  30
ATOM     30  C   UNL     1      43.412 -16.088 -36.397  0.00  0.00    +0.102 C 
ATOM     31  C   UNL     1      44.454 -15.294 -36.733  0.00  0.00    -0.022 C 
ATOM     32  C   UNL     1      44.962 -15.243 -38.090  0.00  0.00    -0.033 C 
ATOM     33  C   UNL     1      44.414 -15.996 -39.045  0.00  0.00    +0.068 C 
ATOM     34  N   UNL     1      44.784 -16.090 -40.359  0.00  0.00    -0.255 NA
ATOM     35  C   UNL     1      43.959 -16.963 -40.852  0.00  0.00    +0.029 C 
ATOM     36  C   UNL     1      42.973 -17.520 -39.921  0.00  0.00    -0.038 C 
ATOM     37  C   UNL     1      43.300 -16.875 -38.800  0.00  0.00    -0.013 C 
ATOM     38  C   UNL     1      42.699 -16.952 -37.431  0.00  0.00    +0.032 C 
ENDBRANCH  29  30
ENDBRANCH  28  29
ENDBRANCH  27  28
ENDBRANCH  26  27
ENDBRANCH  25  26
ENDBRANCH  24  25
ENDBRANCH  23  24
ENDBRANCH  16  23
TORSDOF 10
ENDMDL
MODEL 9
REMARK VINA RESULT:    -7.135     17.208     20.210
REMARK INTER + INTRA:         -13.083
REMARK INTER:                 -10.998
REMARK INTRA:                  -2.085
REMARK UNBOUND:                -1.986
REMARK  Name = cpd56.pdb
REMARK  11 active torsions:
REMARK  status: ('A' for Active; 'I' for Inactive)
REMARK    1  A    between atoms: C_1  and  O_2
REMARK    2  A    between atoms: O_2  and  C_3
REMARK    3  A    between atoms: C_12  and  O_13
REMARK    4  A    between atoms: N_19  and  C_20
REMARK    5  A    between atoms: C_20  and  C_21
REMARK    6  A    between atoms: C_21  and  C_22
REMARK    7  A    between atoms: C_22  and  C_23
REMARK    8  A    between atoms: C_23  and  C_24
REMARK    9  A    between atoms: C_24  and  C_25
REMARK   10  A    between atoms: C_25  and  O_26
REMARK   11  A    between atoms: O_26  and  C_27
REMARK                            x       y       z     vdW  Elec       q    Type
REMARK                         _______ _______ _______ _____ _____    ______ ____
ROOT
ATOM      1  C   UNL     1      45.663 -20.197 -40.955  0.00  0.00    +0.162 A 
ATOM      2  C   UNL     1      44.577 -20.895 -41.482  0.00  0.00    -0.016 A 
ATOM      3  C   UNL     1      43.420 -21.104 -40.708  0.00  0.00    -0.053 A 
ATOM      4  C   UNL     1      43.335 -20.656 -39.379  0.00  0.00    -0.026 A 
ATOM      5  C   UNL     1      44.463 -20.046 -38.837  0.00  0.00    +0.016 A 
ATOM      6  C   UNL     1      45.567 -19.773 -39.635  0.00  0.00    +0.167 A 
ATOM      7  O   UNL     1      46.500 -18.963 -39.037  0.00  0.00    -0.484 OA
ATOM      8  C   UNL     1      46.068 -18.827 -37.660  0.00  0.00    +0.116 C 
ATOM      9  C   UNL     1      47.164 -19.497 -36.822  0.00  0.00    +0.015 C 
ATOM     10  C   UNL     1      46.736 -19.719 -35.382  0.00  0.00    +0.077 C 
ATOM     11  C   UNL     1      45.454 -20.477 -35.346  0.00  0.00    -0.059 C 
ATOM     12  C   UNL     1      44.531 -20.383 -36.317  0.00  0.00    -0.071 C 
ATOM     13  C   UNL     1      44.624 -19.418 -37.490  0.00  0.00    +0.056 C 
ATOM     14  C   UNL     1      43.577 -18.287 -37.361  0.00  0.00    -0.023 C 
ATOM     15  C   UNL     1      42.115 -18.738 -37.170  0.00  0.00    +0.000 C 
ATOM     16  N   UNL     1      41.469 -19.426 -38.303  0.00  0.00    -0.298 N 
ATOM     17  C   UNL     1      42.038 -20.749 -38.614  0.00  0.00    +0.024 C 
ATOM     18  H   UNL     1      41.669 -18.851 -39.120  0.00  0.00    +0.000 HD
ENDROOT
BRANCH   1  20
ATOM     19  C   UNL     1      47.812 -20.878 -41.704  0.00  0.00    +0.079 C 
ATOM     20  O   UNL     1      46.811 -19.875 -41.620  0.00  0.00    -0.491 OA
ENDBRANCH   1  20
BRANCH  10  21
ATOM     21  O   UNL     1      47.711 -20.503 -34.707  0.00  0.00    -0.388 OA
ATOM     22  H   UNL     1      47.756 -21.383 -35.114  0.00  0.00    +0.000 HD
ENDBRANCH  10  21
BRANCH  16  23
ATOM     23  C   UNL     1      40.006 -19.500 -38.116  0.00  0.00    -0.001 C 
BRANCH  23  24
ATOM     24  C   UNL     1      39.416 -20.916 -38.009  0.00  0.00    -0.040 C 
BRANCH  24  25
ATOM     25  C   UNL     1      39.091 -21.291 -36.560  0.00  0.00    -0.052 C 
BRANCH  25  26
ATOM     26  C   UNL     1      39.853 -22.553 -36.152  0.00  0.00    -0.050 C 
BRANCH  26  27
ATOM     27  C   UNL     1      39.100 -23.365 -35.101  0.00  0.00    -0.019 C 
BRANCH  27  28
ATOM     28  C   UNL     1      38.645 -22.474 -33.946  0.00  0.00    +0.089 C 
BRANCH  28  29
ATOM     29  O   UNL     1      39.776 -22.195 -33.120  0.00  0.00    -0.496 OA
BRANCH  29  30
ATOM     30  C   UNL     1      40.162 -20.875 -32.990  0.00  0.00    +0.102 C 
ATOM     31  C   UNL     1      39.347 -19.834 -32.705  0.00  0.00    -0.022 C 
ATOM     32  C   UNL     1      39.862 -18.488 -32.547  0.00  0.00    -0.033 C 
ATOM     33  C   UNL     1      41.168 -18.246 -32.668  0.00  0.00    +0.068 C 
ATOM     34  N   UNL     1      41.819 -17.051 -32.524  0.00  0.00    -0.255 NA
ATOM     35  C   UNL     1      43.068 -17.353 -32.719  0.00  0.00    +0.029 C 
ATOM     36  C   UNL     1      43.355 -18.761 -33.011  0.00  0.00    -0.038 C 
ATOM     37  C   UNL     1      42.126 -19.277 -32.972  0.00  0.00    -0.013 C 
ATOM     38  C   UNL     1      41.662 -20.685 -33.186  0.00  0.00    +0.032 C 
ENDBRANCH  29  30
ENDBRANCH  28  29
ENDBRANCH  27  28
ENDBRANCH  26  27
ENDBRANCH  25  26
ENDBRANCH  24  25
ENDBRANCH  23  24
ENDBRANCH  16  23
TORSDOF 10
ENDMDL
MODEL 10
REMARK VINA RESULT:    -7.092      3.968      7.453
REMARK INTER + INTRA:         -13.016
REMARK INTER:                 -11.603
REMARK INTRA:                  -1.413
REMARK UNBOUND:                -1.986
REMARK  Name = cpd56.pdb
REMARK  11 active torsions:
REMARK  status: ('A' for Active; 'I' for Inactive)
REMARK    1  A    between atoms: C_1  and  O_2
REMARK    2  A    between atoms: O_2  and  C_3
REMARK    3  A    between atoms: C_12  and  O_13
REMARK    4  A    between atoms: N_19  and  C_20
REMARK    5  A    between atoms: C_20  and  C_21
REMARK    6  A    between atoms: C_21  and  C_22
REMARK    7  A    between atoms: C_22  and  C_23
REMARK    8  A    between atoms: C_23  and  C_24
REMARK    9  A    between atoms: C_24  and  C_25
REMARK   10  A    between atoms: C_25  and  O_26
REMARK   11  A    between atoms: O_26  and  C_27
REMARK                            x       y       z     vdW  Elec       q    Type
REMARK                         _______ _______ _______ _____ _____    ______ ____
ROOT
ATOM      1  C   UNL     1      39.441 -36.035 -31.074  0.00  0.00    +0.162 A 
ATOM      2  C   UNL     1      40.135 -36.962 -30.296  0.00  0.00    -0.016 A 
ATOM      3  C   UNL     1      39.441 -37.836 -29.439  0.00  0.00    -0.053 A 
ATOM      4  C   UNL     1      38.043 -37.779 -29.309  0.00  0.00    -0.026 A 
ATOM      5  C   UNL     1      37.374 -36.784 -30.018  0.00  0.00    +0.016 A 
ATOM      6  C   UNL     1      38.061 -35.983 -30.922  0.00  0.00    +0.167 A 
ATOM      7  O   UNL     1      37.246 -35.217 -31.717  0.00  0.00    -0.484 OA
ATOM      8  C   UNL     1      35.910 -35.388 -31.181  0.00  0.00    +0.116 C 
ATOM      9  C   UNL     1      35.499 -34.006 -30.662  0.00  0.00    +0.015 C 
ATOM     10  C   UNL     1      34.254 -34.060 -29.793  0.00  0.00    +0.077 C 
ATOM     11  C   UNL     1      34.448 -35.043 -28.691  0.00  0.00    -0.059 C 
ATOM     12  C   UNL     1      35.229 -36.128 -28.819  0.00  0.00    -0.071 C 
ATOM     13  C   UNL     1      35.902 -36.544 -30.119  0.00  0.00    +0.056 C 
ATOM     14  C   UNL     1      35.247 -37.820 -30.697  0.00  0.00    -0.023 C 
ATOM     15  C   UNL     1      35.162 -39.029 -29.742  0.00  0.00    +0.000 C 
ATOM     16  N   UNL     1      36.431 -39.664 -29.346  0.00  0.00    -0.298 N 
ATOM     17  C   UNL     1      37.299 -38.819 -28.507  0.00  0.00    +0.024 C 
ATOM     18  H   UNL     1      36.950 -39.801 -30.213  0.00  0.00    +0.000 HD
ENDROOT
BRANCH   1  20
ATOM     19  C   UNL     1      41.386 -34.940 -31.890  0.00  0.00    +0.079 C 
ATOM     20  O   UNL     1      39.989 -35.179 -31.986  0.00  0.00    -0.491 OA
ENDBRANCH   1  20
BRANCH  10  21
ATOM     21  O   UNL     1      34.031 -32.790 -29.195  0.00  0.00    -0.388 OA
ATOM     22  H   UNL     1      34.095 -32.098 -29.872  0.00  0.00    +0.000 HD
ENDBRANCH  10  21
BRANCH  16  23
ATOM     23  C   UNL     1      36.194 -40.981 -28.719  0.00  0.00    -0.001 C 
BRANCH  23  24
ATOM     24  C   UNL     1      34.744 -41.267 -28.293  0.00  0.00    -0.040 C 
BRANCH  24  25
ATOM     25  C   UNL     1      34.228 -42.586 -28.875  0.00  0.00    -0.052 C 
BRANCH  25  26
ATOM     26  C   UNL     1      32.709 -42.536 -29.047  0.00  0.00    -0.050 C 
BRANCH  26  27
ATOM     27  C   UNL     1      32.210 -41.123 -29.343  0.00  0.00    -0.019 C 
BRANCH  27  28
ATOM     28  C   UNL     1      31.782 -40.989 -30.803  0.00  0.00    +0.089 C 
BRANCH  28  29
ATOM     29  O   UNL     1      32.917 -40.586 -31.570  0.00  0.00    -0.496 OA
BRANCH  29  30
ATOM     30  C   UNL     1      33.141 -41.233 -32.770  0.00  0.00    +0.102 C 
ATOM     31  C   UNL     1      33.596 -40.661 -33.908  0.00  0.00    -0.022 C 
ATOM     32  C   UNL     1      33.838 -41.441 -35.105  0.00  0.00    -0.033 C 
ATOM     33  C   UNL     1      33.627 -42.758 -35.108  0.00  0.00    +0.068 C 
ATOM     34  N   UNL     1      33.829 -43.641 -36.133  0.00  0.00    -0.255 NA
ATOM     35  C   UNL     1      33.498 -44.789 -35.624  0.00  0.00    +0.029 C 
ATOM     36  C   UNL     1      33.045 -44.772 -34.230  0.00  0.00    -0.038 C 
ATOM     37  C   UNL     1      33.142 -43.471 -33.954  0.00  0.00    -0.013 C 
ATOM     38  C   UNL     1      32.834 -42.725 -32.693  0.00  0.00    +0.032 C 
ENDBRANCH  29  30
ENDBRANCH  28  29
ENDBRANCH  27  28
ENDBRANCH  26  27
ENDBRANCH  25  26
ENDBRANCH  24  25
ENDBRANCH  23  24
ENDBRANCH  16  23
TORSDOF 10
ENDMDL
MODEL 11
REMARK VINA RESULT:    -7.035     17.446     21.238
REMARK INTER + INTRA:         -12.927
REMARK INTER:                 -10.591
REMARK INTRA:                  -2.336
REMARK UNBOUND:                -1.986
REMARK  Name = cpd56.pdb
REMARK  11 active torsions:
REMARK  status: ('A' for Active; 'I' for Inactive)
REMARK    1  A    between atoms: C_1  and  O_2
REMARK    2  A    between atoms: O_2  and  C_3
REMARK    3  A    between atoms: C_12  and  O_13
REMARK    4  A    between atoms: N_19  and  C_20
REMARK    5  A    between atoms: C_20  and  C_21
REMARK    6  A    between atoms: C_21  and  C_22
REMARK    7  A    between atoms: C_22  and  C_23
REMARK    8  A    between atoms: C_23  and  C_24
REMARK    9  A    between atoms: C_24  and  C_25
REMARK   10  A    between atoms: C_25  and  O_26
REMARK   11  A    between atoms: O_26  and  C_27
REMARK                            x       y       z     vdW  Elec       q    Type
REMARK                         _______ _______ _______ _____ _____    ______ ____
ROOT
ATOM      1  C   UNL     1      40.363 -22.498 -33.400  0.00  0.00    +0.162 A 
ATOM      2  C   UNL     1      39.565 -23.048 -34.403  0.00  0.00    -0.016 A 
ATOM      3  C   UNL     1      39.691 -22.609 -35.734  0.00  0.00    -0.053 A 
ATOM      4  C   UNL     1      40.586 -21.586 -36.088  0.00  0.00    -0.026 A 
ATOM      5  C   UNL     1      41.305 -20.981 -35.060  0.00  0.00    +0.016 A 
ATOM      6  C   UNL     1      41.232 -21.477 -33.765  0.00  0.00    +0.167 A 
ATOM      7  O   UNL     1      42.165 -20.944 -32.911  0.00  0.00    -0.484 OA
ATOM      8  C   UNL     1      42.799 -19.872 -33.652  0.00  0.00    +0.116 C 
ATOM      9  C   UNL     1      42.429 -18.586 -32.904  0.00  0.00    +0.015 C 
ATOM     10  C   UNL     1      42.752 -17.336 -33.706  0.00  0.00    +0.077 C 
ATOM     11  C   UNL     1      42.107 -17.415 -35.047  0.00  0.00    -0.059 C 
ATOM     12  C   UNL     1      41.885 -18.582 -35.674  0.00  0.00    -0.071 C 
ATOM     13  C   UNL     1      42.365 -19.931 -35.160  0.00  0.00    +0.056 C 
ATOM     14  C   UNL     1      43.507 -20.486 -36.042  0.00  0.00    -0.023 C 
ATOM     15  C   UNL     1      43.211 -20.579 -37.552  0.00  0.00    +0.000 C 
ATOM     16  N   UNL     1      42.190 -21.552 -37.980  0.00  0.00    -0.298 N 
ATOM     17  C   UNL     1      40.822 -21.232 -37.536  0.00  0.00    +0.024 C 
ATOM     18  H   UNL     1      42.428 -22.422 -37.505  0.00  0.00    +0.000 HD
ENDROOT
BRANCH   1  20
ATOM     19  C   UNL     1      41.180 -24.004 -31.753  0.00  0.00    +0.079 C 
ATOM     20  O   UNL     1      40.382 -22.878 -32.088  0.00  0.00    -0.491 OA
ENDBRANCH   1  20
BRANCH  10  21
ATOM     21  O   UNL     1      42.222 -16.193 -33.048  0.00  0.00    -0.388 OA
ATOM     22  H   UNL     1      42.873 -15.856 -32.413  0.00  0.00    +0.000 HD
ENDBRANCH  10  21
BRANCH  16  23
ATOM     23  C   UNL     1      42.245 -21.774 -39.440  0.00  0.00    -0.001 C 
BRANCH  23  24
ATOM     24  C   UNL     1      43.291 -20.944 -40.203  0.00  0.00    -0.040 C 
BRANCH  24  25
ATOM     25  C   UNL     1      43.266 -21.238 -41.706  0.00  0.00    -0.052 C 
BRANCH  25  26
ATOM     26  C   UNL     1      44.525 -20.686 -42.379  0.00  0.00    -0.050 C 
BRANCH  26  27
ATOM     27  C   UNL     1      45.793 -21.369 -41.873  0.00  0.00    -0.019 C 
BRANCH  27  28
ATOM     28  C   UNL     1      46.845 -20.338 -41.468  0.00  0.00    +0.089 C 
BRANCH  28  29
ATOM     29  O   UNL     1      47.117 -20.495 -40.075  0.00  0.00    -0.496 OA
BRANCH  29  30
ATOM     30  C   UNL     1      46.675 -19.502 -39.222  0.00  0.00    +0.102 C 
ATOM     31  C   UNL     1      45.880 -18.461 -39.559  0.00  0.00    -0.022 C 
ATOM     32  C   UNL     1      45.438 -17.495 -38.574  0.00  0.00    -0.033 C 
ATOM     33  C   UNL     1      45.798 -17.619 -37.295  0.00  0.00    +0.068 C 
ATOM     34  N   UNL     1      45.450 -16.820 -36.241  0.00  0.00    -0.255 NA
ATOM     35  C   UNL     1      46.036 -17.375 -35.224  0.00  0.00    +0.029 C 
ATOM     36  C   UNL     1      46.823 -18.579 -35.508  0.00  0.00    -0.038 C 
ATOM     37  C   UNL     1      46.643 -18.686 -36.825  0.00  0.00    -0.013 C 
ATOM     38  C   UNL     1      47.170 -19.701 -37.792  0.00  0.00    +0.032 C 
ENDBRANCH  29  30
ENDBRANCH  28  29
ENDBRANCH  27  28
ENDBRANCH  26  27
ENDBRANCH  25  26
ENDBRANCH  24  25
ENDBRANCH  23  24
ENDBRANCH  16  23
TORSDOF 10
ENDMDL
MODEL 12
REMARK VINA RESULT:    -7.009     18.390     21.612
REMARK INTER + INTRA:         -12.887
REMARK INTER:                 -10.426
REMARK INTRA:                  -2.461
REMARK UNBOUND:                -1.986
REMARK  Name = cpd56.pdb
REMARK  11 active torsions:
REMARK  status: ('A' for Active; 'I' for Inactive)
REMARK    1  A    between atoms: C_1  and  O_2
REMARK    2  A    between atoms: O_2  and  C_3
REMARK    3  A    between atoms: C_12  and  O_13
REMARK    4  A    between atoms: N_19  and  C_20
REMARK    5  A    between atoms: C_20  and  C_21
REMARK    6  A    between atoms: C_21  and  C_22
REMARK    7  A    between atoms: C_22  and  C_23
REMARK    8  A    between atoms: C_23  and  C_24
REMARK    9  A    between atoms: C_24  and  C_25
REMARK   10  A    between atoms: C_25  and  O_26
REMARK   11  A    between atoms: O_26  and  C_27
REMARK                            x       y       z     vdW  Elec       q    Type
REMARK                         _______ _______ _______ _____ _____    ______ ____
ROOT
ATOM      1  C   UNL     1      43.827 -16.918 -40.544  0.00  0.00    +0.162 A 
ATOM      2  C   UNL     1      42.882 -16.828 -39.524  0.00  0.00    -0.016 A 
ATOM      3  C   UNL     1      42.981 -17.648 -38.385  0.00  0.00    -0.053 A 
ATOM      4  C   UNL     1      44.003 -18.604 -38.256  0.00  0.00    -0.026 A 
ATOM      5  C   UNL     1      44.882 -18.749 -39.326  0.00  0.00    +0.016 A 
ATOM      6  C   UNL     1      44.823 -17.878 -40.407  0.00  0.00    +0.167 A 
ATOM      7  O   UNL     1      45.888 -17.983 -41.265  0.00  0.00    -0.484 OA
ATOM      8  C   UNL     1      46.633 -19.142 -40.817  0.00  0.00    +0.116 C 
ATOM      9  C   UNL     1      46.532 -20.159 -41.960  0.00  0.00    +0.015 C 
ATOM     10  C   UNL     1      46.995 -21.545 -41.545  0.00  0.00    +0.077 C 
ATOM     11  C   UNL     1      46.252 -21.984 -40.331  0.00  0.00    -0.059 C 
ATOM     12  C   UNL     1      45.799 -21.120 -39.409  0.00  0.00    -0.071 C 
ATOM     13  C   UNL     1      46.088 -19.626 -39.426  0.00  0.00    +0.056 C 
ATOM     14  C   UNL     1      47.060 -19.237 -38.288  0.00  0.00    -0.023 C 
ATOM     15  C   UNL     1      46.645 -19.672 -36.867  0.00  0.00    +0.000 C 
ATOM     16  N   UNL     1      45.452 -19.029 -36.288  0.00  0.00    -0.298 N 
ATOM     17  C   UNL     1      44.189 -19.367 -36.968  0.00  0.00    +0.024 C 
ATOM     18  H   UNL     1      45.579 -18.030 -36.443  0.00  0.00    +0.000 HD
ENDROOT
BRANCH   1  20
ATOM     19  C   UNL     1      44.121 -14.753 -41.479  0.00  0.00    +0.079 C 
ATOM     20  O   UNL     1      43.878 -16.139 -41.665  0.00  0.00    -0.491 OA
ENDBRANCH   1  20
BRANCH  10  21
ATOM     21  O   UNL     1      46.707 -22.477 -42.579  0.00  0.00    -0.388 OA
ATOM     22  H   UNL     1      46.071 -23.133 -42.255  0.00  0.00    +0.000 HD
ENDBRANCH  10  21
BRANCH  16  23
ATOM     23  C   UNL     1      45.365 -19.281 -34.834  0.00  0.00    -0.001 C 
BRANCH  23  24
ATOM     24  C   UNL     1      43.944 -19.364 -34.254  0.00  0.00    -0.040 C 
BRANCH  24  25
ATOM     25  C   UNL     1      43.515 -18.046 -33.603  0.00  0.00    -0.052 C 
BRANCH  25  26
ATOM     26  C   UNL     1      42.138 -18.195 -32.952  0.00  0.00    -0.050 C 
BRANCH  26  27
ATOM     27  C   UNL     1      41.807 -19.651 -32.637  0.00  0.00    -0.019 C 
BRANCH  27  28
ATOM     28  C   UNL     1      40.362 -19.977 -33.013  0.00  0.00    +0.089 C 
BRANCH  28  29
ATOM     29  O   UNL     1      40.154 -19.594 -34.373  0.00  0.00    -0.496 OA
BRANCH  29  30
ATOM     30  C   UNL     1      40.482 -20.511 -35.352  0.00  0.00    +0.102 C 
ATOM     31  C   UNL     1      40.675 -21.837 -35.166  0.00  0.00    -0.022 C 
ATOM     32  C   UNL     1      40.975 -22.723 -36.273  0.00  0.00    -0.033 C 
ATOM     33  C   UNL     1      41.056 -22.247 -37.517  0.00  0.00    +0.068 C 
ATOM     34  N   UNL     1      41.301 -22.942 -38.670  0.00  0.00    -0.255 NA
ATOM     35  C   UNL     1      41.255 -22.032 -39.596  0.00  0.00    +0.029 C 
ATOM     36  C   UNL     1      40.983 -20.664 -39.146  0.00  0.00    -0.038 C 
ATOM     37  C   UNL     1      40.870 -20.854 -37.831  0.00  0.00    -0.013 C 
ATOM     38  C   UNL     1      40.595 -19.873 -36.733  0.00  0.00    +0.032 C 
ENDBRANCH  29  30
ENDBRANCH  28  29
ENDBRANCH  27  28
ENDBRANCH  26  27
ENDBRANCH  25  26
ENDBRANCH  24  25
ENDBRANCH  23  24
ENDBRANCH  16  23
TORSDOF 10
ENDMDL
MODEL 13
REMARK VINA RESULT:    -6.999     16.585     20.859
REMARK INTER + INTRA:         -12.871
REMARK INTER:                 -11.943
REMARK INTRA:                  -0.928
REMARK UNBOUND:                -1.986
REMARK  Name = cpd56.pdb
REMARK  11 active torsions:
REMARK  status: ('A' for Active; 'I' for Inactive)
REMARK    1  A    between atoms: C_1  and  O_2
REMARK    2  A    between atoms: O_2  and  C_3
REMARK    3  A    between atoms: C_12  and  O_13
REMARK    4  A    between atoms: N_19  and  C_20
REMARK    5  A    between atoms: C_20  and  C_21
REMARK    6  A    between atoms: C_21  and  C_22
REMARK    7  A    between atoms: C_22  and  C_23
REMARK    8  A    between atoms: C_23  and  C_24
REMARK    9  A    between atoms: C_24  and  C_25
REMARK   10  A    between atoms: C_25  and  O_26
REMARK   11  A    between atoms: O_26  and  C_27
REMARK                            x       y       z     vdW  Elec       q    Type
REMARK                         _______ _______ _______ _____ _____    ______ ____
ROOT
ATOM      1  C   UNL     1      37.950 -18.335 -32.868  0.00  0.00    +0.162 A 
ATOM      2  C   UNL     1      38.944 -17.573 -32.255  0.00  0.00    -0.016 A 
ATOM      3  C   UNL     1      40.275 -18.028 -32.225  0.00  0.00    -0.053 A 
ATOM      4  C   UNL     1      40.638 -19.271 -32.771  0.00  0.00    -0.026 A 
ATOM      5  C   UNL     1      39.618 -20.062 -33.294  0.00  0.00    +0.016 A 
ATOM      6  C   UNL     1      38.324 -19.567 -33.391  0.00  0.00    +0.167 A 
ATOM      7  O   UNL     1      37.482 -20.354 -34.135  0.00  0.00    -0.484 OA
ATOM      8  C   UNL     1      38.228 -21.566 -34.412  0.00  0.00    +0.116 C 
ATOM      9  C   UNL     1      37.469 -22.685 -33.688  0.00  0.00    +0.015 C 
ATOM     10  C   UNL     1      38.271 -23.973 -33.614  0.00  0.00    +0.077 C 
ATOM     11  C   UNL     1      39.603 -23.705 -33.002  0.00  0.00    -0.059 C 
ATOM     12  C   UNL     1      40.232 -22.525 -33.127  0.00  0.00    -0.071 C 
ATOM     13  C   UNL     1      39.729 -21.379 -33.992  0.00  0.00    +0.056 C 
ATOM     14  C   UNL     1      40.629 -21.188 -35.235  0.00  0.00    -0.023 C 
ATOM     15  C   UNL     1      42.136 -21.010 -34.957  0.00  0.00    +0.000 C 
ATOM     16  N   UNL     1      42.552 -19.777 -34.265  0.00  0.00    -0.298 N 
ATOM     17  C   UNL     1      42.088 -19.677 -32.870  0.00  0.00    +0.024 C 
ATOM     18  H   UNL     1      42.084 -19.017 -34.758  0.00  0.00    +0.000 HD
ENDROOT
BRANCH   1  20
ATOM     19  C   UNL     1      36.323 -17.126 -34.110  0.00  0.00    +0.079 C 
ATOM     20  O   UNL     1      36.640 -17.978 -33.019  0.00  0.00    -0.491 OA
ENDBRANCH   1  20
BRANCH  10  21
ATOM     21  O   UNL     1      37.601 -24.908 -32.779  0.00  0.00    -0.388 OA
ATOM     22  H   UNL     1      36.680 -24.997 -33.069  0.00  0.00    +0.000 HD
ENDBRANCH  10  21
BRANCH  16  23
ATOM     23  C   UNL     1      44.014 -19.581 -34.361  0.00  0.00    -0.001 C 
BRANCH  23  24
ATOM     24  C   UNL     1      44.633 -19.843 -35.744  0.00  0.00    -0.040 C 
BRANCH  24  25
ATOM     25  C   UNL     1      44.480 -18.638 -36.676  0.00  0.00    -0.052 C 
BRANCH  25  26
ATOM     26  C   UNL     1      45.532 -17.575 -36.351  0.00  0.00    -0.050 C 
BRANCH  26  27
ATOM     27  C   UNL     1      46.909 -17.944 -36.896  0.00  0.00    -0.019 C 
BRANCH  27  28
ATOM     28  C   UNL     1      46.808 -18.473 -38.326  0.00  0.00    +0.089 C 
BRANCH  28  29
ATOM     29  O   UNL     1      47.285 -19.818 -38.343  0.00  0.00    -0.496 OA
BRANCH  29  30
ATOM     30  C   UNL     1      46.875 -20.629 -39.384  0.00  0.00    +0.102 C 
ATOM     31  C   UNL     1      45.692 -20.548 -40.034  0.00  0.00    -0.022 C 
ATOM     32  C   UNL     1      45.375 -21.423 -41.146  0.00  0.00    -0.033 C 
ATOM     33  C   UNL     1      46.260 -22.329 -41.566  0.00  0.00    +0.068 C 
ATOM     34  N   UNL     1      46.136 -23.207 -42.608  0.00  0.00    -0.255 NA
ATOM     35  C   UNL     1      47.267 -23.845 -42.611  0.00  0.00    +0.029 C 
ATOM     36  C   UNL     1      48.233 -23.457 -41.579  0.00  0.00    -0.038 C 
ATOM     37  C   UNL     1      47.548 -22.503 -40.947  0.00  0.00    -0.013 C 
ATOM     38  C   UNL     1      47.929 -21.661 -39.769  0.00  0.00    +0.032 C 
ENDBRANCH  29  30
ENDBRANCH  28  29
ENDBRANCH  27  28
ENDBRANCH  26  27
ENDBRANCH  25  26
ENDBRANCH  24  25
ENDBRANCH  23  24
ENDBRANCH  16  23
TORSDOF 10
ENDMDL
MODEL 14
REMARK VINA RESULT:    -6.959     16.851     19.819
REMARK INTER + INTRA:         -12.809
REMARK INTER:                 -11.510
REMARK INTRA:                  -1.299
REMARK UNBOUND:                -1.986
REMARK  Name = cpd56.pdb
REMARK  11 active torsions:
REMARK  status: ('A' for Active; 'I' for Inactive)
REMARK    1  A    between atoms: C_1  and  O_2
REMARK    2  A    between atoms: O_2  and  C_3
REMARK    3  A    between atoms: C_12  and  O_13
REMARK    4  A    between atoms: N_19  and  C_20
REMARK    5  A    between atoms: C_20  and  C_21
REMARK    6  A    between atoms: C_21  and  C_22
REMARK    7  A    between atoms: C_22  and  C_23
REMARK    8  A    between atoms: C_23  and  C_24
REMARK    9  A    between atoms: C_24  and  C_25
REMARK   10  A    between atoms: C_25  and  O_26
REMARK   11  A    between atoms: O_26  and  C_27
REMARK                            x       y       z     vdW  Elec       q    Type
REMARK                         _______ _______ _______ _____ _____    ______ ____
ROOT
ATOM      1  C   UNL     1      46.129 -20.618 -41.057  0.00  0.00    +0.162 A 
ATOM      2  C   UNL     1      45.066 -21.371 -41.554  0.00  0.00    -0.016 A 
ATOM      3  C   UNL     1      43.880 -21.508 -40.809  0.00  0.00    -0.053 A 
ATOM      4  C   UNL     1      43.742 -20.929 -39.536  0.00  0.00    -0.026 A 
ATOM      5  C   UNL     1      44.847 -20.261 -39.014  0.00  0.00    +0.016 A 
ATOM      6  C   UNL     1      45.981 -20.064 -39.791  0.00  0.00    +0.167 A 
ATOM      7  O   UNL     1      46.888 -19.194 -39.241  0.00  0.00    -0.484 OA
ATOM      8  C   UNL     1      46.401 -18.923 -37.903  0.00  0.00    +0.116 C 
ATOM      9  C   UNL     1      47.464 -19.499 -36.959  0.00  0.00    +0.015 C 
ATOM     10  C   UNL     1      46.979 -19.578 -35.522  0.00  0.00    +0.077 C 
ATOM     11  C   UNL     1      45.698 -20.335 -35.460  0.00  0.00    -0.059 C 
ATOM     12  C   UNL     1      44.814 -20.344 -36.472  0.00  0.00    -0.071 C 
ATOM     13  C   UNL     1      44.953 -19.501 -37.731  0.00  0.00    +0.056 C 
ATOM     14  C   UNL     1      43.900 -18.369 -37.758  0.00  0.00    -0.023 C 
ATOM     15  C   UNL     1      42.431 -18.806 -37.581  0.00  0.00    +0.000 C 
ATOM     16  N   UNL     1      41.833 -19.608 -38.663  0.00  0.00    -0.298 N 
ATOM     17  C   UNL     1      42.416 -20.952 -38.817  0.00  0.00    +0.024 C 
ATOM     18  H   UNL     1      42.064 -19.116 -39.525  0.00  0.00    +0.000 HD
ENDROOT
BRANCH   1  20
ATOM     19  C   UNL     1      48.202 -21.444 -41.874  0.00  0.00    +0.079 C 
ATOM     20  O   UNL     1      47.303 -20.358 -41.705  0.00  0.00    -0.491 OA
ENDBRANCH   1  20
BRANCH  10  21
ATOM     21  O   UNL     1      47.928 -20.285 -34.734  0.00  0.00    -0.388 OA
ATOM     22  H   UNL     1      47.591 -21.175 -34.544  0.00  0.00    +0.000 HD
ENDBRANCH  10  21
BRANCH  16  23
ATOM     23  C   UNL     1      40.363 -19.671 -38.527  0.00  0.00    -0.001 C 
BRANCH  23  24
ATOM     24  C   UNL     1      39.835 -20.024 -37.127  0.00  0.00    -0.040 C 
BRANCH  24  25
ATOM     25  C   UNL     1      39.324 -21.466 -37.057  0.00  0.00    -0.052 C 
BRANCH  25  26
ATOM     26  C   UNL     1      40.193 -22.295 -36.109  0.00  0.00    -0.050 C 
BRANCH  26  27
ATOM     27  C   UNL     1      39.356 -23.140 -35.152  0.00  0.00    -0.019 C 
BRANCH  27  28
ATOM     28  C   UNL     1      39.995 -23.192 -33.765  0.00  0.00    +0.089 C 
BRANCH  28  29
ATOM     29  O   UNL     1      39.011 -22.816 -32.801  0.00  0.00    -0.496 OA
BRANCH  29  30
ATOM     30  C   UNL     1      38.687 -21.477 -32.706  0.00  0.00    +0.102 C 
ATOM     31  C   UNL     1      39.564 -20.455 -32.582  0.00  0.00    -0.022 C 
ATOM     32  C   UNL     1      39.120 -19.076 -32.534  0.00  0.00    -0.033 C 
ATOM     33  C   UNL     1      37.823 -18.780 -32.625  0.00  0.00    +0.068 C 
ATOM     34  N   UNL     1      37.239 -17.543 -32.625  0.00  0.00    -0.255 NA
ATOM     35  C   UNL     1      35.972 -17.797 -32.757  0.00  0.00    +0.029 C 
ATOM     36  C   UNL     1      35.602 -19.212 -32.850  0.00  0.00    -0.038 C 
ATOM     37  C   UNL     1      36.802 -19.788 -32.758  0.00  0.00    -0.013 C 
ATOM     38  C   UNL     1      37.183 -21.236 -32.777  0.00  0.00    +0.032 C 
ENDBRANCH  29  30
ENDBRANCH  28  29
ENDBRANCH  27  28
ENDBRANCH  26  27
ENDBRANCH  25  26
ENDBRANCH  24  25
ENDBRANCH  23  24
ENDBRANCH  16  23
TORSDOF 10
ENDMDL
MODEL 15
REMARK VINA RESULT:    -6.941      2.396      7.403
REMARK INTER + INTRA:         -12.782
REMARK INTER:                 -10.803
REMARK INTRA:                  -1.978
REMARK UNBOUND:                -1.986
REMARK  Name = cpd56.pdb
REMARK  11 active torsions:
REMARK  status: ('A' for Active; 'I' for Inactive)
REMARK    1  A    between atoms: C_1  and  O_2
REMARK    2  A    between atoms: O_2  and  C_3
REMARK    3  A    between atoms: C_12  and  O_13
REMARK    4  A    between atoms: N_19  and  C_20
REMARK    5  A    between atoms: C_20  and  C_21
REMARK    6  A    between atoms: C_21  and  C_22
REMARK    7  A    between atoms: C_22  and  C_23
REMARK    8  A    between atoms: C_23  and  C_24
REMARK    9  A    between atoms: C_24  and  C_25
REMARK   10  A    between atoms: C_25  and  O_26
REMARK   11  A    between atoms: O_26  and  C_27
REMARK                            x       y       z     vdW  Elec       q    Type
REMARK                         _______ _______ _______ _____ _____    ______ ____
ROOT
ATOM      1  C   UNL     1      31.526 -31.702 -30.268  0.00  0.00    +0.162 A 
ATOM      2  C   UNL     1      32.711 -31.093 -30.680  0.00  0.00    -0.016 A 
ATOM      3  C   UNL     1      33.918 -31.816 -30.694  0.00  0.00    -0.053 A 
ATOM      4  C   UNL     1      33.977 -33.151 -30.259  0.00  0.00    -0.026 A 
ATOM      5  C   UNL     1      32.806 -33.715 -29.760  0.00  0.00    +0.016 A 
ATOM      6  C   UNL     1      31.606 -33.018 -29.828  0.00  0.00    +0.167 A 
ATOM      7  O   UNL     1      30.504 -33.776 -29.525  0.00  0.00    -0.484 OA
ATOM      8  C   UNL     1      31.025 -35.039 -29.041  0.00  0.00    +0.116 C 
ATOM      9  C   UNL     1      30.596 -35.120 -27.571  0.00  0.00    +0.015 C 
ATOM     10  C   UNL     1      31.311 -36.231 -26.820  0.00  0.00    +0.077 C 
ATOM     11  C   UNL     1      32.785 -36.076 -26.971  0.00  0.00    -0.059 C 
ATOM     12  C   UNL     1      33.346 -35.530 -28.062  0.00  0.00    -0.071 C 
ATOM     13  C   UNL     1      32.570 -35.119 -29.305  0.00  0.00    +0.056 C 
ATOM     14  C   UNL     1      32.880 -36.065 -30.488  0.00  0.00    -0.023 C 
ATOM     15  C   UNL     1      34.371 -36.243 -30.839  0.00  0.00    +0.000 C 
ATOM     16  N   UNL     1      35.080 -35.070 -31.380  0.00  0.00    -0.298 N 
ATOM     17  C   UNL     1      35.240 -33.961 -30.423  0.00  0.00    +0.024 C 
ATOM     18  H   UNL     1      34.477 -34.703 -32.116  0.00  0.00    +0.000 HD
ENDROOT
BRANCH   1  20
ATOM     19  C   UNL     1      29.980 -30.248 -29.198  0.00  0.00    +0.079 C 
ATOM     20  O   UNL     1      30.285 -31.131 -30.268  0.00  0.00    -0.491 OA
ENDBRANCH   1  20
BRANCH  10  21
ATOM     21  O   UNL     1      31.015 -36.139 -25.433  0.00  0.00    -0.388 OA
ATOM     22  H   UNL     1      31.466 -35.367 -25.056  0.00  0.00    +0.000 HD
ENDBRANCH  10  21
BRANCH  16  23
ATOM     23  C   UNL     1      36.376 -35.459 -31.975  0.00  0.00    -0.001 C 
BRANCH  23  24
ATOM     24  C   UNL     1      37.574 -35.478 -31.012  0.00  0.00    -0.040 C 
BRANCH  24  25
ATOM     25  C   UNL     1      37.599 -36.749 -30.156  0.00  0.00    -0.052 C 
BRANCH  25  26
ATOM     26  C   UNL     1      39.041 -37.175 -29.876  0.00  0.00    -0.050 C 
BRANCH  26  27
ATOM     27  C   UNL     1      39.132 -38.168 -28.720  0.00  0.00    -0.019 C 
BRANCH  27  28
ATOM     28  C   UNL     1      37.840 -38.179 -27.905  0.00  0.00    +0.089 C 
BRANCH  28  29
ATOM     29  O   UNL     1      37.273 -39.488 -27.976  0.00  0.00    -0.496 OA
BRANCH  29  30
ATOM     30  C   UNL     1      36.133 -39.650 -28.738  0.00  0.00    +0.102 C 
ATOM     31  C   UNL     1      34.887 -39.249 -28.399  0.00  0.00    -0.022 C 
ATOM     32  C   UNL     1      33.761 -39.430 -29.293  0.00  0.00    -0.033 C 
ATOM     33  C   UNL     1      33.933 -39.992 -30.491  0.00  0.00    +0.068 C 
ATOM     34  N   UNL     1      32.994 -40.211 -31.461  0.00  0.00    -0.255 NA
ATOM     35  C   UNL     1      33.668 -40.756 -32.428  0.00  0.00    +0.029 C 
ATOM     36  C   UNL     1      35.101 -40.951 -32.190  0.00  0.00    -0.038 C 
ATOM     37  C   UNL     1      35.215 -40.457 -30.956  0.00  0.00    -0.013 C 
ATOM     38  C   UNL     1      36.416 -40.338 -30.070  0.00  0.00    +0.032 C 
ENDBRANCH  29  30
ENDBRANCH  28  29
ENDBRANCH  27  28
ENDBRANCH  26  27
ENDBRANCH  25  26
ENDBRANCH  24  25
ENDBRANCH  23  24
ENDBRANCH  16  23
TORSDOF 10
ENDMDL
MODEL 16
REMARK VINA RESULT:    -6.917     17.528     21.105
REMARK INTER + INTRA:         -12.744
REMARK INTER:                 -10.884
REMARK INTRA:                  -1.860
REMARK UNBOUND:                -1.986
REMARK  Name = cpd56.pdb
REMARK  11 active torsions:
REMARK  status: ('A' for Active; 'I' for Inactive)
REMARK    1  A    between atoms: C_1  and  O_2
REMARK    2  A    between atoms: O_2  and  C_3
REMARK    3  A    between atoms: C_12  and  O_13
REMARK    4  A    between atoms: N_19  and  C_20
REMARK    5  A    between atoms: C_20  and  C_21
REMARK    6  A    between atoms: C_21  and  C_22
REMARK    7  A    between atoms: C_22  and  C_23
REMARK    8  A    between atoms: C_23  and  C_24
REMARK    9  A    between atoms: C_24  and  C_25
REMARK   10  A    between atoms: C_25  and  O_26
REMARK   11  A    between atoms: O_26  and  C_27
REMARK                            x       y       z     vdW  Elec       q    Type
REMARK                         _______ _______ _______ _____ _____    ______ ____
ROOT
ATOM      1  C   UNL     1      44.270 -19.903 -35.322  0.00  0.00    +0.162 A 
ATOM      2  C   UNL     1      44.433 -19.802 -36.703  0.00  0.00    -0.016 A 
ATOM      3  C   UNL     1      43.328 -19.943 -37.564  0.00  0.00    -0.053 A 
ATOM      4  C   UNL     1      42.044 -20.225 -37.069  0.00  0.00    -0.026 A 
ATOM      5  C   UNL     1      41.916 -20.419 -35.695  0.00  0.00    +0.016 A 
ATOM      6  C   UNL     1      42.996 -20.197 -34.851  0.00  0.00    +0.167 A 
ATOM      7  O   UNL     1      42.669 -20.192 -33.518  0.00  0.00    -0.484 OA
ATOM      8  C   UNL     1      41.286 -20.621 -33.458  0.00  0.00    +0.116 C 
ATOM      9  C   UNL     1      41.307 -21.959 -32.711  0.00  0.00    +0.015 C 
ATOM     10  C   UNL     1      39.988 -22.705 -32.820  0.00  0.00    +0.077 C 
ATOM     11  C   UNL     1      39.613 -22.863 -34.253  0.00  0.00    -0.059 C 
ATOM     12  C   UNL     1      39.965 -21.972 -35.195  0.00  0.00    -0.071 C 
ATOM     13  C   UNL     1      40.672 -20.657 -34.902  0.00  0.00    +0.056 C 
ATOM     14  C   UNL     1      39.723 -19.457 -35.128  0.00  0.00    -0.023 C 
ATOM     15  C   UNL     1      39.039 -19.386 -36.509  0.00  0.00    +0.000 C 
ATOM     16  N   UNL     1      39.902 -19.131 -37.675  0.00  0.00    -0.298 N 
ATOM     17  C   UNL     1      40.844 -20.221 -37.984  0.00  0.00    +0.024 C 
ATOM     18  H   UNL     1      40.488 -18.339 -37.413  0.00  0.00    +0.000 HD
ENDROOT
BRANCH   1  20
ATOM     19  C   UNL     1      46.581 -19.608 -34.850  0.00  0.00    +0.079 C 
ATOM     20  O   UNL     1      45.245 -19.726 -34.382  0.00  0.00    -0.491 OA
ENDBRANCH   1  20
BRANCH  10  21
ATOM     21  O   UNL     1      40.126 -24.008 -32.271  0.00  0.00    -0.388 OA
ATOM     22  H   UNL     1      40.005 -24.668 -32.972  0.00  0.00    +0.000 HD
ENDBRANCH  10  21
BRANCH  16  23
ATOM     23  C   UNL     1      39.100 -18.761 -38.860  0.00  0.00    -0.001 C 
BRANCH  23  24
ATOM     24  C   UNL     1      39.520 -17.465 -39.573  0.00  0.00    -0.040 C 
BRANCH  24  25
ATOM     25  C   UNL     1      40.386 -16.575 -38.676  0.00  0.00    -0.052 C 
BRANCH  25  26
ATOM     26  C   UNL     1      41.691 -16.211 -39.386  0.00  0.00    -0.050 C 
BRANCH  26  27
ATOM     27  C   UNL     1      42.512 -17.446 -39.749  0.00  0.00    -0.019 C 
BRANCH  27  28
ATOM     28  C   UNL     1      43.621 -17.094 -40.739  0.00  0.00    +0.089 C 
BRANCH  28  29
ATOM     29  O   UNL     1      44.797 -17.818 -40.375  0.00  0.00    -0.496 OA
BRANCH  29  30
ATOM     30  C   UNL     1      45.003 -19.045 -40.976  0.00  0.00    +0.102 C 
ATOM     31  C   UNL     1      44.505 -19.438 -42.170  0.00  0.00    -0.022 C 
ATOM     32  C   UNL     1      44.819 -20.737 -42.733  0.00  0.00    -0.033 C 
ATOM     33  C   UNL     1      45.626 -21.577 -42.084  0.00  0.00    +0.068 C 
ATOM     34  N   UNL     1      46.045 -22.817 -42.481  0.00  0.00    -0.255 NA
ATOM     35  C   UNL     1      46.825 -23.205 -41.518  0.00  0.00    +0.029 C 
ATOM     36  C   UNL     1      46.990 -22.268 -40.402  0.00  0.00    -0.038 C 
ATOM     37  C   UNL     1      46.212 -21.263 -40.806  0.00  0.00    -0.013 C 
ATOM     38  C   UNL     1      45.902 -19.956 -40.146  0.00  0.00    +0.032 C 
ENDBRANCH  29  30
ENDBRANCH  28  29
ENDBRANCH  27  28
ENDBRANCH  26  27
ENDBRANCH  25  26
ENDBRANCH  24  25
ENDBRANCH  23  24
ENDBRANCH  16  23
TORSDOF 10
ENDMDL
MODEL 17
REMARK VINA RESULT:    -6.884     21.100     23.397
REMARK INTER + INTRA:         -12.693
REMARK INTER:                  -9.040
REMARK INTRA:                  -3.653
REMARK UNBOUND:                -1.986
REMARK  Name = cpd56.pdb
REMARK  11 active torsions:
REMARK  status: ('A' for Active; 'I' for Inactive)
REMARK    1  A    between atoms: C_1  and  O_2
REMARK    2  A    between atoms: O_2  and  C_3
REMARK    3  A    between atoms: C_12  and  O_13
REMARK    4  A    between atoms: N_19  and  C_20
REMARK    5  A    between atoms: C_20  and  C_21
REMARK    6  A    between atoms: C_21  and  C_22
REMARK    7  A    between atoms: C_22  and  C_23
REMARK    8  A    between atoms: C_23  and  C_24
REMARK    9  A    between atoms: C_24  and  C_25
REMARK   10  A    between atoms: C_25  and  O_26
REMARK   11  A    between atoms: O_26  and  C_27
REMARK                            x       y       z     vdW  Elec       q    Type
REMARK                         _______ _______ _______ _____ _____    ______ ____
ROOT
ATOM      1  C   UNL     1      47.119 -18.145 -36.773  0.00  0.00    +0.162 A 
ATOM      2  C   UNL     1      47.222 -16.769 -36.971  0.00  0.00    -0.016 A 
ATOM      3  C   UNL     1      46.885 -16.200 -38.213  0.00  0.00    -0.053 A 
ATOM      4  C   UNL     1      46.475 -16.995 -39.297  0.00  0.00    -0.026 A 
ATOM      5  C   UNL     1      46.469 -18.375 -39.113  0.00  0.00    +0.016 A 
ATOM      6  C   UNL     1      46.725 -18.917 -37.859  0.00  0.00    +0.167 A 
ATOM      7  O   UNL     1      46.453 -20.259 -37.768  0.00  0.00    -0.484 OA
ATOM      8  C   UNL     1      46.159 -20.687 -39.121  0.00  0.00    +0.116 C 
ATOM      9  C   UNL     1      47.277 -21.670 -39.489  0.00  0.00    +0.015 C 
ATOM     10  C   UNL     1      47.303 -21.987 -40.975  0.00  0.00    +0.077 C 
ATOM     11  C   UNL     1      47.379 -20.723 -41.760  0.00  0.00    -0.059 C 
ATOM     12  C   UNL     1      46.848 -19.569 -41.326  0.00  0.00    -0.071 C 
ATOM     13  C   UNL     1      46.014 -19.438 -40.060  0.00  0.00    +0.056 C 
ATOM     14  C   UNL     1      44.529 -19.172 -40.400  0.00  0.00    -0.023 C 
ATOM     15  C   UNL     1      44.253 -17.976 -41.334  0.00  0.00    +0.000 C 
ATOM     16  N   UNL     1      44.540 -16.630 -40.807  0.00  0.00    -0.298 N 
ATOM     17  C   UNL     1      45.970 -16.363 -40.571  0.00  0.00    +0.024 C 
ATOM     18  H   UNL     1      44.108 -16.601 -39.884  0.00  0.00    +0.000 HD
ENDROOT
BRANCH   1  20
ATOM     19  C   UNL     1      47.604 -18.019 -34.450  0.00  0.00    +0.079 C 
ATOM     20  O   UNL     1      47.354 -18.810 -35.603  0.00  0.00    -0.491 OA
ENDBRANCH   1  20
BRANCH  10  21
ATOM     21  O   UNL     1      48.463 -22.748 -41.283  0.00  0.00    -0.388 OA
ATOM     22  H   UNL     1      48.299 -23.683 -41.081  0.00  0.00    +0.000 HD
ENDBRANCH  10  21
BRANCH  16  23
ATOM     23  C   UNL     1      43.929 -15.585 -41.654  0.00  0.00    -0.001 C 
BRANCH  23  24
ATOM     24  C   UNL     1      44.451 -14.156 -41.434  0.00  0.00    -0.040 C 
BRANCH  24  25
ATOM     25  C   UNL     1      43.439 -13.289 -40.679  0.00  0.00    -0.052 C 
BRANCH  25  26
ATOM     26  C   UNL     1      43.443 -13.638 -39.189  0.00  0.00    -0.050 C 
BRANCH  26  27
ATOM     27  C   UNL     1      42.063 -14.062 -38.695  0.00  0.00    -0.019 C 
BRANCH  27  28
ATOM     28  C   UNL     1      42.015 -15.566 -38.428  0.00  0.00    +0.089 C 
BRANCH  28  29
ATOM     29  O   UNL     1      43.333 -16.006 -38.098  0.00  0.00    -0.496 OA
BRANCH  29  30
ATOM     30  C   UNL     1      43.469 -16.862 -37.022  0.00  0.00    +0.102 C 
ATOM     31  C   UNL     1      43.358 -18.210 -37.061  0.00  0.00    -0.022 C 
ATOM     32  C   UNL     1      43.563 -19.022 -35.878  0.00  0.00    -0.033 C 
ATOM     33  C   UNL     1      43.883 -18.453 -34.714  0.00  0.00    +0.068 C 
ATOM     34  N   UNL     1      44.136 -19.067 -33.518  0.00  0.00    -0.255 NA
ATOM     35  C   UNL     1      44.416 -18.083 -32.717  0.00  0.00    +0.029 C 
ATOM     36  C   UNL     1      44.369 -16.740 -33.301  0.00  0.00    -0.038 C 
ATOM     37  C   UNL     1      44.025 -17.029 -34.558  0.00  0.00    -0.013 C 
ATOM     38  C   UNL     1      43.791 -16.123 -35.727  0.00  0.00    +0.032 C 
ENDBRANCH  29  30
ENDBRANCH  28  29
ENDBRANCH  27  28
ENDBRANCH  26  27
ENDBRANCH  25  26
ENDBRANCH  24  25
ENDBRANCH  23  24
ENDBRANCH  16  23
TORSDOF 10
ENDMDL
MODEL 18
REMARK VINA RESULT:    -6.867     17.231     21.148
REMARK INTER + INTRA:         -12.667
REMARK INTER:                 -10.885
REMARK INTRA:                  -1.782
REMARK UNBOUND:                -1.986
REMARK  Name = cpd56.pdb
REMARK  11 active torsions:
REMARK  status: ('A' for Active; 'I' for Inactive)
REMARK    1  A    between atoms: C_1  and  O_2
REMARK    2  A    between atoms: O_2  and  C_3
REMARK    3  A    between atoms: C_12  and  O_13
REMARK    4  A    between atoms: N_19  and  C_20
REMARK    5  A    between atoms: C_20  and  C_21
REMARK    6  A    between atoms: C_21  and  C_22
REMARK    7  A    between atoms: C_22  and  C_23
REMARK    8  A    between atoms: C_23  and  C_24
REMARK    9  A    between atoms: C_24  and  C_25
REMARK   10  A    between atoms: C_25  and  O_26
REMARK   11  A    between atoms: O_26  and  C_27
REMARK                            x       y       z     vdW  Elec       q    Type
REMARK                         _______ _______ _______ _____ _____    ______ ____
ROOT
ATOM      1  C   UNL     1      39.577 -23.011 -34.383  0.00  0.00    +0.162 A 
ATOM      2  C   UNL     1      40.342 -22.978 -33.218  0.00  0.00    -0.016 A 
ATOM      3  C   UNL     1      41.381 -22.040 -33.072  0.00  0.00    -0.053 A 
ATOM      4  C   UNL     1      41.705 -21.139 -34.100  0.00  0.00    -0.026 A 
ATOM      5  C   UNL     1      40.996 -21.248 -35.294  0.00  0.00    +0.016 A 
ATOM      6  C   UNL     1      39.921 -22.123 -35.395  0.00  0.00    +0.167 A 
ATOM      7  O   UNL     1      39.173 -21.955 -36.534  0.00  0.00    -0.484 OA
ATOM      8  C   UNL     1      39.912 -21.010 -37.346  0.00  0.00    +0.116 C 
ATOM      9  C   UNL     1      40.332 -21.790 -38.598  0.00  0.00    +0.015 C 
ATOM     10  C   UNL     1      41.372 -21.048 -39.420  0.00  0.00    +0.077 C 
ATOM     11  C   UNL     1      42.535 -20.690 -38.561  0.00  0.00    -0.059 C 
ATOM     12  C   UNL     1      42.414 -20.444 -37.246  0.00  0.00    -0.071 C 
ATOM     13  C   UNL     1      41.084 -20.383 -36.510  0.00  0.00    +0.056 C 
ATOM     14  C   UNL     1      40.748 -18.933 -36.091  0.00  0.00    -0.023 C 
ATOM     15  C   UNL     1      41.831 -18.197 -35.275  0.00  0.00    +0.000 C 
ATOM     16  N   UNL     1      42.106 -18.698 -33.917  0.00  0.00    -0.298 N 
ATOM     17  C   UNL     1      42.714 -20.040 -33.875  0.00  0.00    +0.024 C 
ATOM     18  H   UNL     1      41.193 -18.805 -33.476  0.00  0.00    +0.000 HD
ENDROOT
BRANCH   1  20
ATOM     19  C   UNL     1      37.715 -24.196 -33.503  0.00  0.00    +0.079 C 
ATOM     20  O   UNL     1      38.508 -23.827 -34.622  0.00  0.00    -0.491 OA
ENDBRANCH   1  20
BRANCH  10  21
ATOM     21  O   UNL     1      41.855 -21.892 -40.457  0.00  0.00    -0.388 OA
ATOM     22  H   UNL     1      42.818 -21.799 -40.527  0.00  0.00    +0.000 HD
ENDBRANCH  10  21
BRANCH  16  23
ATOM     23  C   UNL     1      42.900 -17.723 -33.141  0.00  0.00    -0.001 C 
BRANCH  23  24
ATOM     24  C   UNL     1      44.280 -18.209 -32.669  0.00  0.00    -0.040 C 
BRANCH  24  25
ATOM     25  C   UNL     1      45.405 -17.282 -33.141  0.00  0.00    -0.052 C 
BRANCH  25  26
ATOM     26  C   UNL     1      45.355 -17.115 -34.662  0.00  0.00    -0.050 C 
BRANCH  26  27
ATOM     27  C   UNL     1      46.458 -17.905 -35.363  0.00  0.00    -0.019 C 
BRANCH  27  28
ATOM     28  C   UNL     1      45.881 -19.111 -36.102  0.00  0.00    +0.089 C 
BRANCH  28  29
ATOM     29  O   UNL     1      45.281 -18.652 -37.314  0.00  0.00    -0.496 OA
BRANCH  29  30
ATOM     30  C   UNL     1      45.866 -19.039 -38.504  0.00  0.00    +0.102 C 
ATOM     31  C   UNL     1      46.097 -18.242 -39.571  0.00  0.00    -0.022 C 
ATOM     32  C   UNL     1      46.758 -18.741 -40.761  0.00  0.00    -0.033 C 
ATOM     33  C   UNL     1      47.170 -20.008 -40.825  0.00  0.00    +0.068 C 
ATOM     34  N   UNL     1      47.829 -20.628 -41.851  0.00  0.00    -0.255 NA
ATOM     35  C   UNL     1      48.018 -21.836 -41.413  0.00  0.00    +0.029 C 
ATOM     36  C   UNL     1      47.502 -22.127 -40.072  0.00  0.00    -0.038 C 
ATOM     37  C   UNL     1      46.975 -20.945 -39.749  0.00  0.00    -0.013 C 
ATOM     38  C   UNL     1      46.265 -20.512 -38.504  0.00  0.00    +0.032 C 
ENDBRANCH  29  30
ENDBRANCH  28  29
ENDBRANCH  27  28
ENDBRANCH  26  27
ENDBRANCH  25  26
ENDBRANCH  24  25
ENDBRANCH  23  24
ENDBRANCH  16  23
TORSDOF 10
ENDMDL
MODEL 19
REMARK VINA RESULT:    -6.792      3.258      8.243
REMARK INTER + INTRA:         -12.550
REMARK INTER:                 -11.389
REMARK INTRA:                  -1.161
REMARK UNBOUND:                -1.986
REMARK  Name = cpd56.pdb
REMARK  11 active torsions:
REMARK  status: ('A' for Active; 'I' for Inactive)
REMARK    1  A    between atoms: C_1  and  O_2
REMARK    2  A    between atoms: O_2  and  C_3
REMARK    3  A    between atoms: C_12  and  O_13
REMARK    4  A    between atoms: N_19  and  C_20
REMARK    5  A    between atoms: C_20  and  C_21
REMARK    6  A    between atoms: C_21  and  C_22
REMARK    7  A    between atoms: C_22  and  C_23
REMARK    8  A    between atoms: C_23  and  C_24
REMARK    9  A    between atoms: C_24  and  C_25
REMARK   10  A    between atoms: C_25  and  O_26
REMARK   11  A    between atoms: O_26  and  C_27
REMARK                            x       y       z     vdW  Elec       q    Type
REMARK                         _______ _______ _______ _____ _____    ______ ____
ROOT
ATOM      1  C   UNL     1      31.577 -37.758 -34.029  0.00  0.00    +0.162 A 
ATOM      2  C   UNL     1      31.882 -39.109 -33.864  0.00  0.00    -0.016 A 
ATOM      3  C   UNL     1      32.518 -39.559 -32.692  0.00  0.00    -0.053 A 
ATOM      4  C   UNL     1      32.898 -38.667 -31.675  0.00  0.00    -0.026 A 
ATOM      5  C   UNL     1      32.674 -37.310 -31.897  0.00  0.00    +0.016 A 
ATOM      6  C   UNL     1      31.974 -36.888 -33.020  0.00  0.00    +0.167 A 
ATOM      7  O   UNL     1      31.621 -35.563 -32.991  0.00  0.00    -0.484 OA
ATOM      8  C   UNL     1      32.294 -35.009 -31.833  0.00  0.00    +0.116 C 
ATOM      9  C   UNL     1      33.295 -33.991 -32.393  0.00  0.00    +0.015 C 
ATOM     10  C   UNL     1      34.300 -33.533 -31.350  0.00  0.00    +0.077 C 
ATOM     11  C   UNL     1      34.975 -34.716 -30.745  0.00  0.00    -0.059 C 
ATOM     12  C   UNL     1      34.371 -35.909 -30.623  0.00  0.00    -0.071 C 
ATOM     13  C   UNL     1      32.911 -36.164 -30.968  0.00  0.00    +0.056 C 
ATOM     14  C   UNL     1      32.075 -36.403 -29.689  0.00  0.00    -0.023 C 
ATOM     15  C   UNL     1      32.588 -37.506 -28.741  0.00  0.00    +0.000 C 
ATOM     16  N   UNL     1      32.533 -38.895 -29.232  0.00  0.00    -0.298 N 
ATOM     17  C   UNL     1      33.437 -39.177 -30.361  0.00  0.00    +0.024 C 
ATOM     18  H   UNL     1      31.592 -39.014 -29.607  0.00  0.00    +0.000 HD
ENDROOT
BRANCH   1  20
ATOM     19  C   UNL     1      30.120 -38.082 -35.878  0.00  0.00    +0.079 C 
ATOM     20  O   UNL     1      30.910 -37.207 -35.086  0.00  0.00    -0.491 OA
ENDBRANCH   1  20
BRANCH  10  21
ATOM     21  O   UNL     1      35.305 -32.740 -31.967  0.00  0.00    -0.388 OA
ATOM     22  H   UNL     1      35.413 -31.912 -31.473  0.00  0.00    +0.000 HD
ENDBRANCH  10  21
BRANCH  16  23
ATOM     23  C   UNL     1      32.733 -39.857 -28.129  0.00  0.00    -0.001 C 
BRANCH  23  24
ATOM     24  C   UNL     1      34.113 -39.821 -27.453  0.00  0.00    -0.040 C 
BRANCH  24  25
ATOM     25  C   UNL     1      34.886 -41.127 -27.664  0.00  0.00    -0.052 C 
BRANCH  25  26
ATOM     26  C   UNL     1      35.766 -41.030 -28.912  0.00  0.00    -0.050 C 
BRANCH  26  27
ATOM     27  C   UNL     1      37.137 -40.433 -28.603  0.00  0.00    -0.019 C 
BRANCH  27  28
ATOM     28  C   UNL     1      37.093 -38.907 -28.652  0.00  0.00    +0.089 C 
BRANCH  28  29
ATOM     29  O   UNL     1      38.432 -38.415 -28.577  0.00  0.00    -0.496 OA
BRANCH  29  30
ATOM     30  C   UNL     1      38.859 -37.569 -29.581  0.00  0.00    +0.102 C 
ATOM     31  C   UNL     1      38.067 -36.792 -30.355  0.00  0.00    -0.022 C 
ATOM     32  C   UNL     1      38.622 -35.903 -31.357  0.00  0.00    -0.033 C 
ATOM     33  C   UNL     1      39.942 -35.821 -31.531  0.00  0.00    +0.068 C 
ATOM     34  N   UNL     1      40.628 -35.022 -32.404  0.00  0.00    -0.255 NA
ATOM     35  C   UNL     1      41.874 -35.302 -32.168  0.00  0.00    +0.029 C 
ATOM     36  C   UNL     1      42.126 -36.307 -31.130  0.00  0.00    -0.038 C 
ATOM     37  C   UNL     1      40.878 -36.603 -30.766  0.00  0.00    -0.013 C 
ATOM     38  C   UNL     1      40.376 -37.571 -29.739  0.00  0.00    +0.032 C 
ENDBRANCH  29  30
ENDBRANCH  28  29
ENDBRANCH  27  28
ENDBRANCH  26  27
ENDBRANCH  25  26
ENDBRANCH  24  25
ENDBRANCH  23  24
ENDBRANCH  16  23
TORSDOF 10
ENDMDL
MODEL 20
REMARK VINA RESULT:    -6.375     19.965     23.033
REMARK INTER + INTRA:         -11.901
REMARK INTER:                  -9.023
REMARK INTRA:                  -2.878
REMARK UNBOUND:                -1.986
REMARK  Name = cpd56.pdb
REMARK  11 active torsions:
REMARK  status: ('A' for Active; 'I' for Inactive)
REMARK    1  A    between atoms: C_1  and  O_2
REMARK    2  A    between atoms: O_2  and  C_3
REMARK    3  A    between atoms: C_12  and  O_13
REMARK    4  A    between atoms: N_19  and  C_20
REMARK    5  A    between atoms: C_20  and  C_21
REMARK    6  A    between atoms: C_21  and  C_22
REMARK    7  A    between atoms: C_22  and  C_23
REMARK    8  A    between atoms: C_23  and  C_24
REMARK    9  A    between atoms: C_24  and  C_25
REMARK   10  A    between atoms: C_25  and  O_26
REMARK   11  A    between atoms: O_26  and  C_27
REMARK                            x       y       z     vdW  Elec       q    Type
REMARK                         _______ _______ _______ _____ _____    ______ ____
ROOT
ATOM      1  C   UNL     1      46.326 -20.850 -40.603  0.00  0.00    +0.162 A 
ATOM      2  C   UNL     1      45.478 -20.547 -41.669  0.00  0.00    -0.016 A 
ATOM      3  C   UNL     1      44.820 -19.304 -41.725  0.00  0.00    -0.053 A 
ATOM      4  C   UNL     1      44.961 -18.352 -40.701  0.00  0.00    -0.026 A 
ATOM      5  C   UNL     1      45.734 -18.708 -39.599  0.00  0.00    +0.016 A 
ATOM      6  C   UNL     1      46.443 -19.903 -39.593  0.00  0.00    +0.167 A 
ATOM      7  O   UNL     1      47.340 -20.012 -38.561  0.00  0.00    -0.484 OA
ATOM      8  C   UNL     1      47.084 -18.872 -37.703  0.00  0.00    +0.116 C 
ATOM      9  C   UNL     1      46.583 -19.463 -36.380  0.00  0.00    +0.015 C 
ATOM     10  C   UNL     1      45.978 -18.410 -35.468  0.00  0.00    +0.077 C 
ATOM     11  C   UNL     1      44.912 -17.664 -36.194  0.00  0.00    -0.059 C 
ATOM     12  C   UNL     1      44.943 -17.469 -37.523  0.00  0.00    -0.071 C 
ATOM     13  C   UNL     1      46.106 -17.873 -38.416  0.00  0.00    +0.056 C 
ATOM     14  C   UNL     1      46.867 -16.628 -38.930  0.00  0.00    -0.023 C 
ATOM     15  C   UNL     1      46.013 -15.557 -39.637  0.00  0.00    +0.000 C 
ATOM     16  N   UNL     1      45.411 -15.923 -40.932  0.00  0.00    -0.298 N 
ATOM     17  C   UNL     1      44.376 -16.969 -40.847  0.00  0.00    +0.024 C 
ATOM     18  H   UNL     1      46.166 -16.340 -41.475  0.00  0.00    +0.000 HD
ENDROOT
BRANCH   1  20
ATOM     19  C   UNL     1      47.066 -22.898 -41.554  0.00  0.00    +0.079 C 
ATOM     20  O   UNL     1      47.067 -21.988 -40.464  0.00  0.00    -0.491 OA
ENDBRANCH   1  20
BRANCH  10  21
ATOM     21  O   UNL     1      45.368 -19.037 -34.348  0.00  0.00    -0.388 OA
ATOM     22  H   UNL     1      45.897 -19.806 -34.081  0.00  0.00    +0.000 HD
ENDBRANCH  10  21
BRANCH  16  23
ATOM     23  C   UNL     1      44.912 -14.729 -41.644  0.00  0.00    -0.001 C 
BRANCH  23  24
ATOM     24  C   UNL     1      43.839 -13.911 -40.906  0.00  0.00    -0.040 C 
BRANCH  24  25
ATOM     25  C   UNL     1      42.503 -13.914 -41.656  0.00  0.00    -0.052 C 
BRANCH  25  26
ATOM     26  C   UNL     1      41.454 -14.706 -40.874  0.00  0.00    -0.050 C 
BRANCH  26  27
ATOM     27  C   UNL     1      41.605 -14.526 -39.365  0.00  0.00    -0.019 C 
BRANCH  27  28
ATOM     28  C   UNL     1      41.540 -15.872 -38.645  0.00  0.00    +0.089 C 
BRANCH  28  29
ATOM     29  O   UNL     1      40.309 -16.508 -38.989  0.00  0.00    -0.496 OA
BRANCH  29  30
ATOM     30  C   UNL     1      40.295 -17.888 -39.041  0.00  0.00    +0.102 C 
ATOM     31  C   UNL     1      39.210 -18.663 -39.268  0.00  0.00    -0.022 C 
ATOM     32  C   UNL     1      39.312 -20.107 -39.345  0.00  0.00    -0.033 C 
ATOM     33  C   UNL     1      40.494 -20.710 -39.205  0.00  0.00    +0.068 C 
ATOM     34  N   UNL     1      40.771 -22.048 -39.277  0.00  0.00    -0.255 NA
ATOM     35  C   UNL     1      42.055 -22.109 -39.096  0.00  0.00    +0.029 C 
ATOM     36  C   UNL     1      42.741 -20.831 -38.884  0.00  0.00    -0.038 C 
ATOM     37  C   UNL     1      41.713 -19.984 -38.958  0.00  0.00    -0.013 C 
ATOM     38  C   UNL     1      41.679 -18.493 -38.828  0.00  0.00    +0.032 C 
ENDBRANCH  29  30
ENDBRANCH  28  29
ENDBRANCH  27  28
ENDBRANCH  26  27
ENDBRANCH  25  26
ENDBRANCH  24  25
ENDBRANCH  23  24
ENDBRANCH  16  23
TORSDOF 10
ENDMDL
