MODEL 1
REMARK VINA RESULT:    -8.527      0.000      0.000
REMARK INTER + INTRA:         -12.351
REMARK INTER:                 -10.521
REMARK INTRA:                  -1.830
REMARK UNBOUND:                -1.830
REMARK  Name = cpd353.pdb
REMARK  4 active torsions:
REMARK  status: ('A' for Active; 'I' for Inactive)
REMARK    1  A    between atoms: C_6  and  C_7
REMARK    2  A    between atoms: C_7  and  N_8
REMARK    3  A    between atoms: C_12  and  C_13
REMARK    4  A    between atoms: C_13  and  N_14
REMARK                            x       y       z     vdW  Elec       q    Type
REMARK                         _______ _______ _______ _____ _____    ______ ____
ROOT
ATOM      1  N   UNL A   1      33.058 -37.066 -32.459  0.00  0.00    -0.349 N 
ATOM      2  C   UNL A   1      31.948 -36.365 -32.795  0.00  0.00    +0.005 A 
ATOM      3  C   UNL A   1      31.915 -34.986 -32.656  0.00  0.00    -0.045 A 
ATOM      4  C   UNL A   1      33.027 -34.327 -32.148  0.00  0.00    -0.054 A 
ATOM      5  C   UNL A   1      34.161 -35.052 -31.775  0.00  0.00    -0.012 A 
ATOM      6  C   UNL A   1      34.148 -36.436 -31.958  0.00  0.00    +0.010 A 
ENDROOT
BRANCH   1   7
ATOM      7  C   UNL A   1      33.056 -38.546 -32.593  0.00  0.00    +0.048 C 
BRANCH   7  13
ATOM      8  F   UNL A   1      33.506 -40.011 -27.965  0.00  0.00    -0.205 F 
ATOM      9  C   UNL A   1      34.040 -39.921 -29.188  0.00  0.00    +0.124 A 
ATOM     10  C   UNL A   1      35.305 -40.437 -29.426  0.00  0.00    -0.026 A 
ATOM     11  C   UNL A   1      35.857 -40.335 -30.701  0.00  0.00    -0.059 A 
ATOM     12  C   UNL A   1      35.136 -39.723 -31.731  0.00  0.00    -0.057 A 
ATOM     13  C   UNL A   1      33.848 -39.212 -31.497  0.00  0.00    -0.025 A 
ATOM     14  C   UNL A   1      33.310 -39.310 -30.204  0.00  0.00    -0.022 A 
ENDBRANCH   7  13
ENDBRANCH   1   7
BRANCH   5  15
ATOM     15  C   UNL A   1      35.375 -34.371 -31.180  0.00  0.00    +0.050 C 
BRANCH  15  16
ATOM     16  N   UNL A   1      36.253 -35.326 -30.512  0.00  0.00    -0.339 N 
ATOM     17  C   UNL A   1      37.518 -35.674 -30.927  0.00  0.00    +0.023 A 
ATOM     18  C   UNL A   1      38.007 -36.624 -30.052  0.00  0.00    -0.019 A 
ATOM     19  C   UNL A   1      37.020 -36.850 -29.058  0.00  0.00    +0.003 A 
ATOM     20  C   UNL A   1      36.953 -37.686 -27.924  0.00  0.00    -0.052 A 
ATOM     21  C   UNL A   1      35.819 -37.658 -27.108  0.00  0.00    -0.061 A 
ATOM     22  C   UNL A   1      34.758 -36.810 -27.406  0.00  0.00    -0.060 A 
ATOM     23  C   UNL A   1      34.797 -35.974 -28.526  0.00  0.00    -0.038 A 
ATOM     24  C   UNL A   1      35.937 -36.012 -29.349  0.00  0.00    +0.050 A 
ATOM     25  C   UNL A   1      39.356 -37.249 -30.200  0.00  0.00    -0.025 C 
ATOM     26  C   UNL A   1      40.251 -36.426 -31.142  0.00  0.00    -0.049 C 
ATOM     27  C   UNL A   1      39.495 -35.984 -32.406  0.00  0.00    -0.047 C 
ATOM     28  C   UNL A   1      38.277 -35.102 -32.078  0.00  0.00    -0.012 C 
ENDBRANCH  15  16
ENDBRANCH   5  15
TORSDOF 4
ENDMDL
MODEL 2
REMARK VINA RESULT:    -8.027      1.142      3.377
REMARK INTER + INTRA:         -11.734
REMARK INTER:                  -9.790
REMARK INTRA:                  -1.943
REMARK UNBOUND:                -1.830
REMARK  Name = cpd353.pdb
REMARK  4 active torsions:
REMARK  status: ('A' for Active; 'I' for Inactive)
REMARK    1  A    between atoms: C_6  and  C_7
REMARK    2  A    between atoms: C_7  and  N_8
REMARK    3  A    between atoms: C_12  and  C_13
REMARK    4  A    between atoms: C_13  and  N_14
REMARK                            x       y       z     vdW  Elec       q    Type
REMARK                         _______ _______ _______ _____ _____    ______ ____
ROOT
ATOM      1  N   UNL A   1      33.515 -37.886 -32.512  0.00  0.00    -0.349 N 
ATOM      2  C   UNL A   1      32.777 -37.217 -33.430  0.00  0.00    +0.005 A 
ATOM      3  C   UNL A   1      32.781 -35.831 -33.467  0.00  0.00    -0.045 A 
ATOM      4  C   UNL A   1      33.538 -35.130 -32.537  0.00  0.00    -0.054 A 
ATOM      5  C   UNL A   1      34.277 -35.818 -31.573  0.00  0.00    -0.012 A 
ATOM      6  C   UNL A   1      34.254 -37.214 -31.596  0.00  0.00    +0.010 A 
ENDROOT
BRANCH   1   7
ATOM      7  C   UNL A   1      33.470 -39.371 -32.479  0.00  0.00    +0.048 C 
BRANCH   7  13
ATOM      8  F   UNL A   1      33.769 -40.466 -27.737  0.00  0.00    -0.205 F 
ATOM      9  C   UNL A   1      34.349 -40.457 -28.943  0.00  0.00    +0.124 A 
ATOM     10  C   UNL A   1      35.633 -40.959 -29.093  0.00  0.00    -0.026 A 
ATOM     11  C   UNL A   1      36.233 -40.942 -30.351  0.00  0.00    -0.059 A 
ATOM     12  C   UNL A   1      35.540 -40.428 -31.451  0.00  0.00    -0.057 A 
ATOM     13  C   UNL A   1      34.233 -39.932 -31.306  0.00  0.00    -0.025 A 
ATOM     14  C   UNL A   1      33.647 -39.943 -30.030  0.00  0.00    -0.022 A 
ENDBRANCH   7  13
ENDBRANCH   1   7
BRANCH   5  15
ATOM     15  C   UNL A   1      35.080 -35.085 -30.519  0.00  0.00    +0.050 C 
BRANCH  15  16
ATOM     16  N   UNL A   1      35.510 -35.981 -29.451  0.00  0.00    -0.339 N 
ATOM     17  C   UNL A   1      34.764 -36.325 -28.348  0.00  0.00    +0.023 A 
ATOM     18  C   UNL A   1      35.528 -37.163 -27.560  0.00  0.00    -0.019 A 
ATOM     19  C   UNL A   1      36.776 -37.354 -28.210  0.00  0.00    +0.003 A 
ATOM     20  C   UNL A   1      37.933 -38.095 -27.897  0.00  0.00    -0.052 A 
ATOM     21  C   UNL A   1      39.016 -38.097 -28.782  0.00  0.00    -0.061 A 
ATOM     22  C   UNL A   1      38.956 -37.376 -29.969  0.00  0.00    -0.060 A 
ATOM     23  C   UNL A   1      37.821 -36.630 -30.302  0.00  0.00    -0.038 A 
ATOM     24  C   UNL A   1      36.738 -36.624 -29.404  0.00  0.00    +0.050 A 
ATOM     25  C   UNL A   1      35.045 -37.728 -26.264  0.00  0.00    -0.025 C 
ATOM     26  C   UNL A   1      33.516 -37.617 -26.145  0.00  0.00    -0.049 C 
ATOM     27  C   UNL A   1      33.007 -36.235 -26.587  0.00  0.00    -0.047 C 
ATOM     28  C   UNL A   1      33.354 -35.931 -28.056  0.00  0.00    -0.012 C 
ENDBRANCH  15  16
ENDBRANCH   5  15
TORSDOF 4
ENDMDL
MODEL 3
REMARK VINA RESULT:    -7.545      2.699      6.391
REMARK INTER + INTRA:         -11.139
REMARK INTER:                 -10.344
REMARK INTRA:                  -0.794
REMARK UNBOUND:                -1.830
REMARK  Name = cpd353.pdb
REMARK  4 active torsions:
REMARK  status: ('A' for Active; 'I' for Inactive)
REMARK    1  A    between atoms: C_6  and  C_7
REMARK    2  A    between atoms: C_7  and  N_8
REMARK    3  A    between atoms: C_12  and  C_13
REMARK    4  A    between atoms: C_13  and  N_14
REMARK                            x       y       z     vdW  Elec       q    Type
REMARK                         _______ _______ _______ _____ _____    ______ ____
ROOT
ATOM      1  N   UNL A   1      37.586 -38.646 -29.040  0.00  0.00    -0.349 N 
ATOM      2  C   UNL A   1      37.338 -39.948 -28.759  0.00  0.00    +0.005 A 
ATOM      3  C   UNL A   1      36.182 -40.561 -29.217  0.00  0.00    -0.045 A 
ATOM      4  C   UNL A   1      35.265 -39.821 -29.952  0.00  0.00    -0.054 A 
ATOM      5  C   UNL A   1      35.507 -38.471 -30.218  0.00  0.00    -0.012 A 
ATOM      6  C   UNL A   1      36.698 -37.911 -29.752  0.00  0.00    +0.010 A 
ENDROOT
BRANCH   1   7
ATOM      7  C   UNL A   1      38.820 -38.007 -28.513  0.00  0.00    +0.048 C 
BRANCH   7  13
ATOM      8  F   UNL A   1      39.997 -35.729 -32.660  0.00  0.00    -0.205 F 
ATOM      9  C   UNL A   1      40.358 -36.559 -31.675  0.00  0.00    +0.124 A 
ATOM     10  C   UNL A   1      41.625 -37.123 -31.679  0.00  0.00    -0.026 A 
ATOM     11  C   UNL A   1      41.991 -37.992 -30.653  0.00  0.00    -0.059 A 
ATOM     12  C   UNL A   1      41.088 -38.284 -29.625  0.00  0.00    -0.057 A 
ATOM     13  C   UNL A   1      39.809 -37.703 -29.610  0.00  0.00    -0.025 A 
ATOM     14  C   UNL A   1      39.449 -36.840 -30.658  0.00  0.00    -0.022 A 
ENDBRANCH   7  13
ENDBRANCH   1   7
BRANCH   5  15
ATOM     15  C   UNL A   1      34.511 -37.624 -30.981  0.00  0.00    +0.050 C 
BRANCH  15  16
ATOM     16  N   UNL A   1      34.039 -36.498 -30.181  0.00  0.00    -0.339 N 
ATOM     17  C   UNL A   1      33.086 -36.565 -29.192  0.00  0.00    +0.023 A 
ATOM     18  C   UNL A   1      32.896 -35.289 -28.697  0.00  0.00    -0.019 A 
ATOM     19  C   UNL A   1      33.775 -34.417 -29.391  0.00  0.00    +0.003 A 
ATOM     20  C   UNL A   1      34.030 -33.033 -29.319  0.00  0.00    -0.052 A 
ATOM     21  C   UNL A   1      35.003 -32.463 -30.145  0.00  0.00    -0.061 A 
ATOM     22  C   UNL A   1      35.722 -33.253 -31.034  0.00  0.00    -0.060 A 
ATOM     23  C   UNL A   1      35.486 -34.628 -31.129  0.00  0.00    -0.038 A 
ATOM     24  C   UNL A   1      34.500 -35.195 -30.301  0.00  0.00    +0.050 A 
ATOM     25  C   UNL A   1      31.915 -34.974 -27.614  0.00  0.00    -0.025 C 
ATOM     26  C   UNL A   1      31.489 -36.246 -26.862  0.00  0.00    -0.049 C 
ATOM     27  C   UNL A   1      31.183 -37.404 -27.826  0.00  0.00    -0.047 C 
ATOM     28  C   UNL A   1      32.405 -37.790 -28.679  0.00  0.00    -0.012 C 
ENDBRANCH  15  16
ENDBRANCH   5  15
TORSDOF 4
ENDMDL
MODEL 4
REMARK VINA RESULT:    -7.452     18.348     20.445
REMARK INTER + INTRA:         -11.024
REMARK INTER:                  -9.771
REMARK INTRA:                  -1.253
REMARK UNBOUND:                -1.830
REMARK  Name = cpd353.pdb
REMARK  4 active torsions:
REMARK  status: ('A' for Active; 'I' for Inactive)
REMARK    1  A    between atoms: C_6  and  C_7
REMARK    2  A    between atoms: C_7  and  N_8
REMARK    3  A    between atoms: C_12  and  C_13
REMARK    4  A    between atoms: C_13  and  N_14
REMARK                            x       y       z     vdW  Elec       q    Type
REMARK                         _______ _______ _______ _____ _____    ______ ____
ROOT
ATOM      1  N   UNL A   1      43.422 -20.926 -41.409  0.00  0.00    -0.349 N 
ATOM      2  C   UNL A   1      42.427 -21.843 -41.440  0.00  0.00    +0.005 A 
ATOM      3  C   UNL A   1      41.388 -21.791 -40.523  0.00  0.00    -0.045 A 
ATOM      4  C   UNL A   1      41.387 -20.796 -39.554  0.00  0.00    -0.054 A 
ATOM      5  C   UNL A   1      42.428 -19.865 -39.504  0.00  0.00    -0.012 A 
ATOM      6  C   UNL A   1      43.436 -19.952 -40.466  0.00  0.00    +0.010 A 
ENDROOT
BRANCH   1   7
ATOM      7  C   UNL A   1      44.537 -21.022 -42.387  0.00  0.00    +0.048 C 
BRANCH   7  13
ATOM      8  F   UNL A   1      47.902 -24.533 -42.735  0.00  0.00    -0.205 F 
ATOM      9  C   UNL A   1      47.373 -23.529 -42.028  0.00  0.00    +0.124 A 
ATOM     10  C   UNL A   1      47.916 -23.194 -40.796  0.00  0.00    -0.026 A 
ATOM     11  C   UNL A   1      47.357 -22.150 -40.062  0.00  0.00    -0.059 A 
ATOM     12  C   UNL A   1      46.262 -21.443 -40.569  0.00  0.00    -0.057 A 
ATOM     13  C   UNL A   1      45.719 -21.770 -41.824  0.00  0.00    -0.025 A 
ATOM     14  C   UNL A   1      46.284 -22.833 -42.546  0.00  0.00    -0.022 A 
ENDBRANCH   7  13
ENDBRANCH   1   7
BRANCH   5  15
ATOM     15  C   UNL A   1      42.480 -18.793 -38.437  0.00  0.00    +0.050 C 
BRANCH  15  16
ATOM     16  N   UNL A   1      42.856 -19.345 -37.139  0.00  0.00    -0.339 N 
ATOM     17  C   UNL A   1      44.143 -19.582 -36.715  0.00  0.00    +0.023 A 
ATOM     18  C   UNL A   1      44.080 -20.133 -35.450  0.00  0.00    -0.019 A 
ATOM     19  C   UNL A   1      42.713 -20.218 -35.079  0.00  0.00    +0.003 A 
ATOM     20  C   UNL A   1      42.043 -20.679 -33.928  0.00  0.00    -0.052 A 
ATOM     21  C   UNL A   1      40.649 -20.603 -33.859  0.00  0.00    -0.061 A 
ATOM     22  C   UNL A   1      39.920 -20.073 -34.917  0.00  0.00    -0.060 A 
ATOM     23  C   UNL A   1      40.559 -19.612 -36.072  0.00  0.00    -0.038 A 
ATOM     24  C   UNL A   1      41.962 -19.699 -36.140  0.00  0.00    +0.050 A 
ATOM     25  C   UNL A   1      45.293 -20.537 -34.677  0.00  0.00    -0.025 C 
ATOM     26  C   UNL A   1      46.563 -19.891 -35.256  0.00  0.00    -0.049 C 
ATOM     27  C   UNL A   1      46.599 -19.978 -36.791  0.00  0.00    -0.047 C 
ATOM     28  C   UNL A   1      45.405 -19.256 -37.442  0.00  0.00    -0.012 C 
ENDBRANCH  15  16
ENDBRANCH   5  15
TORSDOF 4
ENDMDL
MODEL 5
REMARK VINA RESULT:    -7.276      2.408      6.128
REMARK INTER + INTRA:         -10.807
REMARK INTER:                  -9.818
REMARK INTRA:                  -0.990
REMARK UNBOUND:                -1.830
REMARK  Name = cpd353.pdb
REMARK  4 active torsions:
REMARK  status: ('A' for Active; 'I' for Inactive)
REMARK    1  A    between atoms: C_6  and  C_7
REMARK    2  A    between atoms: C_7  and  N_8
REMARK    3  A    between atoms: C_12  and  C_13
REMARK    4  A    between atoms: C_13  and  N_14
REMARK                            x       y       z     vdW  Elec       q    Type
REMARK                         _______ _______ _______ _____ _____    ______ ____
ROOT
ATOM      1  N   UNL A   1      37.200 -38.742 -28.741  0.00  0.00    -0.349 N 
ATOM      2  C   UNL A   1      37.160 -40.095 -28.785  0.00  0.00    +0.005 A 
ATOM      3  C   UNL A   1      35.953 -40.762 -28.927  0.00  0.00    -0.045 A 
ATOM      4  C   UNL A   1      34.776 -40.028 -29.003  0.00  0.00    -0.054 A 
ATOM      5  C   UNL A   1      34.814 -38.634 -28.930  0.00  0.00    -0.012 A 
ATOM      6  C   UNL A   1      36.059 -38.014 -28.810  0.00  0.00    +0.010 A 
ENDROOT
BRANCH   1   7
ATOM      7  C   UNL A   1      38.505 -38.054 -28.562  0.00  0.00    +0.048 C 
BRANCH   7  13
ATOM      8  F   UNL A   1      41.946 -36.840 -31.796  0.00  0.00    -0.205 F 
ATOM      9  C   UNL A   1      40.673 -36.741 -31.396  0.00  0.00    +0.124 A 
ATOM     10  C   UNL A   1      39.778 -35.977 -32.131  0.00  0.00    -0.026 A 
ATOM     11  C   UNL A   1      38.456 -35.873 -31.704  0.00  0.00    -0.059 A 
ATOM     12  C   UNL A   1      38.036 -36.541 -30.550  0.00  0.00    -0.057 A 
ATOM     13  C   UNL A   1      38.936 -37.328 -29.812  0.00  0.00    -0.025 A 
ATOM     14  C   UNL A   1      40.270 -37.412 -30.245  0.00  0.00    -0.022 A 
ENDBRANCH   7  13
ENDBRANCH   1   7
BRANCH   5  15
ATOM     15  C   UNL A   1      33.547 -37.806 -28.968  0.00  0.00    +0.050 C 
BRANCH  15  16
ATOM     16  N   UNL A   1      33.507 -36.940 -30.142  0.00  0.00    -0.339 N 
ATOM     17  C   UNL A   1      33.088 -37.314 -31.397  0.00  0.00    +0.023 A 
ATOM     18  C   UNL A   1      33.229 -36.226 -32.236  0.00  0.00    -0.019 A 
ATOM     19  C   UNL A   1      33.732 -35.144 -31.466  0.00  0.00    +0.003 A 
ATOM     20  C   UNL A   1      34.064 -33.808 -31.766  0.00  0.00    -0.052 A 
ATOM     21  C   UNL A   1      34.524 -32.963 -30.751  0.00  0.00    -0.061 A 
ATOM     22  C   UNL A   1      34.653 -33.433 -29.449  0.00  0.00    -0.060 A 
ATOM     23  C   UNL A   1      34.333 -34.755 -29.125  0.00  0.00    -0.038 A 
ATOM     24  C   UNL A   1      33.878 -35.603 -30.151  0.00  0.00    +0.050 A 
ATOM     25  C   UNL A   1      32.884 -36.268 -33.689  0.00  0.00    -0.025 C 
ATOM     26  C   UNL A   1      31.989 -37.476 -34.014  0.00  0.00    -0.049 C 
ATOM     27  C   UNL A   1      32.494 -38.760 -33.334  0.00  0.00    -0.047 C 
ATOM     28  C   UNL A   1      32.519 -38.634 -31.800  0.00  0.00    -0.012 C 
ENDBRANCH  15  16
ENDBRANCH   5  15
TORSDOF 4
ENDMDL
MODEL 6
REMARK VINA RESULT:    -7.044     16.738     19.521
REMARK INTER + INTRA:         -10.521
REMARK INTER:                  -9.451
REMARK INTRA:                  -1.070
REMARK UNBOUND:                -1.830
REMARK  Name = cpd353.pdb
REMARK  4 active torsions:
REMARK  status: ('A' for Active; 'I' for Inactive)
REMARK    1  A    between atoms: C_6  and  C_7
REMARK    2  A    between atoms: C_7  and  N_8
REMARK    3  A    between atoms: C_12  and  C_13
REMARK    4  A    between atoms: C_13  and  N_14
REMARK                            x       y       z     vdW  Elec       q    Type
REMARK                         _______ _______ _______ _____ _____    ______ ____
ROOT
ATOM      1  N   UNL A   1      42.393 -20.594 -39.001  0.00  0.00    -0.349 N 
ATOM      2  C   UNL A   1      41.289 -20.795 -39.759  0.00  0.00    +0.005 A 
ATOM      3  C   UNL A   1      40.196 -21.479 -39.248  0.00  0.00    -0.045 A 
ATOM      4  C   UNL A   1      40.252 -21.977 -37.953  0.00  0.00    -0.054 A 
ATOM      5  C   UNL A   1      41.401 -21.794 -37.181  0.00  0.00    -0.012 A 
ATOM      6  C   UNL A   1      42.462 -21.078 -37.738  0.00  0.00    +0.010 A 
ENDROOT
BRANCH   1   7
ATOM      7  C   UNL A   1      43.559 -19.880 -39.584  0.00  0.00    +0.048 C 
BRANCH   7  13
ATOM      8  F   UNL A   1      47.053 -23.173 -40.437  0.00  0.00    -0.205 F 
ATOM      9  C   UNL A   1      46.086 -22.387 -40.923  0.00  0.00    +0.124 A 
ATOM     10  C   UNL A   1      45.818 -22.386 -42.284  0.00  0.00    -0.026 A 
ATOM     11  C   UNL A   1      44.813 -21.560 -42.783  0.00  0.00    -0.059 A 
ATOM     12  C   UNL A   1      44.079 -20.745 -41.916  0.00  0.00    -0.057 A 
ATOM     13  C   UNL A   1      44.337 -20.754 -40.535  0.00  0.00    -0.025 A 
ATOM     14  C   UNL A   1      45.363 -21.581 -40.047  0.00  0.00    -0.022 A 
ENDBRANCH   7  13
ENDBRANCH   1   7
BRANCH   5  15
ATOM     15  C   UNL A   1      41.511 -22.359 -35.781  0.00  0.00    +0.050 C 
BRANCH  15  16
ATOM     16  N   UNL A   1      41.183 -21.359 -34.770  0.00  0.00    -0.339 N 
ATOM     17  C   UNL A   1      39.932 -21.136 -34.243  0.00  0.00    +0.023 A 
ATOM     18  C   UNL A   1      40.028 -20.091 -33.344  0.00  0.00    -0.019 A 
ATOM     19  C   UNL A   1      41.384 -19.673 -33.306  0.00  0.00    +0.003 A 
ATOM     20  C   UNL A   1      42.074 -18.677 -32.587  0.00  0.00    -0.052 A 
ATOM     21  C   UNL A   1      43.454 -18.528 -32.758  0.00  0.00    -0.061 A 
ATOM     22  C   UNL A   1      44.148 -19.360 -33.630  0.00  0.00    -0.060 A 
ATOM     23  C   UNL A   1      43.487 -20.354 -34.358  0.00  0.00    -0.038 A 
ATOM     24  C   UNL A   1      42.097 -20.493 -34.188  0.00  0.00    +0.050 A 
ATOM     25  C   UNL A   1      38.855 -19.560 -32.586  0.00  0.00    -0.025 C 
ATOM     26  C   UNL A   1      37.683 -20.556 -32.604  0.00  0.00    -0.049 C 
ATOM     27  C   UNL A   1      37.455 -21.143 -34.006  0.00  0.00    -0.047 C 
ATOM     28  C   UNL A   1      38.686 -21.909 -34.524  0.00  0.00    -0.012 C 
ENDBRANCH  15  16
ENDBRANCH   5  15
TORSDOF 4
ENDMDL
MODEL 7
REMARK VINA RESULT:    -6.963     17.172     20.545
REMARK INTER + INTRA:         -10.421
REMARK INTER:                  -8.918
REMARK INTRA:                  -1.503
REMARK UNBOUND:                -1.830
REMARK  Name = cpd353.pdb
REMARK  4 active torsions:
REMARK  status: ('A' for Active; 'I' for Inactive)
REMARK    1  A    between atoms: C_6  and  C_7
REMARK    2  A    between atoms: C_7  and  N_8
REMARK    3  A    between atoms: C_12  and  C_13
REMARK    4  A    between atoms: C_13  and  N_14
REMARK                            x       y       z     vdW  Elec       q    Type
REMARK                         _______ _______ _______ _____ _____    ______ ____
ROOT
ATOM      1  N   UNL A   1      46.297 -19.529 -37.068  0.00  0.00    -0.349 N 
ATOM      2  C   UNL A   1      46.878 -19.951 -35.919  0.00  0.00    +0.005 A 
ATOM      3  C   UNL A   1      46.129 -20.098 -34.762  0.00  0.00    -0.045 A 
ATOM      4  C   UNL A   1      44.776 -19.789 -34.784  0.00  0.00    -0.054 A 
ATOM      5  C   UNL A   1      44.182 -19.327 -35.961  0.00  0.00    -0.012 A 
ATOM      6  C   UNL A   1      44.978 -19.219 -37.103  0.00  0.00    +0.010 A 
ENDROOT
BRANCH   1   7
ATOM      7  C   UNL A   1      47.129 -19.354 -38.287  0.00  0.00    +0.048 C 
BRANCH   7  13
ATOM      8  F   UNL A   1      45.189 -19.714 -42.745  0.00  0.00    -0.205 F 
ATOM      9  C   UNL A   1      45.655 -20.330 -41.653  0.00  0.00    +0.124 A 
ATOM     10  C   UNL A   1      45.667 -21.716 -41.596  0.00  0.00    -0.026 A 
ATOM     11  C   UNL A   1      46.149 -22.350 -40.454  0.00  0.00    -0.059 A 
ATOM     12  C   UNL A   1      46.623 -21.593 -39.377  0.00  0.00    -0.057 A 
ATOM     13  C   UNL A   1      46.626 -20.189 -39.437  0.00  0.00    -0.025 A 
ATOM     14  C   UNL A   1      46.124 -19.563 -40.590  0.00  0.00    -0.022 A 
ENDBRANCH   7  13
ENDBRANCH   1   7
BRANCH   5  15
ATOM     15  C   UNL A   1      42.719 -18.941 -36.010  0.00  0.00    +0.050 C 
BRANCH  15  16
ATOM     16  N   UNL A   1      41.867 -20.097 -36.273  0.00  0.00    -0.339 N 
ATOM     17  C   UNL A   1      41.145 -20.788 -35.328  0.00  0.00    +0.023 A 
ATOM     18  C   UNL A   1      40.496 -21.828 -35.965  0.00  0.00    -0.019 A 
ATOM     19  C   UNL A   1      40.816 -21.761 -37.346  0.00  0.00    +0.003 A 
ATOM     20  C   UNL A   1      40.453 -22.533 -38.467  0.00  0.00    -0.052 A 
ATOM     21  C   UNL A   1      40.929 -22.183 -39.734  0.00  0.00    -0.061 A 
ATOM     22  C   UNL A   1      41.755 -21.076 -39.895  0.00  0.00    -0.060 A 
ATOM     23  C   UNL A   1      42.132 -20.294 -38.798  0.00  0.00    -0.038 A 
ATOM     24  C   UNL A   1      41.657 -20.656 -37.524  0.00  0.00    +0.050 A 
ATOM     25  C   UNL A   1      39.625 -22.806 -35.245  0.00  0.00    -0.025 C 
ATOM     26  C   UNL A   1      39.215 -22.274 -33.862  0.00  0.00    -0.049 C 
ATOM     27  C   UNL A   1      40.406 -21.651 -33.114  0.00  0.00    -0.047 C 
ATOM     28  C   UNL A   1      41.014 -20.460 -33.878  0.00  0.00    -0.012 C 
ENDBRANCH  15  16
ENDBRANCH   5  15
TORSDOF 4
ENDMDL
MODEL 8
REMARK VINA RESULT:    -6.959     16.718     19.961
REMARK INTER + INTRA:         -10.416
REMARK INTER:                  -9.247
REMARK INTRA:                  -1.169
REMARK UNBOUND:                -1.830
REMARK  Name = cpd353.pdb
REMARK  4 active torsions:
REMARK  status: ('A' for Active; 'I' for Inactive)
REMARK    1  A    between atoms: C_6  and  C_7
REMARK    2  A    between atoms: C_7  and  N_8
REMARK    3  A    between atoms: C_12  and  C_13
REMARK    4  A    between atoms: C_13  and  N_14
REMARK                            x       y       z     vdW  Elec       q    Type
REMARK                         _______ _______ _______ _____ _____    ______ ____
ROOT
ATOM      1  N   UNL A   1      44.126 -20.098 -38.710  0.00  0.00    -0.349 N 
ATOM      2  C   UNL A   1      44.648 -19.761 -37.507  0.00  0.00    +0.005 A 
ATOM      3  C   UNL A   1      44.046 -20.184 -36.332  0.00  0.00    -0.045 A 
ATOM      4  C   UNL A   1      42.885 -20.943 -36.399  0.00  0.00    -0.054 A 
ATOM      5  C   UNL A   1      42.331 -21.268 -37.639  0.00  0.00    -0.012 A 
ATOM      6  C   UNL A   1      42.992 -20.835 -38.790  0.00  0.00    +0.010 A 
ENDROOT
BRANCH   1   7
ATOM      7  C   UNL A   1      44.778 -19.609 -39.954  0.00  0.00    +0.048 C 
BRANCH   7  13
ATOM      8  F   UNL A   1      47.671 -23.468 -40.667  0.00  0.00    -0.205 F 
ATOM      9  C   UNL A   1      46.722 -22.653 -41.142  0.00  0.00    +0.124 A 
ATOM     10  C   UNL A   1      46.207 -22.861 -42.413  0.00  0.00    -0.026 A 
ATOM     11  C   UNL A   1      45.224 -22.004 -42.902  0.00  0.00    -0.059 A 
ATOM     12  C   UNL A   1      44.757 -20.948 -42.113  0.00  0.00    -0.057 A 
ATOM     13  C   UNL A   1      45.265 -20.743 -40.819  0.00  0.00    -0.025 A 
ATOM     14  C   UNL A   1      46.267 -21.606 -40.344  0.00  0.00    -0.022 A 
ENDBRANCH   7  13
ENDBRANCH   1   7
BRANCH   5  15
ATOM     15  C   UNL A   1      41.045 -22.059 -37.748  0.00  0.00    +0.050 C 
BRANCH  15  16
ATOM     16  N   UNL A   1      39.955 -21.414 -37.023  0.00  0.00    -0.339 N 
ATOM     17  C   UNL A   1      39.446 -21.827 -35.813  0.00  0.00    +0.023 A 
ATOM     18  C   UNL A   1      38.408 -20.979 -35.476  0.00  0.00    -0.019 A 
ATOM     19  C   UNL A   1      38.290 -20.005 -36.501  0.00  0.00    +0.003 A 
ATOM     20  C   UNL A   1      37.436 -18.903 -36.703  0.00  0.00    -0.052 A 
ATOM     21  C   UNL A   1      37.596 -18.099 -37.836  0.00  0.00    -0.061 A 
ATOM     22  C   UNL A   1      38.594 -18.379 -38.763  0.00  0.00    -0.060 A 
ATOM     23  C   UNL A   1      39.452 -19.469 -38.588  0.00  0.00    -0.038 A 
ATOM     24  C   UNL A   1      39.282 -20.279 -37.451  0.00  0.00    +0.050 A 
ATOM     25  C   UNL A   1      37.605 -21.134 -34.225  0.00  0.00    -0.025 C 
ATOM     26  C   UNL A   1      38.325 -22.036 -33.209  0.00  0.00    -0.049 C 
ATOM     27  C   UNL A   1      38.910 -23.293 -33.875  0.00  0.00    -0.047 C 
ATOM     28  C   UNL A   1      39.944 -22.947 -34.962  0.00  0.00    -0.012 C 
ENDBRANCH  15  16
ENDBRANCH   5  15
TORSDOF 4
ENDMDL
MODEL 9
REMARK VINA RESULT:    -6.944     17.039     20.236
REMARK INTER + INTRA:         -10.397
REMARK INTER:                  -8.891
REMARK INTRA:                  -1.506
REMARK UNBOUND:                -1.830
REMARK  Name = cpd353.pdb
REMARK  4 active torsions:
REMARK  status: ('A' for Active; 'I' for Inactive)
REMARK    1  A    between atoms: C_6  and  C_7
REMARK    2  A    between atoms: C_7  and  N_8
REMARK    3  A    between atoms: C_12  and  C_13
REMARK    4  A    between atoms: C_13  and  N_14
REMARK                            x       y       z     vdW  Elec       q    Type
REMARK                         _______ _______ _______ _____ _____    ______ ____
ROOT
ATOM      1  N   UNL A   1      46.258 -19.717 -37.159  0.00  0.00    -0.349 N 
ATOM      2  C   UNL A   1      46.879 -20.104 -36.019  0.00  0.00    +0.005 A 
ATOM      3  C   UNL A   1      46.162 -20.259 -34.842  0.00  0.00    -0.045 A 
ATOM      4  C   UNL A   1      44.799 -19.993 -34.837  0.00  0.00    -0.054 A 
ATOM      5  C   UNL A   1      44.164 -19.567 -36.005  0.00  0.00    -0.012 A 
ATOM      6  C   UNL A   1      44.930 -19.449 -37.167  0.00  0.00    +0.010 A 
ENDROOT
BRANCH   1   7
ATOM      7  C   UNL A   1      47.056 -19.532 -38.399  0.00  0.00    +0.048 C 
BRANCH   7  13
ATOM      8  F   UNL A   1      44.782 -19.248 -42.703  0.00  0.00    -0.205 F 
ATOM      9  C   UNL A   1      45.275 -20.015 -41.724  0.00  0.00    +0.124 A 
ATOM     10  C   UNL A   1      45.182 -21.396 -41.818  0.00  0.00    -0.026 A 
ATOM     11  C   UNL A   1      45.693 -22.188 -40.791  0.00  0.00    -0.059 A 
ATOM     12  C   UNL A   1      46.299 -21.592 -39.681  0.00  0.00    -0.057 A 
ATOM     13  C   UNL A   1      46.409 -20.194 -39.589  0.00  0.00    -0.025 A 
ATOM     14  C   UNL A   1      45.877 -19.408 -40.625  0.00  0.00    -0.022 A 
ENDBRANCH   7  13
ENDBRANCH   1   7
BRANCH   5  15
ATOM     15  C   UNL A   1      42.688 -19.228 -36.025  0.00  0.00    +0.050 C 
BRANCH  15  16
ATOM     16  N   UNL A   1      41.872 -20.401 -36.323  0.00  0.00    -0.339 N 
ATOM     17  C   UNL A   1      41.614 -20.896 -37.580  0.00  0.00    +0.023 A 
ATOM     18  C   UNL A   1      40.782 -21.990 -37.445  0.00  0.00    -0.019 A 
ATOM     19  C   UNL A   1      40.538 -22.183 -36.060  0.00  0.00    +0.003 A 
ATOM     20  C   UNL A   1      39.786 -23.123 -35.326  0.00  0.00    -0.052 A 
ATOM     21  C   UNL A   1      39.767 -23.057 -33.930  0.00  0.00    -0.061 A 
ATOM     22  C   UNL A   1      40.487 -22.073 -33.261  0.00  0.00    -0.060 A 
ATOM     23  C   UNL A   1      41.238 -21.127 -33.965  0.00  0.00    -0.038 A 
ATOM     24  C   UNL A   1      41.247 -21.192 -35.371  0.00  0.00    +0.050 A 
ATOM     25  C   UNL A   1      40.277 -22.777 -38.610  0.00  0.00    -0.025 C 
ATOM     26  C   UNL A   1      41.109 -22.498 -39.873  0.00  0.00    -0.049 C 
ATOM     27  C   UNL A   1      41.383 -20.996 -40.056  0.00  0.00    -0.047 C 
ATOM     28  C   UNL A   1      42.169 -20.400 -38.874  0.00  0.00    -0.012 C 
ENDBRANCH  15  16
ENDBRANCH   5  15
TORSDOF 4
ENDMDL
MODEL 10
REMARK VINA RESULT:    -6.902     16.654     19.638
REMARK INTER + INTRA:         -10.346
REMARK INTER:                  -9.311
REMARK INTRA:                  -1.035
REMARK UNBOUND:                -1.830
REMARK  Name = cpd353.pdb
REMARK  4 active torsions:
REMARK  status: ('A' for Active; 'I' for Inactive)
REMARK    1  A    between atoms: C_6  and  C_7
REMARK    2  A    between atoms: C_7  and  N_8
REMARK    3  A    between atoms: C_12  and  C_13
REMARK    4  A    between atoms: C_13  and  N_14
REMARK                            x       y       z     vdW  Elec       q    Type
REMARK                         _______ _______ _______ _____ _____    ______ ____
ROOT
ATOM      1  N   UNL A   1      43.208 -20.917 -39.899  0.00  0.00    -0.349 N 
ATOM      2  C   UNL A   1      42.241 -21.661 -40.488  0.00  0.00    +0.005 A 
ATOM      3  C   UNL A   1      41.235 -22.240 -39.732  0.00  0.00    -0.045 A 
ATOM      4  C   UNL A   1      41.236 -22.068 -38.353  0.00  0.00    -0.054 A 
ATOM      5  C   UNL A   1      42.248 -21.324 -37.741  0.00  0.00    -0.012 A 
ATOM      6  C   UNL A   1      43.224 -20.745 -38.555  0.00  0.00    +0.010 A 
ENDROOT
BRANCH   1   7
ATOM      7  C   UNL A   1      44.289 -20.330 -40.732  0.00  0.00    +0.048 C 
BRANCH   7  13
ATOM      8  F   UNL A   1      48.287 -22.875 -39.583  0.00  0.00    -0.205 F 
ATOM      9  C   UNL A   1      47.337 -22.591 -40.481  0.00  0.00    +0.124 A 
ATOM     10  C   UNL A   1      47.339 -23.230 -41.712  0.00  0.00    -0.026 A 
ATOM     11  C   UNL A   1      46.350 -22.925 -42.644  0.00  0.00    -0.059 A 
ATOM     12  C   UNL A   1      45.360 -21.986 -42.335  0.00  0.00    -0.057 A 
ATOM     13  C   UNL A   1      45.345 -21.347 -41.083  0.00  0.00    -0.025 A 
ATOM     14  C   UNL A   1      46.357 -21.655 -40.159  0.00  0.00    -0.022 A 
ENDBRANCH   7  13
ENDBRANCH   1   7
BRANCH   5  15
ATOM     15  C   UNL A   1      42.304 -21.151 -36.239  0.00  0.00    +0.050 C 
BRANCH  15  16
ATOM     16  N   UNL A   1      41.016 -20.727 -35.699  0.00  0.00    -0.339 N 
ATOM     17  C   UNL A   1      40.499 -19.455 -35.771  0.00  0.00    +0.023 A 
ATOM     18  C   UNL A   1      39.281 -19.451 -35.119  0.00  0.00    -0.019 A 
ATOM     19  C   UNL A   1      39.034 -20.768 -34.651  0.00  0.00    +0.003 A 
ATOM     20  C   UNL A   1      37.975 -21.364 -33.938  0.00  0.00    -0.052 A 
ATOM     21  C   UNL A   1      38.020 -22.730 -33.642  0.00  0.00    -0.061 A 
ATOM     22  C   UNL A   1      39.102 -23.503 -34.049  0.00  0.00    -0.060 A 
ATOM     23  C   UNL A   1      40.167 -22.936 -34.755  0.00  0.00    -0.038 A 
ATOM     24  C   UNL A   1      40.121 -21.559 -35.043  0.00  0.00    +0.050 A 
ATOM     25  C   UNL A   1      38.435 -18.227 -34.983  0.00  0.00    -0.025 C 
ATOM     26  C   UNL A   1      38.862 -17.140 -35.983  0.00  0.00    -0.049 C 
ATOM     27  C   UNL A   1      40.391 -16.982 -36.036  0.00  0.00    -0.047 C 
ATOM     28  C   UNL A   1      41.095 -18.280 -36.473  0.00  0.00    -0.012 C 
ENDBRANCH  15  16
ENDBRANCH   5  15
TORSDOF 4
ENDMDL
MODEL 11
REMARK VINA RESULT:    -6.838     19.450     21.352
REMARK INTER + INTRA:         -10.267
REMARK INTER:                  -9.015
REMARK INTRA:                  -1.252
REMARK UNBOUND:                -1.830
REMARK  Name = cpd353.pdb
REMARK  4 active torsions:
REMARK  status: ('A' for Active; 'I' for Inactive)
REMARK    1  A    between atoms: C_6  and  C_7
REMARK    2  A    between atoms: C_7  and  N_8
REMARK    3  A    between atoms: C_12  and  C_13
REMARK    4  A    between atoms: C_13  and  N_14
REMARK                            x       y       z     vdW  Elec       q    Type
REMARK                         _______ _______ _______ _____ _____    ______ ____
ROOT
ATOM      1  N   UNL A   1      43.559 -20.610 -40.623  0.00  0.00    -0.349 N 
ATOM      2  C   UNL A   1      42.712 -21.610 -40.281  0.00  0.00    +0.005 A 
ATOM      3  C   UNL A   1      41.869 -21.480 -39.188  0.00  0.00    -0.045 A 
ATOM      4  C   UNL A   1      41.915 -20.317 -38.430  0.00  0.00    -0.054 A 
ATOM      5  C   UNL A   1      42.807 -19.296 -38.766  0.00  0.00    -0.012 A 
ATOM      6  C   UNL A   1      43.617 -19.472 -39.890  0.00  0.00    +0.010 A 
ENDROOT
BRANCH   1   7
ATOM      7  C   UNL A   1      44.470 -20.788 -41.783  0.00  0.00    +0.048 C 
BRANCH   7  13
ATOM      8  F   UNL A   1      47.622 -24.386 -42.728  0.00  0.00    -0.205 F 
ATOM      9  C   UNL A   1      47.238 -23.392 -41.920  0.00  0.00    +0.124 A 
ATOM     10  C   UNL A   1      47.964 -23.119 -40.770  0.00  0.00    -0.026 A 
ATOM     11  C   UNL A   1      47.554 -22.086 -39.930  0.00  0.00    -0.059 A 
ATOM     12  C   UNL A   1      46.423 -21.328 -40.250  0.00  0.00    -0.057 A 
ATOM     13  C   UNL A   1      45.694 -21.591 -41.422  0.00  0.00    -0.025 A 
ATOM     14  C   UNL A   1      46.111 -22.645 -42.252  0.00  0.00    -0.022 A 
ENDBRANCH   7  13
ENDBRANCH   1   7
BRANCH   5  15
ATOM     15  C   UNL A   1      42.912 -18.034 -37.938  0.00  0.00    +0.050 C 
BRANCH  15  16
ATOM     16  N   UNL A   1      43.643 -18.264 -36.696  0.00  0.00    -0.339 N 
ATOM     17  C   UNL A   1      43.075 -18.439 -35.455  0.00  0.00    +0.023 A 
ATOM     18  C   UNL A   1      44.095 -18.598 -34.538  0.00  0.00    -0.019 A 
ATOM     19  C   UNL A   1      45.327 -18.538 -35.241  0.00  0.00    +0.003 A 
ATOM     20  C   UNL A   1      46.677 -18.640 -34.849  0.00  0.00    -0.052 A 
ATOM     21  C   UNL A   1      47.686 -18.562 -35.813  0.00  0.00    -0.061 A 
ATOM     22  C   UNL A   1      47.366 -18.388 -37.155  0.00  0.00    -0.060 A 
ATOM     23  C   UNL A   1      46.035 -18.281 -37.570  0.00  0.00    -0.038 A 
ATOM     24  C   UNL A   1      45.023 -18.352 -36.595  0.00  0.00    +0.050 A 
ATOM     25  C   UNL A   1      43.852 -18.796 -33.077  0.00  0.00    -0.025 C 
ATOM     26  C   UNL A   1      42.398 -19.218 -32.806  0.00  0.00    -0.049 C 
ATOM     27  C   UNL A   1      41.400 -18.375 -33.616  0.00  0.00    -0.047 C 
ATOM     28  C   UNL A   1      41.619 -18.511 -35.134  0.00  0.00    -0.012 C 
ENDBRANCH  15  16
ENDBRANCH   5  15
TORSDOF 4
ENDMDL
MODEL 12
REMARK VINA RESULT:    -6.835     18.855     21.726
REMARK INTER + INTRA:         -10.263
REMARK INTER:                  -8.672
REMARK INTRA:                  -1.590
REMARK UNBOUND:                -1.830
REMARK  Name = cpd353.pdb
REMARK  4 active torsions:
REMARK  status: ('A' for Active; 'I' for Inactive)
REMARK    1  A    between atoms: C_6  and  C_7
REMARK    2  A    between atoms: C_7  and  N_8
REMARK    3  A    between atoms: C_12  and  C_13
REMARK    4  A    between atoms: C_13  and  N_14
REMARK                            x       y       z     vdW  Elec       q    Type
REMARK                         _______ _______ _______ _____ _____    ______ ____
ROOT
ATOM      1  N   UNL A   1      46.941 -18.038 -39.446  0.00  0.00    -0.349 N 
ATOM      2  C   UNL A   1      46.989 -16.781 -38.944  0.00  0.00    +0.005 A 
ATOM      3  C   UNL A   1      46.742 -16.548 -37.600  0.00  0.00    -0.045 A 
ATOM      4  C   UNL A   1      46.422 -17.617 -36.773  0.00  0.00    -0.054 A 
ATOM      5  C   UNL A   1      46.345 -18.910 -37.296  0.00  0.00    -0.012 A 
ATOM      6  C   UNL A   1      46.626 -19.089 -38.652  0.00  0.00    +0.010 A 
ENDROOT
BRANCH   1   7
ATOM      7  C   UNL A   1      47.185 -18.255 -40.896  0.00  0.00    +0.048 C 
BRANCH   7  13
ATOM      8  F   UNL A   1      46.218 -22.757 -42.499  0.00  0.00    -0.205 F 
ATOM      9  C   UNL A   1      45.788 -21.510 -42.278  0.00  0.00    +0.124 A 
ATOM     10  C   UNL A   1      44.481 -21.167 -42.592  0.00  0.00    -0.026 A 
ATOM     11  C   UNL A   1      44.041 -19.865 -42.364  0.00  0.00    -0.059 A 
ATOM     12  C   UNL A   1      44.911 -18.916 -41.817  0.00  0.00    -0.057 A 
ATOM     13  C   UNL A   1      46.231 -19.264 -41.484  0.00  0.00    -0.025 A 
ATOM     14  C   UNL A   1      46.665 -20.577 -41.732  0.00  0.00    -0.022 A 
ENDBRANCH   7  13
ENDBRANCH   1   7
BRANCH   5  15
ATOM     15  C   UNL A   1      45.959 -20.091 -36.432  0.00  0.00    +0.050 C 
BRANCH  15  16
ATOM     16  N   UNL A   1      44.515 -20.162 -36.232  0.00  0.00    -0.339 N 
ATOM     17  C   UNL A   1      43.605 -20.635 -37.149  0.00  0.00    +0.023 A 
ATOM     18  C   UNL A   1      42.343 -20.509 -36.600  0.00  0.00    -0.019 A 
ATOM     19  C   UNL A   1      42.487 -19.960 -35.299  0.00  0.00    +0.003 A 
ATOM     20  C   UNL A   1      41.575 -19.618 -34.280  0.00  0.00    -0.052 A 
ATOM     21  C   UNL A   1      42.048 -19.107 -33.068  0.00  0.00    -0.061 A 
ATOM     22  C   UNL A   1      43.412 -18.937 -32.860  0.00  0.00    -0.060 A 
ATOM     23  C   UNL A   1      44.338 -19.264 -33.855  0.00  0.00    -0.038 A 
ATOM     24  C   UNL A   1      43.856 -19.771 -35.077  0.00  0.00    +0.050 A 
ATOM     25  C   UNL A   1      41.098 -20.909 -37.322  0.00  0.00    -0.025 C 
ATOM     26  C   UNL A   1      41.415 -21.835 -38.508  0.00  0.00    -0.049 C 
ATOM     27  C   UNL A   1      42.614 -21.324 -39.325  0.00  0.00    -0.047 C 
ATOM     28  C   UNL A   1      43.899 -21.239 -38.481  0.00  0.00    -0.012 C 
ENDBRANCH  15  16
ENDBRANCH   5  15
TORSDOF 4
ENDMDL
MODEL 13
REMARK VINA RESULT:    -6.809     16.514     19.289
REMARK INTER + INTRA:         -10.231
REMARK INTER:                  -8.933
REMARK INTRA:                  -1.298
REMARK UNBOUND:                -1.830
REMARK  Name = cpd353.pdb
REMARK  4 active torsions:
REMARK  status: ('A' for Active; 'I' for Inactive)
REMARK    1  A    between atoms: C_6  and  C_7
REMARK    2  A    between atoms: C_7  and  N_8
REMARK    3  A    between atoms: C_12  and  C_13
REMARK    4  A    between atoms: C_13  and  N_14
REMARK                            x       y       z     vdW  Elec       q    Type
REMARK                         _______ _______ _______ _____ _____    ______ ____
ROOT
ATOM      1  N   UNL A   1      40.030 -20.959 -37.453  0.00  0.00    -0.349 N 
ATOM      2  C   UNL A   1      39.657 -22.080 -38.114  0.00  0.00    +0.005 A 
ATOM      3  C   UNL A   1      40.309 -22.466 -39.275  0.00  0.00    -0.045 A 
ATOM      4  C   UNL A   1      41.340 -21.677 -39.769  0.00  0.00    -0.054 A 
ATOM      5  C   UNL A   1      41.707 -20.506 -39.103  0.00  0.00    -0.012 A 
ATOM      6  C   UNL A   1      41.031 -20.178 -37.926  0.00  0.00    +0.010 A 
ENDROOT
BRANCH   1   7
ATOM      7  C   UNL A   1      39.296 -20.555 -36.225  0.00  0.00    +0.048 C 
BRANCH   7  13
ATOM      8  F   UNL A   1      39.599 -24.138 -32.932  0.00  0.00    -0.205 F 
ATOM      9  C   UNL A   1      40.028 -22.945 -33.360  0.00  0.00    +0.124 A 
ATOM     10  C   UNL A   1      41.020 -22.277 -32.657  0.00  0.00    -0.026 A 
ATOM     11  C   UNL A   1      41.457 -21.033 -33.106  0.00  0.00    -0.059 A 
ATOM     12  C   UNL A   1      40.903 -20.468 -34.259  0.00  0.00    -0.057 A 
ATOM     13  C   UNL A   1      39.909 -21.148 -34.982  0.00  0.00    -0.025 A 
ATOM     14  C   UNL A   1      39.467 -22.395 -34.510  0.00  0.00    -0.022 A 
ENDBRANCH   7  13
ENDBRANCH   1   7
BRANCH   5  15
ATOM     15  C   UNL A   1      42.798 -19.602 -39.636  0.00  0.00    +0.050 C 
BRANCH  15  16
ATOM     16  N   UNL A   1      44.124 -20.078 -39.256  0.00  0.00    -0.339 N 
ATOM     17  C   UNL A   1      44.970 -20.809 -40.057  0.00  0.00    +0.023 A 
ATOM     18  C   UNL A   1      46.109 -21.091 -39.328  0.00  0.00    -0.019 A 
ATOM     19  C   UNL A   1      45.964 -20.499 -38.046  0.00  0.00    +0.003 A 
ATOM     20  C   UNL A   1      46.784 -20.444 -36.901  0.00  0.00    -0.052 A 
ATOM     21  C   UNL A   1      46.354 -19.739 -35.773  0.00  0.00    -0.061 A 
ATOM     22  C   UNL A   1      45.124 -19.089 -35.776  0.00  0.00    -0.060 A 
ATOM     23  C   UNL A   1      44.290 -19.131 -36.897  0.00  0.00    -0.038 A 
ATOM     24  C   UNL A   1      44.724 -19.849 -38.027  0.00  0.00    +0.050 A 
ATOM     25  C   UNL A   1      47.249 -21.888 -39.875  0.00  0.00    -0.025 C 
ATOM     26  C   UNL A   1      47.184 -21.970 -41.410  0.00  0.00    -0.049 C 
ATOM     27  C   UNL A   1      45.761 -22.275 -41.905  0.00  0.00    -0.047 C 
ATOM     28  C   UNL A   1      44.753 -21.191 -41.484  0.00  0.00    -0.012 C 
ENDBRANCH  15  16
ENDBRANCH   5  15
TORSDOF 4
ENDMDL
MODEL 14
REMARK VINA RESULT:    -6.694     18.017     21.295
REMARK INTER + INTRA:         -10.088
REMARK INTER:                  -8.675
REMARK INTRA:                  -1.413
REMARK UNBOUND:                -1.830
REMARK  Name = cpd353.pdb
REMARK  4 active torsions:
REMARK  status: ('A' for Active; 'I' for Inactive)
REMARK    1  A    between atoms: C_6  and  C_7
REMARK    2  A    between atoms: C_7  and  N_8
REMARK    3  A    between atoms: C_12  and  C_13
REMARK    4  A    between atoms: C_13  and  N_14
REMARK                            x       y       z     vdW  Elec       q    Type
REMARK                         _______ _______ _______ _____ _____    ______ ____
ROOT
ATOM      1  N   UNL A   1      45.454 -17.621 -38.882  0.00  0.00    -0.349 N 
ATOM      2  C   UNL A   1      44.855 -16.491 -38.437  0.00  0.00    +0.005 A 
ATOM      3  C   UNL A   1      44.130 -16.494 -37.255  0.00  0.00    -0.045 A 
ATOM      4  C   UNL A   1      44.005 -17.677 -36.538  0.00  0.00    -0.054 A 
ATOM      5  C   UNL A   1      44.599 -18.849 -37.011  0.00  0.00    -0.012 A 
ATOM      6  C   UNL A   1      45.336 -18.783 -38.195  0.00  0.00    +0.010 A 
ENDROOT
BRANCH   1   7
ATOM      7  C   UNL A   1      46.202 -17.595 -40.166  0.00  0.00    +0.048 C 
BRANCH   7  13
ATOM      8  F   UNL A   1      46.765 -21.939 -42.309  0.00  0.00    -0.205 F 
ATOM      9  C   UNL A   1      46.040 -20.824 -42.169  0.00  0.00    +0.124 A 
ATOM     10  C   UNL A   1      44.870 -20.667 -42.898  0.00  0.00    -0.026 A 
ATOM     11  C   UNL A   1      44.123 -19.500 -42.751  0.00  0.00    -0.059 A 
ATOM     12  C   UNL A   1      44.548 -18.500 -41.870  0.00  0.00    -0.057 A 
ATOM     13  C   UNL A   1      45.725 -18.662 -41.119  0.00  0.00    -0.025 A 
ATOM     14  C   UNL A   1      46.475 -19.837 -41.287  0.00  0.00    -0.022 A 
ENDBRANCH   7  13
ENDBRANCH   1   7
BRANCH   5  15
ATOM     15  C   UNL A   1      44.449 -20.164 -36.276  0.00  0.00    +0.050 C 
BRANCH  15  16
ATOM     16  N   UNL A   1      43.109 -20.719 -36.436  0.00  0.00    -0.339 N 
ATOM     17  C   UNL A   1      42.191 -20.896 -35.428  0.00  0.00    +0.023 A 
ATOM     18  C   UNL A   1      41.062 -21.474 -35.974  0.00  0.00    -0.019 A 
ATOM     19  C   UNL A   1      41.288 -21.639 -37.366  0.00  0.00    +0.003 A 
ATOM     20  C   UNL A   1      40.513 -22.157 -38.423  0.00  0.00    -0.052 A 
ATOM     21  C   UNL A   1      41.025 -22.157 -39.724  0.00  0.00    -0.061 A 
ATOM     22  C   UNL A   1      42.293 -21.647 -39.981  0.00  0.00    -0.060 A 
ATOM     23  C   UNL A   1      43.084 -21.130 -38.950  0.00  0.00    -0.038 A 
ATOM     24  C   UNL A   1      42.567 -21.140 -37.642  0.00  0.00    +0.050 A 
ATOM     25  C   UNL A   1      39.856 -21.827 -35.167  0.00  0.00    -0.025 C 
ATOM     26  C   UNL A   1      39.863 -21.103 -33.810  0.00  0.00    -0.049 C 
ATOM     27  C   UNL A   1      41.246 -21.158 -33.140  0.00  0.00    -0.047 C 
ATOM     28  C   UNL A   1      42.335 -20.489 -33.998  0.00  0.00    -0.012 C 
ENDBRANCH  15  16
ENDBRANCH   5  15
TORSDOF 4
ENDMDL
MODEL 15
REMARK VINA RESULT:    -6.607     16.516     19.576
REMARK INTER + INTRA:          -9.982
REMARK INTER:                  -8.914
REMARK INTRA:                  -1.068
REMARK UNBOUND:                -1.830
REMARK  Name = cpd353.pdb
REMARK  4 active torsions:
REMARK  status: ('A' for Active; 'I' for Inactive)
REMARK    1  A    between atoms: C_6  and  C_7
REMARK    2  A    between atoms: C_7  and  N_8
REMARK    3  A    between atoms: C_12  and  C_13
REMARK    4  A    between atoms: C_13  and  N_14
REMARK                            x       y       z     vdW  Elec       q    Type
REMARK                         _______ _______ _______ _____ _____    ______ ____
ROOT
ATOM      1  N   UNL A   1      42.764 -20.579 -39.087  0.00  0.00    -0.349 N 
ATOM      2  C   UNL A   1      41.803 -21.254 -39.762  0.00  0.00    +0.005 A 
ATOM      3  C   UNL A   1      40.815 -21.948 -39.079  0.00  0.00    -0.045 A 
ATOM      4  C   UNL A   1      40.831 -21.961 -37.691  0.00  0.00    -0.054 A 
ATOM      5  C   UNL A   1      41.837 -21.287 -36.995  0.00  0.00    -0.012 A 
ATOM      6  C   UNL A   1      42.793 -20.586 -37.733  0.00  0.00    +0.010 A 
ENDROOT
BRANCH   1   7
ATOM      7  C   UNL A   1      43.826 -19.866 -39.845  0.00  0.00    +0.048 C 
BRANCH   7  13
ATOM      8  F   UNL A   1      47.296 -23.255 -40.343  0.00  0.00    -0.205 F 
ATOM      9  C   UNL A   1      46.366 -22.484 -40.918  0.00  0.00    +0.124 A 
ATOM     10  C   UNL A   1      46.159 -22.560 -42.288  0.00  0.00    -0.026 A 
ATOM     11  C   UNL A   1      45.193 -21.750 -42.880  0.00  0.00    -0.059 A 
ATOM     12  C   UNL A   1      44.435 -20.874 -42.097  0.00  0.00    -0.057 A 
ATOM     13  C   UNL A   1      44.630 -20.806 -40.707  0.00  0.00    -0.025 A 
ATOM     14  C   UNL A   1      45.618 -21.618 -40.125  0.00  0.00    -0.022 A 
ENDBRANCH   7  13
ENDBRANCH   1   7
BRANCH   5  15
ATOM     15  C   UNL A   1      41.907 -21.314 -35.483  0.00  0.00    +0.050 C 
BRANCH  15  16
ATOM     16  N   UNL A   1      40.690 -20.782 -34.879  0.00  0.00    -0.339 N 
ATOM     17  C   UNL A   1      39.623 -21.530 -34.440  0.00  0.00    +0.023 A 
ATOM     18  C   UNL A   1      38.660 -20.661 -33.964  0.00  0.00    -0.019 A 
ATOM     19  C   UNL A   1      39.162 -19.340 -34.096  0.00  0.00    +0.003 A 
ATOM     20  C   UNL A   1      38.646 -18.067 -33.782  0.00  0.00    -0.052 A 
ATOM     21  C   UNL A   1      39.420 -16.927 -34.018  0.00  0.00    -0.061 A 
ATOM     22  C   UNL A   1      40.696 -17.042 -34.558  0.00  0.00    -0.060 A 
ATOM     23  C   UNL A   1      41.231 -18.292 -34.882  0.00  0.00    -0.038 A 
ATOM     24  C   UNL A   1      40.444 -19.436 -34.650  0.00  0.00    +0.050 A 
ATOM     25  C   UNL A   1      37.347 -21.121 -33.418  0.00  0.00    -0.025 C 
ATOM     26  C   UNL A   1      37.384 -22.618 -33.067  0.00  0.00    -0.049 C 
ATOM     27  C   UNL A   1      38.058 -23.447 -34.173  0.00  0.00    -0.047 C 
ATOM     28  C   UNL A   1      39.517 -23.019 -34.413  0.00  0.00    -0.012 C 
ENDBRANCH  15  16
ENDBRANCH   5  15
TORSDOF 4
ENDMDL
MODEL 16
REMARK VINA RESULT:    -6.588     16.905     19.846
REMARK INTER + INTRA:          -9.958
REMARK INTER:                  -8.710
REMARK INTRA:                  -1.248
REMARK UNBOUND:                -1.830
REMARK  Name = cpd353.pdb
REMARK  4 active torsions:
REMARK  status: ('A' for Active; 'I' for Inactive)
REMARK    1  A    between atoms: C_6  and  C_7
REMARK    2  A    between atoms: C_7  and  N_8
REMARK    3  A    between atoms: C_12  and  C_13
REMARK    4  A    between atoms: C_13  and  N_14
REMARK                            x       y       z     vdW  Elec       q    Type
REMARK                         _______ _______ _______ _____ _____    ______ ____
ROOT
ATOM      1  N   UNL A   1      43.297 -19.004 -34.097  0.00  0.00    -0.349 N 
ATOM      2  C   UNL A   1      44.435 -19.736 -34.067  0.00  0.00    +0.005 A 
ATOM      3  C   UNL A   1      45.105 -20.049 -35.240  0.00  0.00    -0.045 A 
ATOM      4  C   UNL A   1      44.584 -19.621 -36.454  0.00  0.00    -0.054 A 
ATOM      5  C   UNL A   1      43.395 -18.889 -36.488  0.00  0.00    -0.012 A 
ATOM      6  C   UNL A   1      42.775 -18.583 -35.275  0.00  0.00    +0.010 A 
ENDROOT
BRANCH   1   7
ATOM      7  C   UNL A   1      42.586 -18.705 -32.826  0.00  0.00    +0.048 C 
BRANCH   7  13
ATOM      8  F   UNL A   1      40.203 -22.941 -32.429  0.00  0.00    -0.205 F 
ATOM      9  C   UNL A   1      40.148 -21.607 -32.513  0.00  0.00    +0.124 A 
ATOM     10  C   UNL A   1      38.919 -20.965 -32.487  0.00  0.00    -0.026 A 
ATOM     11  C   UNL A   1      38.869 -19.576 -32.580  0.00  0.00    -0.059 A 
ATOM     12  C   UNL A   1      40.052 -18.837 -32.692  0.00  0.00    -0.057 A 
ATOM     13  C   UNL A   1      41.300 -19.483 -32.703  0.00  0.00    -0.025 A 
ATOM     14  C   UNL A   1      41.334 -20.885 -32.623  0.00  0.00    -0.022 A 
ENDBRANCH   7  13
ENDBRANCH   1   7
BRANCH   5  15
ATOM     15  C   UNL A   1      42.778 -18.442 -37.796  0.00  0.00    +0.050 C 
BRANCH  15  16
ATOM     16  N   UNL A   1      42.662 -19.548 -38.741  0.00  0.00    -0.339 N 
ATOM     17  C   UNL A   1      43.375 -19.677 -39.910  0.00  0.00    +0.023 A 
ATOM     18  C   UNL A   1      42.960 -20.836 -40.537  0.00  0.00    -0.019 A 
ATOM     19  C   UNL A   1      41.975 -21.446 -39.717  0.00  0.00    +0.003 A 
ATOM     20  C   UNL A   1      41.211 -22.625 -39.827  0.00  0.00    -0.052 A 
ATOM     21  C   UNL A   1      40.319 -22.971 -38.808  0.00  0.00    -0.061 A 
ATOM     22  C   UNL A   1      40.184 -22.162 -37.685  0.00  0.00    -0.060 A 
ATOM     23  C   UNL A   1      40.928 -20.986 -37.552  0.00  0.00    -0.038 A 
ATOM     24  C   UNL A   1      41.819 -20.637 -38.585  0.00  0.00    +0.050 A 
ATOM     25  C   UNL A   1      43.509 -21.293 -41.850  0.00  0.00    -0.025 C 
ATOM     26  C   UNL A   1      44.832 -20.581 -42.178  0.00  0.00    -0.049 C 
ATOM     27  C   UNL A   1      44.755 -19.072 -41.891  0.00  0.00    -0.047 C 
ATOM     28  C   UNL A   1      44.455 -18.776 -40.411  0.00  0.00    -0.012 C 
ENDBRANCH  15  16
ENDBRANCH   5  15
TORSDOF 4
ENDMDL
MODEL 17
REMARK VINA RESULT:    -6.553     16.747     19.648
REMARK INTER + INTRA:          -9.915
REMARK INTER:                  -8.732
REMARK INTRA:                  -1.182
REMARK UNBOUND:                -1.830
REMARK  Name = cpd353.pdb
REMARK  4 active torsions:
REMARK  status: ('A' for Active; 'I' for Inactive)
REMARK    1  A    between atoms: C_6  and  C_7
REMARK    2  A    between atoms: C_7  and  N_8
REMARK    3  A    between atoms: C_12  and  C_13
REMARK    4  A    between atoms: C_13  and  N_14
REMARK                            x       y       z     vdW  Elec       q    Type
REMARK                         _______ _______ _______ _____ _____    ______ ____
ROOT
ATOM      1  N   UNL A   1      40.165 -20.712 -37.864  0.00  0.00    -0.349 N 
ATOM      2  C   UNL A   1      39.931 -21.979 -38.283  0.00  0.00    +0.005 A 
ATOM      3  C   UNL A   1      40.738 -22.565 -39.246  0.00  0.00    -0.045 A 
ATOM      4  C   UNL A   1      41.781 -21.832 -39.796  0.00  0.00    -0.054 A 
ATOM      5  C   UNL A   1      42.006 -20.516 -39.385  0.00  0.00    -0.012 A 
ATOM      6  C   UNL A   1      41.176 -19.984 -38.396  0.00  0.00    +0.010 A 
ENDROOT
BRANCH   1   7
ATOM      7  C   UNL A   1      39.267 -20.100 -36.850  0.00  0.00    +0.048 C 
BRANCH   7  13
ATOM      8  F   UNL A   1      37.081 -22.520 -33.226  0.00  0.00    -0.205 F 
ATOM      9  C   UNL A   1      38.208 -22.020 -33.744  0.00  0.00    +0.124 A 
ATOM     10  C   UNL A   1      39.407 -22.175 -33.063  0.00  0.00    -0.026 A 
ATOM     11  C   UNL A   1      40.576 -21.647 -33.606  0.00  0.00    -0.059 A 
ATOM     12  C   UNL A   1      40.539 -20.972 -34.830  0.00  0.00    -0.057 A 
ATOM     13  C   UNL A   1      39.329 -20.826 -35.530  0.00  0.00    -0.025 A 
ATOM     14  C   UNL A   1      38.156 -21.352 -34.964  0.00  0.00    -0.022 A 
ENDBRANCH   7  13
ENDBRANCH   1   7
BRANCH   5  15
ATOM     15  C   UNL A   1      43.107 -19.674 -39.993  0.00  0.00    +0.050 C 
BRANCH  15  16
ATOM     16  N   UNL A   1      44.419 -20.050 -39.475  0.00  0.00    -0.339 N 
ATOM     17  C   UNL A   1      44.984 -19.577 -38.314  0.00  0.00    +0.023 A 
ATOM     18  C   UNL A   1      46.238 -20.144 -38.188  0.00  0.00    -0.019 A 
ATOM     19  C   UNL A   1      46.439 -21.007 -39.297  0.00  0.00    +0.003 A 
ATOM     20  C   UNL A   1      47.499 -21.842 -39.700  0.00  0.00    -0.052 A 
ATOM     21  C   UNL A   1      47.377 -22.607 -40.864  0.00  0.00    -0.061 A 
ATOM     22  C   UNL A   1      46.214 -22.550 -41.625  0.00  0.00    -0.060 A 
ATOM     23  C   UNL A   1      45.148 -21.727 -41.249  0.00  0.00    -0.038 A 
ATOM     24  C   UNL A   1      45.280 -20.953 -40.081  0.00  0.00    +0.050 A 
ATOM     25  C   UNL A   1      47.155 -19.846 -37.047  0.00  0.00    -0.025 C 
ATOM     26  C   UNL A   1      46.394 -19.207 -35.873  0.00  0.00    -0.049 C 
ATOM     27  C   UNL A   1      45.424 -18.114 -36.349  0.00  0.00    -0.047 C 
ATOM     28  C   UNL A   1      44.357 -18.662 -37.315  0.00  0.00    -0.012 C 
ENDBRANCH  15  16
ENDBRANCH   5  15
TORSDOF 4
ENDMDL
MODEL 18
REMARK VINA RESULT:    -6.492     18.919     22.170
REMARK INTER + INTRA:          -9.840
REMARK INTER:                  -7.953
REMARK INTRA:                  -1.887
REMARK UNBOUND:                -1.830
REMARK  Name = cpd353.pdb
REMARK  4 active torsions:
REMARK  status: ('A' for Active; 'I' for Inactive)
REMARK    1  A    between atoms: C_6  and  C_7
REMARK    2  A    between atoms: C_7  and  N_8
REMARK    3  A    between atoms: C_12  and  C_13
REMARK    4  A    between atoms: C_13  and  N_14
REMARK                            x       y       z     vdW  Elec       q    Type
REMARK                         _______ _______ _______ _____ _____    ______ ____
ROOT
ATOM      1  N   UNL A   1      43.338 -20.566 -36.102  0.00  0.00    -0.349 N 
ATOM      2  C   UNL A   1      42.239 -21.096 -35.514  0.00  0.00    +0.005 A 
ATOM      3  C   UNL A   1      41.195 -21.588 -36.282  0.00  0.00    -0.045 A 
ATOM      4  C   UNL A   1      41.276 -21.514 -37.667  0.00  0.00    -0.054 A 
ATOM      5  C   UNL A   1      42.396 -20.942 -38.273  0.00  0.00    -0.012 A 
ATOM      6  C   UNL A   1      43.428 -20.483 -37.452  0.00  0.00    +0.010 A 
ENDROOT
BRANCH   1   7
ATOM      7  C   UNL A   1      44.430 -20.022 -35.254  0.00  0.00    +0.048 C 
BRANCH   7  13
ATOM      8  F   UNL A   1      46.131 -15.815 -37.039  0.00  0.00    -0.205 F 
ATOM      9  C   UNL A   1      46.256 -17.143 -36.939  0.00  0.00    +0.124 A 
ATOM     10  C   UNL A   1      47.306 -17.786 -37.578  0.00  0.00    -0.026 A 
ATOM     11  C   UNL A   1      47.426 -19.170 -37.475  0.00  0.00    -0.059 A 
ATOM     12  C   UNL A   1      46.499 -19.901 -36.726  0.00  0.00    -0.057 A 
ATOM     13  C   UNL A   1      45.443 -19.252 -36.064  0.00  0.00    -0.025 A 
ATOM     14  C   UNL A   1      45.325 -17.858 -36.189  0.00  0.00    -0.022 A 
ENDBRANCH   7  13
ENDBRANCH   1   7
BRANCH   5  15
ATOM     15  C   UNL A   1      42.499 -20.807 -39.777  0.00  0.00    +0.050 C 
BRANCH  15  16
ATOM     16  N   UNL A   1      43.693 -20.065 -40.170  0.00  0.00    -0.339 N 
ATOM     17  C   UNL A   1      43.780 -18.698 -40.289  0.00  0.00    +0.023 A 
ATOM     18  C   UNL A   1      45.058 -18.387 -40.710  0.00  0.00    -0.019 A 
ATOM     19  C   UNL A   1      45.783 -19.602 -40.835  0.00  0.00    +0.003 A 
ATOM     20  C   UNL A   1      47.105 -19.912 -41.212  0.00  0.00    -0.052 A 
ATOM     21  C   UNL A   1      47.533 -21.242 -41.209  0.00  0.00    -0.061 A 
ATOM     22  C   UNL A   1      46.664 -22.261 -40.833  0.00  0.00    -0.060 A 
ATOM     23  C   UNL A   1      45.347 -21.981 -40.458  0.00  0.00    -0.038 A 
ATOM     24  C   UNL A   1      44.918 -20.641 -40.470  0.00  0.00    +0.050 A 
ATOM     25  C   UNL A   1      45.515 -16.987 -40.963  0.00  0.00    -0.025 C 
ATOM     26  C   UNL A   1      44.568 -15.967 -40.308  0.00  0.00    -0.049 C 
ATOM     27  C   UNL A   1      43.092 -16.321 -40.550  0.00  0.00    -0.047 C 
ATOM     28  C   UNL A   1      42.720 -17.697 -39.968  0.00  0.00    -0.012 C 
ENDBRANCH  15  16
ENDBRANCH   5  15
TORSDOF 4
ENDMDL
MODEL 19
REMARK VINA RESULT:    -6.276     17.787     20.872
REMARK INTER + INTRA:          -9.574
REMARK INTER:                  -8.588
REMARK INTRA:                  -0.985
REMARK UNBOUND:                -1.830
REMARK  Name = cpd353.pdb
REMARK  4 active torsions:
REMARK  status: ('A' for Active; 'I' for Inactive)
REMARK    1  A    between atoms: C_6  and  C_7
REMARK    2  A    between atoms: C_7  and  N_8
REMARK    3  A    between atoms: C_12  and  C_13
REMARK    4  A    between atoms: C_13  and  N_14
REMARK                            x       y       z     vdW  Elec       q    Type
REMARK                         _______ _______ _______ _____ _____    ______ ____
ROOT
ATOM      1  N   UNL A   1      44.938 -19.012 -39.606  0.00  0.00    -0.349 N 
ATOM      2  C   UNL A   1      44.057 -17.996 -39.768  0.00  0.00    +0.005 A 
ATOM      3  C   UNL A   1      42.927 -17.906 -38.969  0.00  0.00    -0.045 A 
ATOM      4  C   UNL A   1      42.695 -18.883 -38.009  0.00  0.00    -0.054 A 
ATOM      5  C   UNL A   1      43.589 -19.946 -37.860  0.00  0.00    -0.012 A 
ATOM      6  C   UNL A   1      44.721 -19.974 -38.676  0.00  0.00    +0.010 A 
ENDROOT
BRANCH   1   7
ATOM      7  C   UNL A   1      46.126 -19.097 -40.494  0.00  0.00    +0.048 C 
BRANCH   7  13
ATOM      8  F   UNL A   1      48.355 -23.313 -41.510  0.00  0.00    -0.205 F 
ATOM      9  C   UNL A   1      47.321 -22.492 -41.722  0.00  0.00    +0.124 A 
ATOM     10  C   UNL A   1      46.324 -22.856 -42.616  0.00  0.00    -0.026 A 
ATOM     11  C   UNL A   1      45.253 -21.993 -42.835  0.00  0.00    -0.059 A 
ATOM     12  C   UNL A   1      45.182 -20.774 -42.154  0.00  0.00    -0.057 A 
ATOM     13  C   UNL A   1      46.182 -20.408 -41.237  0.00  0.00    -0.025 A 
ATOM     14  C   UNL A   1      47.263 -21.282 -41.036  0.00  0.00    -0.022 A 
ENDBRANCH   7  13
ENDBRANCH   1   7
BRANCH   5  15
ATOM     15  C   UNL A   1      43.345 -21.049 -36.853  0.00  0.00    +0.050 C 
BRANCH  15  16
ATOM     16  N   UNL A   1      42.873 -20.518 -35.578  0.00  0.00    -0.339 N 
ATOM     17  C   UNL A   1      41.650 -20.781 -35.007  0.00  0.00    +0.023 A 
ATOM     18  C   UNL A   1      41.570 -20.071 -33.824  0.00  0.00    -0.019 A 
ATOM     19  C   UNL A   1      42.791 -19.367 -33.656  0.00  0.00    +0.003 A 
ATOM     20  C   UNL A   1      43.286 -18.501 -32.660  0.00  0.00    -0.052 A 
ATOM     21  C   UNL A   1      44.576 -17.975 -32.777  0.00  0.00    -0.061 A 
ATOM     22  C   UNL A   1      45.374 -18.303 -33.867  0.00  0.00    -0.060 A 
ATOM     23  C   UNL A   1      44.906 -19.157 -34.871  0.00  0.00    -0.038 A 
ATOM     24  C   UNL A   1      43.604 -19.677 -34.753  0.00  0.00    +0.050 A 
ATOM     25  C   UNL A   1      40.369 -20.101 -32.936  0.00  0.00    -0.025 C 
ATOM     26  C   UNL A   1      39.462 -21.298 -33.267  0.00  0.00    -0.049 C 
ATOM     27  C   UNL A   1      39.268 -21.465 -34.783  0.00  0.00    -0.047 C 
ATOM     28  C   UNL A   1      40.599 -21.710 -35.516  0.00  0.00    -0.012 C 
ENDBRANCH  15  16
ENDBRANCH   5  15
TORSDOF 4
ENDMDL
MODEL 20
REMARK VINA RESULT:    -6.230     18.414     21.266
REMARK INTER + INTRA:          -9.517
REMARK INTER:                  -7.821
REMARK INTRA:                  -1.695
REMARK UNBOUND:                -1.830
REMARK  Name = cpd353.pdb
REMARK  4 active torsions:
REMARK  status: ('A' for Active; 'I' for Inactive)
REMARK    1  A    between atoms: C_6  and  C_7
REMARK    2  A    between atoms: C_7  and  N_8
REMARK    3  A    between atoms: C_12  and  C_13
REMARK    4  A    between atoms: C_13  and  N_14
REMARK                            x       y       z     vdW  Elec       q    Type
REMARK                         _______ _______ _______ _____ _____    ______ ____
ROOT
ATOM      1  N   UNL A   1      45.139 -18.546 -35.115  0.00  0.00    -0.349 N 
ATOM      2  C   UNL A   1      46.447 -18.801 -34.874  0.00  0.00    +0.005 A 
ATOM      3  C   UNL A   1      47.382 -18.721 -35.895  0.00  0.00    -0.045 A 
ATOM      4  C   UNL A   1      46.961 -18.396 -37.178  0.00  0.00    -0.054 A 
ATOM      5  C   UNL A   1      45.608 -18.160 -37.433  0.00  0.00    -0.012 A 
ATOM      6  C   UNL A   1      44.714 -18.232 -36.363  0.00  0.00    +0.010 A 
ENDROOT
BRANCH   1   7
ATOM      7  C   UNL A   1      44.155 -18.665 -34.007  0.00  0.00    +0.048 C 
BRANCH   7  13
ATOM      8  F   UNL A   1      41.350 -22.284 -35.681  0.00  0.00    -0.205 F 
ATOM      9  C   UNL A   1      41.459 -20.999 -35.325  0.00  0.00    +0.124 A 
ATOM     10  C   UNL A   1      40.353 -20.166 -35.407  0.00  0.00    -0.026 A 
ATOM     11  C   UNL A   1      40.476 -18.827 -35.041  0.00  0.00    -0.059 A 
ATOM     12  C   UNL A   1      41.704 -18.333 -34.588  0.00  0.00    -0.057 A 
ATOM     13  C   UNL A   1      42.822 -19.178 -34.490  0.00  0.00    -0.025 A 
ATOM     14  C   UNL A   1      42.687 -20.522 -34.876  0.00  0.00    -0.022 A 
ENDBRANCH   7  13
ENDBRANCH   1   7
BRANCH   5  15
ATOM     15  C   UNL A   1      45.109 -17.844 -38.826  0.00  0.00    +0.050 C 
BRANCH  15  16
ATOM     16  N   UNL A   1      44.745 -19.055 -39.555  0.00  0.00    -0.339 N 
ATOM     17  C   UNL A   1      45.584 -19.777 -40.372  0.00  0.00    +0.023 A 
ATOM     18  C   UNL A   1      44.862 -20.830 -40.899  0.00  0.00    -0.019 A 
ATOM     19  C   UNL A   1      43.545 -20.763 -40.373  0.00  0.00    +0.003 A 
ATOM     20  C   UNL A   1      42.390 -21.552 -40.539  0.00  0.00    -0.052 A 
ATOM     21  C   UNL A   1      41.222 -21.227 -39.842  0.00  0.00    -0.061 A 
ATOM     22  C   UNL A   1      41.195 -20.133 -38.984  0.00  0.00    -0.060 A 
ATOM     23  C   UNL A   1      42.327 -19.331 -38.805  0.00  0.00    -0.038 A 
ATOM     24  C   UNL A   1      43.497 -19.658 -39.515  0.00  0.00    +0.050 A 
ATOM     25  C   UNL A   1      45.448 -21.823 -41.850  0.00  0.00    -0.025 C 
ATOM     26  C   UNL A   1      46.985 -21.781 -41.822  0.00  0.00    -0.049 C 
ATOM     27  C   UNL A   1      47.517 -20.339 -41.836  0.00  0.00    -0.047 C 
ATOM     28  C   UNL A   1      47.035 -19.529 -40.618  0.00  0.00    -0.012 C 
ENDBRANCH  15  16
ENDBRANCH   5  15
TORSDOF 4
ENDMDL
