REMARK  Name = cpd353.pdb
REMARK  4 active torsions:
REMARK  status: ('A' for Active; 'I' for Inactive)
REMARK    1  A    between atoms: C_6  and  C_7
REMARK    2  A    between atoms: C_7  and  N_8
REMARK    3  A    between atoms: C_12  and  C_13
REMARK    4  A    between atoms: C_13  and  N_14
REMARK                            x       y       z     vdW  Elec       q    Type
REMARK                         _______ _______ _______ _____ _____    ______ ____
ROOT
ATOM      1  N   UNL A   1       3.103  -0.054   0.235  0.00  0.00    -0.349 N 
ATOM      2  C   UNL A   1       3.249  -0.775   1.372  0.00  0.00    +0.005 A 
ATOM      3  C   UNL A   1       2.390  -1.825   1.658  0.00  0.00    -0.045 A 
ATOM      4  C   UNL A   1       1.360  -2.120   0.774  0.00  0.00    -0.054 A 
ATOM      5  C   UNL A   1       1.192  -1.359  -0.385  0.00  0.00    -0.012 A 
ATOM      6  C   UNL A   1       2.100  -0.328  -0.634  0.00  0.00    +0.010 A 
ENDROOT
BRANCH   1   7
ATOM      7  C   UNL A   1       4.022   1.083  -0.033  0.00  0.00    +0.048 C 
BRANCH   7  13
ATOM      8  F   UNL A   1       8.700   1.400   1.304  0.00  0.00    -0.205 F 
ATOM      9  C   UNL A   1       7.773   0.822   0.532  0.00  0.00    +0.124 A 
ATOM     10  C   UNL A   1       8.143  -0.173  -0.361  0.00  0.00    -0.026 A 
ATOM     11  C   UNL A   1       7.173  -0.766  -1.166  0.00  0.00    -0.059 A 
ATOM     12  C   UNL A   1       5.837  -0.364  -1.067  0.00  0.00    -0.057 A 
ATOM     13  C   UNL A   1       5.456   0.633  -0.153  0.00  0.00    -0.025 A 
ATOM     14  C   UNL A   1       6.447   1.232   0.642  0.00  0.00    -0.022 A 
ENDBRANCH   7  13
ENDBRANCH   1   7
BRANCH   5  15
ATOM     15  C   UNL A   1       0.056  -1.627  -1.349  0.00  0.00    +0.050 C 
BRANCH  15  16
ATOM     16  N   UNL A   1      -1.244  -1.447  -0.711  0.00  0.00    -0.339 N 
ATOM     17  C   UNL A   1      -1.872  -0.241  -0.504  0.00  0.00    +0.023 A 
ATOM     18  C   UNL A   1      -3.062  -0.487   0.153  0.00  0.00    -0.019 A 
ATOM     19  C   UNL A   1      -3.176  -1.890   0.337  0.00  0.00    +0.003 A 
ATOM     20  C   UNL A   1      -4.153  -2.718   0.925  0.00  0.00    -0.052 A 
ATOM     21  C   UNL A   1      -3.978  -4.105   0.925  0.00  0.00    -0.061 A 
ATOM     22  C   UNL A   1      -2.848  -4.672   0.346  0.00  0.00    -0.060 A 
ATOM     23  C   UNL A   1      -1.862  -3.873  -0.241  0.00  0.00    -0.038 A 
ATOM     24  C   UNL A   1      -2.039  -2.477  -0.231  0.00  0.00    +0.050 A 
ATOM     25  C   UNL A   1      -4.007   0.597   0.559  0.00  0.00    -0.025 C 
ATOM     26  C   UNL A   1      -3.712   1.904  -0.196  0.00  0.00    -0.049 C 
ATOM     27  C   UNL A   1      -2.206   2.211  -0.239  0.00  0.00    -0.047 C 
ATOM     28  C   UNL A   1      -1.407   1.105  -0.952  0.00  0.00    -0.012 C 
ENDBRANCH  15  16
ENDBRANCH   5  15
TORSDOF 4
