REMARK  Name = cpd318.pdb
REMARK  4 active torsions:
REMARK  status: ('A' for Active; 'I' for Inactive)
REMARK    1  A    between atoms: C_1  and  O_2
REMARK    2  A    between atoms: O_2  and  C_3
REMARK    3  A    between atoms: C_12  and  O_13
REMARK    4  A    between atoms: C_20  and  C_22
REMARK                            x       y       z     vdW  Elec       q    Type
REMARK                         _______ _______ _______ _____ _____    ______ ____
ROOT
ATOM      1  C   UNL A   1       3.812  -1.133   0.362  0.00  0.00    +0.162 A 
ATOM      2  C   UNL A   1       3.763   0.200  -0.056  0.00  0.00    -0.016 A 
ATOM      3  C   UNL A   1       2.572   0.758  -0.571  0.00  0.00    -0.053 A 
ATOM      4  C   UNL A   1       1.404  -0.008  -0.702  0.00  0.00    -0.022 A 
ATOM      5  C   UNL A   1       1.506  -1.360  -0.408  0.00  0.00    +0.016 A 
ATOM      6  C   UNL A   1       2.665  -1.887   0.178  0.00  0.00    +0.167 A 
ATOM      7  O   UNL A   1       2.486  -3.190   0.630  0.00  0.00    -0.484 OA
ATOM      8  C   UNL A   1       1.376  -3.592  -0.184  0.00  0.00    +0.116 C 
ATOM      9  C   UNL A   1       0.603  -4.823   0.254  0.00  0.00    +0.015 C 
ATOM     10  C   UNL A   1      -0.445  -5.149  -0.834  0.00  0.00    +0.077 C 
ATOM     11  C   UNL A   1      -0.861  -3.983  -1.708  0.00  0.00    -0.059 C 
ATOM     12  C   UNL A   1      -0.440  -2.714  -1.524  0.00  0.00    -0.071 C 
ATOM     13  C   UNL A   1       0.421  -2.380  -0.332  0.00  0.00    +0.056 C 
ATOM     14  C   UNL A   1      -0.456  -2.022   0.894  0.00  0.00    -0.020 C 
ATOM     15  C   UNL A   1      -0.915  -0.547   0.951  0.00  0.00    +0.017 C 
ATOM     16  N   UNL A   1      -1.098   0.088  -0.364  0.00  0.00    -0.293 N 
ATOM     17  C   UNL A   1      -2.336   0.483  -0.876  0.00  0.00    +0.247 C 
ATOM     18  O   UNL A   1      -2.455   1.249  -1.830  0.00  0.00    -0.270 OA
ATOM     19  C   UNL A   1       0.084   0.630  -1.060  0.00  0.00    +0.040 C 
ENDROOT
BRANCH  17  20
ATOM     20  C   UNL A   1      -3.577  -0.022  -0.252  0.00  0.00    +0.037 A 
ATOM     21  C   UNL A   1      -3.862  -1.391  -0.224  0.00  0.00    -0.049 A 
ATOM     22  C   UNL A   1      -5.053  -1.840   0.352  0.00  0.00    -0.047 A 
ATOM     23  C   UNL A   1      -5.957  -0.916   0.879  0.00  0.00    +0.018 A 
ATOM     24 BR   UNL A   1      -7.570  -1.525   1.656  0.00  0.00    -0.050 Br
ATOM     25  C   UNL A   1      -5.688   0.452   0.828  0.00  0.00    -0.047 A 
ATOM     26  C   UNL A   1      -4.498   0.902   0.254  0.00  0.00    -0.049 A 
ENDBRANCH  17  20
BRANCH   1  28
ATOM     27  C   UNL A   1       6.059  -0.992   1.117  0.00  0.00    +0.079 C 
ATOM     28  O   UNL A   1       4.879  -1.761   0.934  0.00  0.00    -0.491 OA
ENDBRANCH   1  28
BRANCH  10  29
ATOM     29  O   UNL A   1      -1.623  -5.662  -0.229  0.00  0.00    -0.388 OA
ATOM     30  H   UNL A   1      -2.022  -4.979   0.332  0.00  0.00    +0.000 HD
ENDBRANCH  10  29
TORSDOF 3
