@<TRIPOS>MOLECULE
*****
 29 33 0 0 0
SMALL
GASTEIGER

@<TRIPOS>ATOM
      1 C           4.0360   -1.0564    0.0000 C.3     1  UNL1        0.2526
      2 O           3.2678   -1.5964    0.0000 O.3     1  UNL1       -0.4684
      3 C           2.4621   -1.1143    0.0000 C.ar    1  UNL1        0.1721
      4 C           2.4766   -0.1755    0.0000 C.ar    1  UNL1        0.0398
      5 C           1.6703    0.3069    0.0000 C.ar    1  UNL1        0.0004
      6 C           0.8500   -0.1499    0.0000 C.ar    1  UNL1       -0.0028
      7 C           0.8352   -1.0891    0.0000 C.ar    1  UNL1        0.0191
      8 C           1.6414   -1.5715    0.0000 C.ar    1  UNL1        0.1682
      9 O           1.6269   -2.5103    0.0000 O.3     1  UNL1       -0.4757
     10 C           0.8063   -2.9675    0.0000 C.3     1  UNL1        0.1762
     11 C           0.7915   -3.9067    0.0000 C.3     1  UNL1        0.0816
     12 C          -0.0289   -4.3635    0.0000 C.3     1  UNL1        0.1773
     13 O          -0.0439   -5.3265    0.0000 O.3     1  UNL1       -0.2182
     14 C          -0.8352   -3.8811    0.0000 C.2     1  UNL1        0.0021
     15 C          -0.8206   -2.9423    0.0000 C.2     1  UNL1       -0.0211
     16 C          -0.0000   -2.4851    0.0000 C.3     1  UNL1        0.0783
     17 C          -0.7474   -2.0536    0.0000 C.3     1  UNL1        0.0332
     18 C          -1.0426   -1.2426    0.0000 C.3     1  UNL1        0.0948
     19 N          -0.7474   -0.4315    0.0000 N.am    1  UNL1       -0.2720
     20 C          -1.5021    0.2017    0.0000 C.2     1  UNL1        0.2493
     21 O          -1.3310    1.1718    0.0000 O.2     1  UNL1       -0.2699
     22 C          -2.4278   -0.1352    0.0000 C.ar    1  UNL1        0.0536
     23 C          -2.5988   -1.1054    0.0000 C.ar    1  UNL1        0.0050
     24 C          -3.5245   -1.4423    0.0000 C.ar    1  UNL1        0.0068
     25 C          -4.2792   -0.8091    0.0000 C.ar    1  UNL1        0.0346
     26 BR         -5.2049   -1.1460    0.0000 Br      1  UNL1       -0.0490
     27 C          -4.1081    0.1610    0.0000 C.ar    1  UNL1        0.0068
     28 C          -3.1824    0.4980    0.0000 C.ar    1  UNL1        0.0050
     29 C           0.0000    0.0000    0.0000 C.3     1  UNL1        0.1202
@<TRIPOS>BOND
     1     1     2    1
     2     2     3    1
     3     3     4   ar
     4     4     5   ar
     5     5     6   ar
     6     6     7   ar
     7     7     8   ar
     8     3     8   ar
     9     8     9    1
    10     9    10    1
    11    10    11    1
    12    11    12    1
    13    12    13    1
    14    12    14    1
    15    14    15    2
    16    15    16    1
    17     7    16    1
    18    10    16    1
    19    16    17    1
    20    17    18    1
    21    18    19    1
    22    19    20   am
    23    20    21    2
    24    20    22    1
    25    22    23   ar
    26    23    24   ar
    27    24    25   ar
    28    25    26    1
    29    25    27   ar
    30    27    28   ar
    31    22    28   ar
    32    19    29    1
    33     6    29    1
