MODEL 1
REMARK VINA RESULT:    -8.200      0.000      0.000
REMARK INTER + INTRA:         -10.041
REMARK INTER:                  -9.398
REMARK INTRA:                  -0.643
REMARK UNBOUND:                -0.643
REMARK  Name = cpd318.pdb
REMARK  4 active torsions:
REMARK  status: ('A' for Active; 'I' for Inactive)
REMARK    1  A    between atoms: C_1  and  O_2
REMARK    2  A    between atoms: O_2  and  C_3
REMARK    3  A    between atoms: C_12  and  O_13
REMARK    4  A    between atoms: C_20  and  C_22
REMARK                            x       y       z     vdW  Elec       q    Type
REMARK                         _______ _______ _______ _____ _____    ______ ____
ROOT
ATOM      1  C   UNL A   1      40.485 -35.904 -30.739  0.00  0.00    +0.162 A 
ATOM      2  C   UNL A   1      40.136 -34.946 -31.696  0.00  0.00    -0.016 A 
ATOM      3  C   UNL A   1      38.797 -34.794 -32.119  0.00  0.00    -0.053 A 
ATOM      4  C   UNL A   1      37.774 -35.609 -31.612  0.00  0.00    -0.022 A 
ATOM      5  C   UNL A   1      38.157 -36.639 -30.765  0.00  0.00    +0.016 A 
ATOM      6  C   UNL A   1      39.472 -36.733 -30.288  0.00  0.00    +0.167 A 
ATOM      7  O   UNL A   1      39.600 -37.664 -29.264  0.00  0.00    -0.484 OA
ATOM      8  C   UNL A   1      38.455 -38.488 -29.523  0.00  0.00    +0.116 C 
ATOM      9  C   UNL A   1      37.992 -39.406 -28.406  0.00  0.00    +0.015 C 
ATOM     10  C   UNL A   1      36.848 -40.291 -28.950  0.00  0.00    +0.077 C 
ATOM     11  C   UNL A   1      36.095 -39.726 -30.138  0.00  0.00    -0.059 C 
ATOM     12  C   UNL A   1      36.315 -38.500 -30.657  0.00  0.00    -0.071 C 
ATOM     13  C   UNL A   1      37.294 -37.571 -29.984  0.00  0.00    +0.056 C 
ATOM     14  C   UNL A   1      36.587 -36.729 -28.892  0.00  0.00    -0.020 C 
ATOM     15  C   UNL A   1      35.896 -35.447 -29.411  0.00  0.00    +0.017 C 
ATOM     16  N   UNL A   1      35.387 -35.542 -30.788  0.00  0.00    -0.293 N 
ATOM     17  C   UNL A   1      34.031 -35.534 -31.123  0.00  0.00    +0.247 C 
ATOM     18  O   UNL A   1      33.622 -35.335 -32.265  0.00  0.00    -0.270 OA
ATOM     19  C   UNL A   1      36.323 -35.320 -31.907  0.00  0.00    +0.040 C 
ENDROOT
BRANCH  17  20
ATOM     20  C   UNL A   1      33.019 -35.762 -30.070  0.00  0.00    +0.037 A 
ATOM     21  C   UNL A   1      32.454 -34.690 -29.371  0.00  0.00    -0.049 A 
ATOM     22  C   UNL A   1      31.517 -34.935 -28.365  0.00  0.00    -0.047 A 
ATOM     23  C   UNL A   1      31.165 -36.249 -28.053  0.00  0.00    +0.018 A 
ATOM     24 BR   UNL A   1      29.897 -36.579 -26.689  0.00  0.00    -0.050 Br
ATOM     25  C   UNL A   1      31.747 -37.322 -28.730  0.00  0.00    -0.047 A 
ATOM     26  C   UNL A   1      32.683 -37.078 -29.736  0.00  0.00    -0.049 A 
ENDBRANCH  17  20
BRANCH   1  28
ATOM     27  C   UNL A   1      42.657 -36.831 -30.991  0.00  0.00    +0.079 C 
ATOM     28  O   UNL A   1      41.726 -36.098 -30.207  0.00  0.00    -0.491 OA
ENDBRANCH   1  28
BRANCH  10  29
ATOM     29  O   UNL A   1      35.896 -40.531 -27.924  0.00  0.00    -0.388 OA
ATOM     30  H   UNL A   1      36.337 -40.506 -27.061  0.00  0.00    +0.000 HD
ENDBRANCH  10  29
TORSDOF 3
ENDMDL
MODEL 2
REMARK VINA RESULT:    -7.969      2.393      4.418
REMARK INTER + INTRA:          -9.777
REMARK INTER:                  -9.130
REMARK INTRA:                  -0.646
REMARK UNBOUND:                -0.643
REMARK  Name = cpd318.pdb
REMARK  4 active torsions:
REMARK  status: ('A' for Active; 'I' for Inactive)
REMARK    1  A    between atoms: C_1  and  O_2
REMARK    2  A    between atoms: O_2  and  C_3
REMARK    3  A    between atoms: C_12  and  O_13
REMARK    4  A    between atoms: C_20  and  C_22
REMARK                            x       y       z     vdW  Elec       q    Type
REMARK                         _______ _______ _______ _____ _____    ______ ____
ROOT
ATOM      1  C   UNL A   1      39.567 -36.030 -31.060  0.00  0.00    +0.162 A 
ATOM      2  C   UNL A   1      40.167 -37.066 -30.338  0.00  0.00    -0.016 A 
ATOM      3  C   UNL A   1      39.400 -37.919 -29.515  0.00  0.00    -0.053 A 
ATOM      4  C   UNL A   1      38.015 -37.746 -29.374  0.00  0.00    -0.022 A 
ATOM      5  C   UNL A   1      37.457 -36.635 -29.991  0.00  0.00    +0.016 A 
ATOM      6  C   UNL A   1      38.208 -35.843 -30.870  0.00  0.00    +0.167 A 
ATOM      7  O   UNL A   1      37.420 -34.943 -31.579  0.00  0.00    -0.484 OA
ATOM      8  C   UNL A   1      36.284 -34.858 -30.709  0.00  0.00    +0.116 C 
ATOM      9  C   UNL A   1      35.006 -34.278 -31.289  0.00  0.00    +0.015 C 
ATOM     10  C   UNL A   1      33.970 -34.153 -30.149  0.00  0.00    +0.077 C 
ATOM     11  C   UNL A   1      34.186 -35.078 -28.968  0.00  0.00    -0.059 C 
ATOM     12  C   UNL A   1      35.147 -36.024 -28.916  0.00  0.00    -0.071 C 
ATOM     13  C   UNL A   1      36.018 -36.269 -30.123  0.00  0.00    +0.056 C 
ATOM     14  C   UNL A   1      35.366 -37.311 -31.066  0.00  0.00    -0.020 C 
ATOM     15  C   UNL A   1      35.654 -38.784 -30.697  0.00  0.00    +0.017 C 
ATOM     16  N   UNL A   1      35.841 -39.029 -29.258  0.00  0.00    -0.293 N 
ATOM     17  C   UNL A   1      34.955 -39.765 -28.468  0.00  0.00    +0.247 C 
ATOM     18  O   UNL A   1      35.247 -40.196 -27.354  0.00  0.00    -0.270 OA
ATOM     19  C   UNL A   1      37.165 -38.769 -28.661  0.00  0.00    +0.040 C 
ENDROOT
BRANCH  17  20
ATOM     20  C   UNL A   1      33.600 -40.062 -28.977  0.00  0.00    +0.037 A 
ATOM     21  C   UNL A   1      32.582 -39.105 -28.913  0.00  0.00    -0.049 A 
ATOM     22  C   UNL A   1      31.304 -39.419 -29.381  0.00  0.00    -0.047 A 
ATOM     23  C   UNL A   1      31.049 -40.693 -29.891  0.00  0.00    +0.018 A 
ATOM     24 BR   UNL A   1      29.317 -41.118 -30.521  0.00  0.00    -0.050 Br
ATOM     25  C   UNL A   1      32.055 -41.659 -29.931  0.00  0.00    -0.047 A 
ATOM     26  C   UNL A   1      33.333 -41.346 -29.465  0.00  0.00    -0.049 A 
ENDBRANCH  17  20
BRANCH   1  28
ATOM     27  C   UNL A   1      41.185 -35.753 -32.777  0.00  0.00    +0.079 C 
ATOM     28  O   UNL A   1      40.191 -35.188 -31.934  0.00  0.00    -0.491 OA
ENDBRANCH   1  28
BRANCH  10  29
ATOM     29  O   UNL A   1      32.668 -34.410 -30.652  0.00  0.00    -0.388 OA
ATOM     30  H   UNL A   1      32.642 -34.209 -31.601  0.00  0.00    +0.000 HD
ENDBRANCH  10  29
TORSDOF 3
ENDMDL
MODEL 3
REMARK VINA RESULT:    -7.685     15.866     18.998
REMARK INTER + INTRA:          -9.452
REMARK INTER:                  -8.862
REMARK INTRA:                  -0.590
REMARK UNBOUND:                -0.643
REMARK  Name = cpd318.pdb
REMARK  4 active torsions:
REMARK  status: ('A' for Active; 'I' for Inactive)
REMARK    1  A    between atoms: C_1  and  O_2
REMARK    2  A    between atoms: O_2  and  C_3
REMARK    3  A    between atoms: C_12  and  O_13
REMARK    4  A    between atoms: C_20  and  C_22
REMARK                            x       y       z     vdW  Elec       q    Type
REMARK                         _______ _______ _______ _____ _____    ______ ____
ROOT
ATOM      1  C   UNL A   1      40.001 -22.706 -32.801  0.00  0.00    +0.162 A 
ATOM      2  C   UNL A   1      38.815 -23.090 -33.435  0.00  0.00    -0.016 A 
ATOM      3  C   UNL A   1      38.522 -22.663 -34.750  0.00  0.00    -0.053 A 
ATOM      4  C   UNL A   1      39.396 -21.825 -35.457  0.00  0.00    -0.022 A 
ATOM      5  C   UNL A   1      40.501 -21.347 -34.767  0.00  0.00    +0.016 A 
ATOM      6  C   UNL A   1      40.826 -21.838 -33.495  0.00  0.00    +0.167 A 
ATOM      7  O   UNL A   1      42.091 -21.436 -33.079  0.00  0.00    -0.484 OA
ATOM      8  C   UNL A   1      42.270 -20.270 -33.895  0.00  0.00    +0.116 C 
ATOM      9  C   UNL A   1      43.683 -19.736 -34.043  0.00  0.00    +0.015 C 
ATOM     10  C   UNL A   1      43.619 -18.411 -34.836  0.00  0.00    +0.077 C 
ATOM     11  C   UNL A   1      42.403 -18.242 -35.725  0.00  0.00    -0.059 C 
ATOM     12  C   UNL A   1      41.465 -19.195 -35.910  0.00  0.00    -0.071 C 
ATOM     13  C   UNL A   1      41.653 -20.556 -35.288  0.00  0.00    +0.056 C 
ATOM     14  C   UNL A   1      42.453 -21.486 -36.234  0.00  0.00    -0.020 C 
ATOM     15  C   UNL A   1      41.600 -22.212 -37.299  0.00  0.00    +0.017 C 
ATOM     16  N   UNL A   1      40.411 -21.467 -37.743  0.00  0.00    -0.293 N 
ATOM     17  C   UNL A   1      40.252 -20.941 -39.027  0.00  0.00    +0.247 C 
ATOM     18  O   UNL A   1      39.168 -20.571 -39.472  0.00  0.00    -0.270 OA
ATOM     19  C   UNL A   1      39.187 -21.531 -36.923  0.00  0.00    +0.040 C 
ENDROOT
BRANCH  17  20
ATOM     20  C   UNL A   1      41.427 -20.824 -39.917  0.00  0.00    +0.037 A 
ATOM     21  C   UNL A   1      41.646 -21.747 -40.944  0.00  0.00    -0.049 A 
ATOM     22  C   UNL A   1      42.776 -21.626 -41.756  0.00  0.00    -0.047 A 
ATOM     23  C   UNL A   1      43.687 -20.594 -41.524  0.00  0.00    +0.018 A 
ATOM     24 BR   UNL A   1      45.218 -20.433 -42.622  0.00  0.00    -0.050 Br
ATOM     25  C   UNL A   1      43.485 -19.687 -40.483  0.00  0.00    -0.047 A 
ATOM     26  C   UNL A   1      42.356 -19.806 -39.671  0.00  0.00    -0.049 A 
ENDBRANCH  17  20
BRANCH   1  28
ATOM     27  C   UNL A   1      41.237 -24.267 -31.508  0.00  0.00    +0.079 C 
ATOM     28  O   UNL A   1      40.422 -23.106 -31.567  0.00  0.00    -0.491 OA
ENDBRANCH   1  28
BRANCH  10  29
ATOM     29  O   UNL A   1      44.765 -18.291 -35.666  0.00  0.00    -0.388 OA
ATOM     30  H   UNL A   1      45.536 -18.660 -35.207  0.00  0.00    +0.000 HD
ENDBRANCH  10  29
TORSDOF 3
ENDMDL
MODEL 4
REMARK VINA RESULT:    -7.545      2.985      5.043
REMARK INTER + INTRA:          -9.291
REMARK INTER:                  -8.779
REMARK INTRA:                  -0.512
REMARK UNBOUND:                -0.643
REMARK  Name = cpd318.pdb
REMARK  4 active torsions:
REMARK  status: ('A' for Active; 'I' for Inactive)
REMARK    1  A    between atoms: C_1  and  O_2
REMARK    2  A    between atoms: O_2  and  C_3
REMARK    3  A    between atoms: C_12  and  O_13
REMARK    4  A    between atoms: C_20  and  C_22
REMARK                            x       y       z     vdW  Elec       q    Type
REMARK                         _______ _______ _______ _____ _____    ______ ____
ROOT
ATOM      1  C   UNL A   1      36.445 -38.601 -30.054  0.00  0.00    +0.162 A 
ATOM      2  C   UNL A   1      37.468 -37.678 -29.814  0.00  0.00    -0.016 A 
ATOM      3  C   UNL A   1      37.323 -36.321 -30.177  0.00  0.00    -0.053 A 
ATOM      4  C   UNL A   1      36.160 -35.854 -30.808  0.00  0.00    -0.022 A 
ATOM      5  C   UNL A   1      35.213 -36.805 -31.157  0.00  0.00    +0.016 A 
ATOM      6  C   UNL A   1      35.327 -38.133 -30.723  0.00  0.00    +0.167 A 
ATOM      7  O   UNL A   1      34.168 -38.868 -30.951  0.00  0.00    -0.484 OA
ATOM      8  C   UNL A   1      33.580 -38.095 -32.005  0.00  0.00    +0.116 C 
ATOM      9  C   UNL A   1      32.107 -38.323 -32.296  0.00  0.00    +0.015 C 
ATOM     10  C   UNL A   1      31.727 -37.500 -33.547  0.00  0.00    +0.077 C 
ATOM     11  C   UNL A   1      32.615 -36.306 -33.836  0.00  0.00    -0.059 C 
ATOM     12  C   UNL A   1      33.621 -35.902 -33.032  0.00  0.00    -0.071 C 
ATOM     13  C   UNL A   1      33.845 -36.596 -31.712  0.00  0.00    +0.056 C 
ATOM     14  C   UNL A   1      32.996 -35.937 -30.596  0.00  0.00    -0.020 C 
ATOM     15  C   UNL A   1      33.649 -34.702 -29.932  0.00  0.00    +0.017 C 
ATOM     16  N   UNL A   1      34.529 -33.925 -30.819  0.00  0.00    -0.293 N 
ATOM     17  C   UNL A   1      34.248 -32.630 -31.261  0.00  0.00    +0.247 C 
ATOM     18  O   UNL A   1      35.094 -31.892 -31.762  0.00  0.00    -0.270 OA
ATOM     19  C   UNL A   1      35.919 -34.379 -31.014  0.00  0.00    +0.040 C 
ENDROOT
BRANCH  17  20
ATOM     20  C   UNL A   1      32.877 -32.094 -31.120  0.00  0.00    +0.037 A 
ATOM     21  C   UNL A   1      32.603 -31.043 -30.239  0.00  0.00    -0.049 A 
ATOM     22  C   UNL A   1      31.295 -30.570 -30.109  0.00  0.00    -0.047 A 
ATOM     23  C   UNL A   1      30.269 -31.164 -30.846  0.00  0.00    +0.018 A 
ATOM     24 BR   UNL A   1      28.498 -30.525 -30.667  0.00  0.00    -0.050 Br
ATOM     25  C   UNL A   1      30.535 -32.231 -31.705  0.00  0.00    -0.047 A 
ATOM     26  C   UNL A   1      31.842 -32.703 -31.837  0.00  0.00    -0.049 A 
ENDBRANCH  17  20
BRANCH   1  28
ATOM     27  C   UNL A   1      37.276 -40.287 -28.602  0.00  0.00    +0.079 C 
ATOM     28  O   UNL A   1      36.443 -39.916 -29.691  0.00  0.00    -0.491 OA
ENDBRANCH   1  28
BRANCH  10  29
ATOM     29  O   UNL A   1      30.399 -37.014 -33.418  0.00  0.00    -0.388 OA
ATOM     30  H   UNL A   1      29.954 -37.057 -34.278  0.00  0.00    +0.000 HD
ENDBRANCH  10  29
TORSDOF 3
ENDMDL
MODEL 5
REMARK VINA RESULT:    -7.330     18.810     22.303
REMARK INTER + INTRA:          -9.044
REMARK INTER:                  -8.525
REMARK INTRA:                  -0.519
REMARK UNBOUND:                -0.643
REMARK  Name = cpd318.pdb
REMARK  4 active torsions:
REMARK  status: ('A' for Active; 'I' for Inactive)
REMARK    1  A    between atoms: C_1  and  O_2
REMARK    2  A    between atoms: O_2  and  C_3
REMARK    3  A    between atoms: C_12  and  O_13
REMARK    4  A    between atoms: C_20  and  C_22
REMARK                            x       y       z     vdW  Elec       q    Type
REMARK                         _______ _______ _______ _____ _____    ______ ____
ROOT
ATOM      1  C   UNL A   1      41.157 -21.425 -36.949  0.00  0.00    +0.162 A 
ATOM      2  C   UNL A   1      41.659 -21.096 -35.686  0.00  0.00    -0.016 A 
ATOM      3  C   UNL A   1      42.939 -20.518 -35.539  0.00  0.00    -0.053 A 
ATOM      4  C   UNL A   1      43.761 -20.273 -36.649  0.00  0.00    -0.022 A 
ATOM      5  C   UNL A   1      43.305 -20.727 -37.878  0.00  0.00    +0.016 A 
ATOM      6  C   UNL A   1      42.003 -21.224 -38.027  0.00  0.00    +0.167 A 
ATOM      7  O   UNL A   1      41.645 -21.385 -39.362  0.00  0.00    -0.484 OA
ATOM      8  C   UNL A   1      42.943 -21.483 -39.963  0.00  0.00    +0.116 C 
ATOM      9  C   UNL A   1      43.030 -21.280 -41.465  0.00  0.00    +0.015 C 
ATOM     10  C   UNL A   1      44.482 -21.569 -41.910  0.00  0.00    +0.077 C 
ATOM     11  C   UNL A   1      45.536 -21.416 -40.831  0.00  0.00    -0.059 C 
ATOM     12  C   UNL A   1      45.280 -20.971 -39.583  0.00  0.00    -0.071 C 
ATOM     13  C   UNL A   1      43.891 -20.500 -39.230  0.00  0.00    +0.056 C 
ATOM     14  C   UNL A   1      43.727 -18.993 -39.551  0.00  0.00    -0.020 C 
ATOM     15  C   UNL A   1      44.215 -18.038 -38.438  0.00  0.00    +0.017 C 
ATOM     16  N   UNL A   1      45.333 -18.557 -37.634  0.00  0.00    -0.293 N 
ATOM     17  C   UNL A   1      46.623 -18.022 -37.651  0.00  0.00    +0.247 C 
ATOM     18  O   UNL A   1      47.465 -18.272 -36.791  0.00  0.00    -0.270 OA
ATOM     19  C   UNL A   1      45.037 -19.478 -36.520  0.00  0.00    +0.040 C 
ENDROOT
BRANCH  17  20
ATOM     20  C   UNL A   1      47.015 -17.101 -38.738  0.00  0.00    +0.037 A 
ATOM     21  C   UNL A   1      47.070 -17.538 -40.066  0.00  0.00    -0.049 A 
ATOM     22  C   UNL A   1      47.466 -16.653 -41.071  0.00  0.00    -0.047 A 
ATOM     23  C   UNL A   1      47.820 -15.344 -40.740  0.00  0.00    +0.018 A 
ATOM     24 BR   UNL A   1      48.358 -14.147 -42.102  0.00  0.00    -0.050 Br
ATOM     25  C   UNL A   1      47.793 -14.913 -39.413  0.00  0.00    -0.047 A 
ATOM     26  C   UNL A   1      47.396 -15.796 -38.407  0.00  0.00    -0.049 A 
ENDBRANCH  17  20
BRANCH   1  28
ATOM     27  C   UNL A   1      39.331 -22.766 -36.239  0.00  0.00    +0.079 C 
ATOM     28  O   UNL A   1      39.917 -21.923 -37.220  0.00  0.00    -0.491 OA
ENDBRANCH   1  28
BRANCH  10  29
ATOM     29  O   UNL A   1      44.841 -20.700 -42.974  0.00  0.00    -0.388 OA
ATOM     30  H   UNL A   1      44.406 -20.992 -43.790  0.00  0.00    +0.000 HD
ENDBRANCH  10  29
TORSDOF 3
ENDMDL
MODEL 6
REMARK VINA RESULT:    -7.306      2.495      3.673
REMARK INTER + INTRA:          -9.017
REMARK INTER:                  -8.378
REMARK INTRA:                  -0.640
REMARK UNBOUND:                -0.643
REMARK  Name = cpd318.pdb
REMARK  4 active torsions:
REMARK  status: ('A' for Active; 'I' for Inactive)
REMARK    1  A    between atoms: C_1  and  O_2
REMARK    2  A    between atoms: O_2  and  C_3
REMARK    3  A    between atoms: C_12  and  O_13
REMARK    4  A    between atoms: C_20  and  C_22
REMARK                            x       y       z     vdW  Elec       q    Type
REMARK                         _______ _______ _______ _____ _____    ______ ____
ROOT
ATOM      1  C   UNL A   1      38.142 -37.537 -29.529  0.00  0.00    +0.162 A 
ATOM      2  C   UNL A   1      38.614 -36.807 -30.624  0.00  0.00    -0.016 A 
ATOM      3  C   UNL A   1      37.753 -35.971 -31.367  0.00  0.00    -0.053 A 
ATOM      4  C   UNL A   1      36.391 -35.858 -31.049  0.00  0.00    -0.022 A 
ATOM      5  C   UNL A   1      35.912 -36.689 -30.046  0.00  0.00    +0.016 A 
ATOM      6  C   UNL A   1      36.786 -37.453 -29.262  0.00  0.00    +0.167 A 
ATOM      7  O   UNL A   1      36.155 -38.014 -28.156  0.00  0.00    -0.484 OA
ATOM      8  C   UNL A   1      34.794 -38.004 -28.607  0.00  0.00    +0.116 C 
ATOM      9  C   UNL A   1      33.712 -38.174 -27.556  0.00  0.00    +0.015 C 
ATOM     10  C   UNL A   1      32.349 -38.274 -28.276  0.00  0.00    +0.077 C 
ATOM     11  C   UNL A   1      32.293 -37.649 -29.656  0.00  0.00    -0.059 C 
ATOM     12  C   UNL A   1      33.312 -36.963 -30.215  0.00  0.00    -0.071 C 
ATOM     13  C   UNL A   1      34.562 -36.700 -29.414  0.00  0.00    +0.056 C 
ATOM     14  C   UNL A   1      34.427 -35.387 -28.603  0.00  0.00    -0.020 C 
ATOM     15  C   UNL A   1      34.791 -34.105 -29.386  0.00  0.00    +0.017 C 
ATOM     16  N   UNL A   1      34.522 -34.173 -30.831  0.00  0.00    -0.293 N 
ATOM     17  C   UNL A   1      33.543 -33.416 -31.481  0.00  0.00    +0.247 C 
ATOM     18  O   UNL A   1      33.507 -33.269 -32.701  0.00  0.00    -0.270 OA
ATOM     19  C   UNL A   1      35.515 -34.821 -31.708  0.00  0.00    +0.040 C 
ENDROOT
BRANCH  17  20
ATOM     20  C   UNL A   1      32.497 -32.742 -30.685  0.00  0.00    +0.037 A 
ATOM     21  C   UNL A   1      31.387 -33.449 -30.209  0.00  0.00    -0.049 A 
ATOM     22  C   UNL A   1      30.401 -32.782 -29.478  0.00  0.00    -0.047 A 
ATOM     23  C   UNL A   1      30.522 -31.411 -29.244  0.00  0.00    +0.018 A 
ATOM     24 BR   UNL A   1      29.185 -30.509 -28.257  0.00  0.00    -0.050 Br
ATOM     25  C   UNL A   1      31.614 -30.698 -29.741  0.00  0.00    -0.047 A 
ATOM     26  C   UNL A   1      32.601 -31.363 -30.470  0.00  0.00    -0.049 A 
ENDBRANCH  17  20
BRANCH   1  28
ATOM     27  C   UNL A   1      40.297 -38.145 -28.737  0.00  0.00    +0.079 C 
ATOM     28  O   UNL A   1      38.888 -38.322 -28.700  0.00  0.00    -0.491 OA
ENDBRANCH   1  28
BRANCH  10  29
ATOM     29  O   UNL A   1      31.343 -37.651 -27.491  0.00  0.00    -0.388 OA
ATOM     30  H   UNL A   1      31.722 -36.889 -27.026  0.00  0.00    +0.000 HD
ENDBRANCH  10  29
TORSDOF 3
ENDMDL
MODEL 7
REMARK VINA RESULT:    -7.297     16.477     19.464
REMARK INTER + INTRA:          -9.006
REMARK INTER:                  -8.370
REMARK INTRA:                  -0.636
REMARK UNBOUND:                -0.643
REMARK  Name = cpd318.pdb
REMARK  4 active torsions:
REMARK  status: ('A' for Active; 'I' for Inactive)
REMARK    1  A    between atoms: C_1  and  O_2
REMARK    2  A    between atoms: O_2  and  C_3
REMARK    3  A    between atoms: C_12  and  O_13
REMARK    4  A    between atoms: C_20  and  C_22
REMARK                            x       y       z     vdW  Elec       q    Type
REMARK                         _______ _______ _______ _____ _____    ______ ____
ROOT
ATOM      1  C   UNL A   1      36.224 -18.626 -32.609  0.00  0.00    +0.162 A 
ATOM      2  C   UNL A   1      36.573 -17.347 -32.167  0.00  0.00    -0.016 A 
ATOM      3  C   UNL A   1      37.926 -16.970 -32.023  0.00  0.00    -0.053 A 
ATOM      4  C   UNL A   1      38.967 -17.870 -32.297  0.00  0.00    -0.022 A 
ATOM      5  C   UNL A   1      38.604 -19.172 -32.606  0.00  0.00    +0.016 A 
ATOM      6  C   UNL A   1      37.263 -19.516 -32.826  0.00  0.00    +0.167 A 
ATOM      7  O   UNL A   1      37.123 -20.788 -33.371  0.00  0.00    -0.484 OA
ATOM      8  C   UNL A   1      38.364 -21.378 -32.962  0.00  0.00    +0.116 C 
ATOM      9  C   UNL A   1      38.799 -22.646 -33.675  0.00  0.00    +0.015 C 
ATOM     10  C   UNL A   1      40.075 -23.177 -32.983  0.00  0.00    +0.077 C 
ATOM     11  C   UNL A   1      40.886 -22.143 -32.230  0.00  0.00    -0.059 C 
ATOM     12  C   UNL A   1      40.600 -20.824 -32.215  0.00  0.00    -0.071 C 
ATOM     13  C   UNL A   1      39.470 -20.297 -33.063  0.00  0.00    +0.056 C 
ATOM     14  C   UNL A   1      39.974 -19.936 -34.483  0.00  0.00    -0.020 C 
ATOM     15  C   UNL A   1      40.584 -18.522 -34.613  0.00  0.00    +0.017 C 
ATOM     16  N   UNL A   1      41.239 -18.024 -33.392  0.00  0.00    -0.293 N 
ATOM     17  C   UNL A   1      42.615 -17.814 -33.273  0.00  0.00    +0.247 C 
ATOM     18  O   UNL A   1      43.117 -17.149 -32.369  0.00  0.00    -0.270 OA
ATOM     19  C   UNL A   1      40.406 -17.415 -32.339  0.00  0.00    +0.040 C 
ENDROOT
BRANCH  17  20
ATOM     20  C   UNL A   1      43.530 -18.400 -34.275  0.00  0.00    +0.037 A 
ATOM     21  C   UNL A   1      43.933 -19.736 -34.186  0.00  0.00    -0.049 A 
ATOM     22  C   UNL A   1      44.817 -20.258 -35.134  0.00  0.00    -0.047 A 
ATOM     23  C   UNL A   1      45.305 -19.436 -36.151  0.00  0.00    +0.018 A 
ATOM     24 BR   UNL A   1      46.504 -20.144 -37.431  0.00  0.00    -0.050 Br
ATOM     25  C   UNL A   1      44.927 -18.095 -36.225  0.00  0.00    -0.047 A 
ATOM     26  C   UNL A   1      44.042 -17.572 -35.281  0.00  0.00    -0.049 A 
ENDBRANCH  17  20
BRANCH   1  28
ATOM     27  C   UNL A   1      33.908 -18.130 -32.782  0.00  0.00    +0.079 C 
ATOM     28  O   UNL A   1      34.961 -19.081 -32.849  0.00  0.00    -0.491 OA
ENDBRANCH   1  28
BRANCH  10  29
ATOM     29  O   UNL A   1      40.935 -23.765 -33.948  0.00  0.00    -0.388 OA
ATOM     30  H   UNL A   1      40.430 -24.385 -34.497  0.00  0.00    +0.000 HD
ENDBRANCH  10  29
TORSDOF 3
ENDMDL
MODEL 8
REMARK VINA RESULT:    -7.237     21.445     23.870
REMARK INTER + INTRA:          -8.938
REMARK INTER:                  -8.323
REMARK INTRA:                  -0.615
REMARK UNBOUND:                -0.643
REMARK  Name = cpd318.pdb
REMARK  4 active torsions:
REMARK  status: ('A' for Active; 'I' for Inactive)
REMARK    1  A    between atoms: C_1  and  O_2
REMARK    2  A    between atoms: O_2  and  C_3
REMARK    3  A    between atoms: C_12  and  O_13
REMARK    4  A    between atoms: C_20  and  C_22
REMARK                            x       y       z     vdW  Elec       q    Type
REMARK                         _______ _______ _______ _____ _____    ______ ____
ROOT
ATOM      1  C   UNL A   1      45.679 -21.954 -41.587  0.00  0.00    +0.162 A 
ATOM      2  C   UNL A   1      45.082 -21.379 -42.713  0.00  0.00    -0.016 A 
ATOM      3  C   UNL A   1      44.699 -20.020 -42.719  0.00  0.00    -0.053 A 
ATOM      4  C   UNL A   1      44.882 -19.204 -41.592  0.00  0.00    -0.022 A 
ATOM      5  C   UNL A   1      45.352 -19.822 -40.442  0.00  0.00    +0.016 A 
ATOM      6  C   UNL A   1      45.805 -21.148 -40.468  0.00  0.00    +0.167 A 
ATOM      7  O   UNL A   1      46.469 -21.504 -39.299  0.00  0.00    -0.484 OA
ATOM      8  C   UNL A   1      45.923 -20.538 -38.391  0.00  0.00    +0.116 C 
ATOM      9  C   UNL A   1      46.663 -20.317 -37.084  0.00  0.00    +0.015 C 
ATOM     10  C   UNL A   1      45.828 -19.352 -36.212  0.00  0.00    +0.077 C 
ATOM     11  C   UNL A   1      44.874 -18.451 -36.969  0.00  0.00    -0.059 C 
ATOM     12  C   UNL A   1      44.794 -18.397 -38.315  0.00  0.00    -0.071 C 
ATOM     13  C   UNL A   1      45.760 -19.197 -39.152  0.00  0.00    +0.056 C 
ATOM     14  C   UNL A   1      47.050 -18.384 -39.427  0.00  0.00    -0.020 C 
ATOM     15  C   UNL A   1      46.964 -17.428 -40.638  0.00  0.00    +0.017 C 
ATOM     16  N   UNL A   1      45.619 -16.889 -40.899  0.00  0.00    -0.293 N 
ATOM     17  C   UNL A   1      45.271 -15.546 -40.740  0.00  0.00    +0.247 C 
ATOM     18  O   UNL A   1      44.248 -15.057 -41.214  0.00  0.00    -0.270 OA
ATOM     19  C   UNL A   1      44.661 -17.713 -41.660  0.00  0.00    +0.040 C 
ENDROOT
BRANCH  17  20
ATOM     20  C   UNL A   1      46.163 -14.647 -39.978  0.00  0.00    +0.037 A 
ATOM     21  C   UNL A   1      46.949 -13.692 -40.631  0.00  0.00    -0.049 A 
ATOM     22  C   UNL A   1      47.801 -12.870 -39.890  0.00  0.00    -0.047 A 
ATOM     23  C   UNL A   1      47.874 -13.021 -38.504  0.00  0.00    +0.018 A 
ATOM     24 BR   UNL A   1      49.030 -11.910 -37.501  0.00  0.00    -0.050 Br
ATOM     25  C   UNL A   1      47.111 -13.991 -37.852  0.00  0.00    -0.047 A 
ATOM     26  C   UNL A   1      46.259 -14.813 -38.592  0.00  0.00    -0.049 A 
ENDBRANCH  17  20
BRANCH   1  28
ATOM     27  C   UNL A   1      47.366 -23.525 -42.157  0.00  0.00    +0.079 C 
ATOM     28  O   UNL A   1      46.150 -23.230 -41.486  0.00  0.00    -0.491 OA
ENDBRANCH   1  28
BRANCH  10  29
ATOM     29  O   UNL A   1      46.693 -18.512 -35.461  0.00  0.00    -0.388 OA
ATOM     30  H   UNL A   1      46.224 -18.184 -34.678  0.00  0.00    +0.000 HD
ENDBRANCH  10  29
TORSDOF 3
ENDMDL
MODEL 9
REMARK VINA RESULT:    -7.035      2.186      4.659
REMARK INTER + INTRA:          -8.706
REMARK INTER:                  -8.057
REMARK INTRA:                  -0.649
REMARK UNBOUND:                -0.643
REMARK  Name = cpd318.pdb
REMARK  4 active torsions:
REMARK  status: ('A' for Active; 'I' for Inactive)
REMARK    1  A    between atoms: C_1  and  O_2
REMARK    2  A    between atoms: O_2  and  C_3
REMARK    3  A    between atoms: C_12  and  O_13
REMARK    4  A    between atoms: C_20  and  C_22
REMARK                            x       y       z     vdW  Elec       q    Type
REMARK                         _______ _______ _______ _____ _____    ______ ____
ROOT
ATOM      1  C   UNL A   1      38.320 -36.415 -30.833  0.00  0.00    +0.162 A 
ATOM      2  C   UNL A   1      38.713 -37.234 -29.771  0.00  0.00    -0.016 A 
ATOM      3  C   UNL A   1      37.853 -37.469 -28.676  0.00  0.00    -0.053 A 
ATOM      4  C   UNL A   1      36.585 -36.874 -28.603  0.00  0.00    -0.022 A 
ATOM      5  C   UNL A   1      36.264 -35.961 -29.597  0.00  0.00    +0.016 A 
ATOM      6  C   UNL A   1      37.086 -35.796 -30.720  0.00  0.00    +0.167 A 
ATOM      7  O   UNL A   1      36.479 -35.040 -31.716  0.00  0.00    -0.484 OA
ATOM      8  C   UNL A   1      35.511 -34.323 -30.938  0.00  0.00    +0.116 C 
ATOM      9  C   UNL A   1      34.367 -33.663 -31.687  0.00  0.00    +0.015 C 
ATOM     10  C   UNL A   1      33.538 -32.839 -30.677  0.00  0.00    +0.077 C 
ATOM     11  C   UNL A   1      33.644 -33.282 -29.232  0.00  0.00    -0.059 C 
ATOM     12  C   UNL A   1      34.329 -34.372 -28.825  0.00  0.00    -0.071 C 
ATOM     13  C   UNL A   1      34.962 -35.280 -29.849  0.00  0.00    +0.056 C 
ATOM     14  C   UNL A   1      33.960 -36.368 -30.310  0.00  0.00    -0.020 C 
ATOM     15  C   UNL A   1      33.900 -37.617 -29.401  0.00  0.00    +0.017 C 
ATOM     16  N   UNL A   1      34.184 -37.354 -27.981  0.00  0.00    -0.293 N 
ATOM     17  C   UNL A   1      33.236 -37.464 -26.961  0.00  0.00    +0.247 C 
ATOM     18  O   UNL A   1      33.534 -37.517 -25.770  0.00  0.00    -0.270 OA
ATOM     19  C   UNL A   1      35.589 -37.276 -27.542  0.00  0.00    +0.040 C 
ENDROOT
BRANCH  17  20
ATOM     20  C   UNL A   1      31.800 -37.534 -27.305  0.00  0.00    +0.037 A 
ATOM     21  C   UNL A   1      31.138 -38.763 -27.380  0.00  0.00    -0.049 A 
ATOM     22  C   UNL A   1      29.785 -38.802 -27.729  0.00  0.00    -0.047 A 
ATOM     23  C   UNL A   1      29.112 -37.614 -28.017  0.00  0.00    +0.018 A 
ATOM     24 BR   UNL A   1      27.282 -37.668 -28.493  0.00  0.00    -0.050 Br
ATOM     25  C   UNL A   1      29.777 -36.388 -27.970  0.00  0.00    -0.047 A 
ATOM     26  C   UNL A   1      31.128 -36.348 -27.620  0.00  0.00    -0.049 A 
ENDBRANCH  17  20
BRANCH   1  28
ATOM     27  C   UNL A   1      39.964 -35.097 -31.928  0.00  0.00    +0.079 C 
ATOM     28  O   UNL A   1      39.033 -36.169 -31.969  0.00  0.00    -0.491 OA
ENDBRANCH   1  28
BRANCH  10  29
ATOM     29  O   UNL A   1      32.164 -32.885 -31.031  0.00  0.00    -0.388 OA
ATOM     30  H   UNL A   1      32.078 -33.146 -31.961  0.00  0.00    +0.000 HD
ENDBRANCH  10  29
TORSDOF 3
ENDMDL
MODEL 10
REMARK VINA RESULT:    -7.003     19.388     22.374
REMARK INTER + INTRA:          -8.670
REMARK INTER:                  -8.197
REMARK INTRA:                  -0.473
REMARK UNBOUND:                -0.643
REMARK  Name = cpd318.pdb
REMARK  4 active torsions:
REMARK  status: ('A' for Active; 'I' for Inactive)
REMARK    1  A    between atoms: C_1  and  O_2
REMARK    2  A    between atoms: O_2  and  C_3
REMARK    3  A    between atoms: C_12  and  O_13
REMARK    4  A    between atoms: C_20  and  C_22
REMARK                            x       y       z     vdW  Elec       q    Type
REMARK                         _______ _______ _______ _____ _____    ______ ____
ROOT
ATOM      1  C   UNL A   1      47.965 -14.947 -38.978  0.00  0.00    +0.162 A 
ATOM      2  C   UNL A   1      47.925 -15.185 -40.355  0.00  0.00    -0.016 A 
ATOM      3  C   UNL A   1      47.354 -16.368 -40.873  0.00  0.00    -0.053 A 
ATOM      4  C   UNL A   1      46.826 -17.355 -40.027  0.00  0.00    -0.022 A 
ATOM      5  C   UNL A   1      46.993 -17.165 -38.663  0.00  0.00    +0.016 A 
ATOM      6  C   UNL A   1      47.486 -15.954 -38.157  0.00  0.00    +0.167 A 
ATOM      7  O   UNL A   1      47.340 -15.857 -36.777  0.00  0.00    -0.484 OA
ATOM      8  C   UNL A   1      47.248 -17.246 -36.432  0.00  0.00    +0.116 C 
ATOM      9  C   UNL A   1      46.694 -17.586 -35.060  0.00  0.00    +0.015 C 
ATOM     10  C   UNL A   1      46.819 -19.112 -34.852  0.00  0.00    +0.077 C 
ATOM     11  C   UNL A   1      46.888 -19.939 -36.120  0.00  0.00    -0.059 C 
ATOM     12  C   UNL A   1      46.760 -19.427 -37.362  0.00  0.00    -0.071 C 
ATOM     13  C   UNL A   1      46.433 -17.966 -37.536  0.00  0.00    +0.056 C 
ATOM     14  C   UNL A   1      44.900 -17.743 -37.536  0.00  0.00    -0.020 C 
ATOM     15  C   UNL A   1      44.218 -17.946 -38.909  0.00  0.00    +0.017 C 
ATOM     16  N   UNL A   1      44.873 -18.938 -39.777  0.00  0.00    -0.293 N 
ATOM     17  C   UNL A   1      44.304 -20.164 -40.130  0.00  0.00    +0.247 C 
ATOM     18  O   UNL A   1      44.720 -20.854 -41.058  0.00  0.00    -0.270 OA
ATOM     19  C   UNL A   1      46.040 -18.520 -40.576  0.00  0.00    +0.040 C 
ENDROOT
BRANCH  17  20
ATOM     20  C   UNL A   1      43.139 -20.671 -39.375  0.00  0.00    +0.037 A 
ATOM     21  C   UNL A   1      41.892 -20.820 -39.991  0.00  0.00    -0.049 A 
ATOM     22  C   UNL A   1      40.802 -21.280 -39.248  0.00  0.00    -0.047 A 
ATOM     23  C   UNL A   1      40.963 -21.572 -37.893  0.00  0.00    +0.018 A 
ATOM     24 BR   UNL A   1      39.486 -22.193 -36.888  0.00  0.00    -0.050 Br
ATOM     25  C   UNL A   1      42.200 -21.399 -37.269  0.00  0.00    -0.047 A 
ATOM     26  C   UNL A   1      43.290 -20.940 -38.010  0.00  0.00    -0.049 A 
ENDBRANCH  17  20
BRANCH   1  28
ATOM     27  C   UNL A   1      49.573 -13.201 -38.934  0.00  0.00    +0.079 C 
ATOM     28  O   UNL A   1      48.428 -13.819 -38.366  0.00  0.00    -0.491 OA
ENDBRANCH   1  28
BRANCH  10  29
ATOM     29  O   UNL A   1      45.712 -19.587 -34.099  0.00  0.00    -0.388 OA
ATOM     30  H   UNL A   1      45.014 -18.914 -34.091  0.00  0.00    +0.000 HD
ENDBRANCH  10  29
TORSDOF 3
ENDMDL
MODEL 11
REMARK VINA RESULT:    -6.985      3.365      7.717
REMARK INTER + INTRA:          -8.649
REMARK INTER:                  -8.135
REMARK INTRA:                  -0.515
REMARK UNBOUND:                -0.643
REMARK  Name = cpd318.pdb
REMARK  4 active torsions:
REMARK  status: ('A' for Active; 'I' for Inactive)
REMARK    1  A    between atoms: C_1  and  O_2
REMARK    2  A    between atoms: O_2  and  C_3
REMARK    3  A    between atoms: C_12  and  O_13
REMARK    4  A    between atoms: C_20  and  C_22
REMARK                            x       y       z     vdW  Elec       q    Type
REMARK                         _______ _______ _______ _____ _____    ______ ____
ROOT
ATOM      1  C   UNL A   1      31.558 -37.260 -26.122  0.00  0.00    +0.162 A 
ATOM      2  C   UNL A   1      32.079 -38.405 -25.514  0.00  0.00    -0.016 A 
ATOM      3  C   UNL A   1      33.184 -39.086 -26.071  0.00  0.00    -0.053 A 
ATOM      4  C   UNL A   1      33.784 -38.652 -27.263  0.00  0.00    -0.022 A 
ATOM      5  C   UNL A   1      33.173 -37.595 -27.922  0.00  0.00    +0.016 A 
ATOM      6  C   UNL A   1      32.129 -36.875 -27.323  0.00  0.00    +0.167 A 
ATOM      7  O   UNL A   1      31.823 -35.708 -28.015  0.00  0.00    -0.484 OA
ATOM      8  C   UNL A   1      32.339 -36.038 -29.312  0.00  0.00    +0.116 C 
ATOM      9  C   UNL A   1      32.562 -34.893 -30.283  0.00  0.00    +0.015 C 
ATOM     10  C   UNL A   1      32.979 -35.489 -31.646  0.00  0.00    +0.077 C 
ATOM     11  C   UNL A   1      33.600 -36.869 -31.591  0.00  0.00    -0.059 C 
ATOM     12  C   UNL A   1      33.873 -37.529 -30.446  0.00  0.00    -0.071 C 
ATOM     13  C   UNL A   1      33.648 -36.846 -29.121  0.00  0.00    +0.056 C 
ATOM     14  C   UNL A   1      34.908 -36.052 -28.692  0.00  0.00    -0.020 C 
ATOM     15  C   UNL A   1      35.978 -36.888 -27.954  0.00  0.00    +0.017 C 
ATOM     16  N   UNL A   1      36.034 -38.303 -28.357  0.00  0.00    -0.293 N 
ATOM     17  C   UNL A   1      37.106 -38.878 -29.044  0.00  0.00    +0.247 C 
ATOM     18  O   UNL A   1      37.273 -40.093 -29.132  0.00  0.00    -0.270 OA
ATOM     19  C   UNL A   1      35.080 -39.251 -27.753  0.00  0.00    +0.040 C 
ENDROOT
BRANCH  17  20
ATOM     20  C   UNL A   1      38.106 -38.006 -29.695  0.00  0.00    +0.037 A 
ATOM     21  C   UNL A   1      37.747 -37.169 -30.756  0.00  0.00    -0.049 A 
ATOM     22  C   UNL A   1      38.716 -36.371 -31.369  0.00  0.00    -0.047 A 
ATOM     23  C   UNL A   1      40.040 -36.431 -30.929  0.00  0.00    +0.018 A 
ATOM     24 BR   UNL A   1      41.352 -35.353 -31.761  0.00  0.00    -0.050 Br
ATOM     25  C   UNL A   1      40.406 -37.286 -29.889  0.00  0.00    -0.047 A 
ATOM     26  C   UNL A   1      39.438 -38.082 -29.274  0.00  0.00    -0.049 A 
ENDBRANCH  17  20
BRANCH   1  28
ATOM     27  C   UNL A   1      29.809 -36.989 -24.538  0.00  0.00    +0.079 C 
ATOM     28  O   UNL A   1      30.542 -36.484 -25.645  0.00  0.00    -0.491 OA
ENDBRANCH   1  28
BRANCH  10  29
ATOM     29  O   UNL A   1      33.916 -34.630 -32.280  0.00  0.00    -0.388 OA
ATOM     30  H   UNL A   1      33.565 -33.727 -32.300  0.00  0.00    +0.000 HD
ENDBRANCH  10  29
TORSDOF 3
ENDMDL
MODEL 12
REMARK VINA RESULT:    -6.849     24.447     28.664
REMARK INTER + INTRA:          -8.493
REMARK INTER:                  -7.901
REMARK INTRA:                  -0.591
REMARK UNBOUND:                -0.643
REMARK  Name = cpd318.pdb
REMARK  4 active torsions:
REMARK  status: ('A' for Active; 'I' for Inactive)
REMARK    1  A    between atoms: C_1  and  O_2
REMARK    2  A    between atoms: O_2  and  C_3
REMARK    3  A    between atoms: C_12  and  O_13
REMARK    4  A    between atoms: C_20  and  C_22
REMARK                            x       y       z     vdW  Elec       q    Type
REMARK                         _______ _______ _______ _____ _____    ______ ____
ROOT
ATOM      1  C   UNL A   1      54.291 -35.215 -46.188  0.00  0.00    +0.162 A 
ATOM      2  C   UNL A   1      55.157 -34.129 -46.030  0.00  0.00    -0.016 A 
ATOM      3  C   UNL A   1      56.076 -33.777 -47.043  0.00  0.00    -0.053 A 
ATOM      4  C   UNL A   1      56.168 -34.515 -48.233  0.00  0.00    -0.022 A 
ATOM      5  C   UNL A   1      55.397 -35.665 -48.317  0.00  0.00    +0.016 A 
ATOM      6  C   UNL A   1      54.431 -35.961 -47.346  0.00  0.00    +0.167 A 
ATOM      7  O   UNL A   1      53.593 -37.002 -47.730  0.00  0.00    -0.484 OA
ATOM      8  C   UNL A   1      54.425 -37.655 -48.699  0.00  0.00    +0.116 C 
ATOM      9  C   UNL A   1      53.750 -38.623 -49.654  0.00  0.00    +0.015 C 
ATOM     10  C   UNL A   1      54.845 -39.307 -50.504  0.00  0.00    +0.077 C 
ATOM     11  C   UNL A   1      56.144 -38.537 -50.634  0.00  0.00    -0.059 C 
ATOM     12  C   UNL A   1      56.340 -37.298 -50.137  0.00  0.00    -0.071 C 
ATOM     13  C   UNL A   1      55.193 -36.565 -49.489  0.00  0.00    +0.056 C 
ATOM     14  C   UNL A   1      54.390 -35.763 -50.544  0.00  0.00    -0.020 C 
ATOM     15  C   UNL A   1      54.961 -34.363 -50.863  0.00  0.00    +0.017 C 
ATOM     16  N   UNL A   1      56.422 -34.254 -50.733  0.00  0.00    -0.293 N 
ATOM     17  C   UNL A   1      57.290 -34.052 -51.809  0.00  0.00    +0.247 C 
ATOM     18  O   UNL A   1      58.457 -33.689 -51.672  0.00  0.00    -0.270 OA
ATOM     19  C   UNL A   1      57.000 -34.029 -49.395  0.00  0.00    +0.040 C 
ENDROOT
BRANCH  17  20
ATOM     20  C   UNL A   1      56.804 -34.267 -53.187  0.00  0.00    +0.037 A 
ATOM     21  C   UNL A   1      56.395 -33.192 -53.982  0.00  0.00    -0.049 A 
ATOM     22  C   UNL A   1      55.918 -33.425 -55.274  0.00  0.00    -0.047 A 
ATOM     23  C   UNL A   1      55.837 -34.733 -55.755  0.00  0.00    +0.018 A 
ATOM     24 BR   UNL A   1      55.189 -35.049 -57.503  0.00  0.00    -0.050 Br
ATOM     25  C   UNL A   1      56.219 -35.811 -54.955  0.00  0.00    -0.047 A 
ATOM     26  C   UNL A   1      56.697 -35.579 -53.664  0.00  0.00    -0.049 A 
ENDBRANCH  17  20
BRANCH   1  28
ATOM     27  C   UNL A   1      52.021 -35.071 -45.506  0.00  0.00    +0.079 C 
ATOM     28  O   UNL A   1      53.321 -35.608 -45.313  0.00  0.00    -0.491 OA
ENDBRANCH   1  28
BRANCH  10  29
ATOM     29  O   UNL A   1      54.360 -39.538 -51.818  0.00  0.00    -0.388 OA
ATOM     30  H   UNL A   1      54.259 -38.691 -52.279  0.00  0.00    +0.000 HD
ENDBRANCH  10  29
TORSDOF 3
ENDMDL
MODEL 13
REMARK VINA RESULT:    -6.747     20.238     21.885
REMARK INTER + INTRA:          -8.376
REMARK INTER:                  -7.731
REMARK INTRA:                  -0.645
REMARK UNBOUND:                -0.643
REMARK  Name = cpd318.pdb
REMARK  4 active torsions:
REMARK  status: ('A' for Active; 'I' for Inactive)
REMARK    1  A    between atoms: C_1  and  O_2
REMARK    2  A    between atoms: O_2  and  C_3
REMARK    3  A    between atoms: C_12  and  O_13
REMARK    4  A    between atoms: C_20  and  C_22
REMARK                            x       y       z     vdW  Elec       q    Type
REMARK                         _______ _______ _______ _____ _____    ______ ____
ROOT
ATOM      1  C   UNL A   1      40.917 -17.453 -35.567  0.00  0.00    +0.162 A 
ATOM      2  C   UNL A   1      40.364 -16.758 -36.647  0.00  0.00    -0.016 A 
ATOM      3  C   UNL A   1      41.019 -16.715 -37.897  0.00  0.00    -0.053 A 
ATOM      4  C   UNL A   1      42.254 -17.349 -38.096  0.00  0.00    -0.022 A 
ATOM      5  C   UNL A   1      42.851 -17.920 -36.982  0.00  0.00    +0.016 A 
ATOM      6  C   UNL A   1      42.160 -18.029 -35.767  0.00  0.00    +0.167 A 
ATOM      7  O   UNL A   1      42.815 -18.849 -34.855  0.00  0.00    -0.484 OA
ATOM      8  C   UNL A   1      44.154 -18.778 -35.364  0.00  0.00    +0.116 C 
ATOM      9  C   UNL A   1      45.133 -19.839 -34.894  0.00  0.00    +0.015 C 
ATOM     10  C   UNL A   1      46.531 -19.488 -35.451  0.00  0.00    +0.077 C 
ATOM     11  C   UNL A   1      46.539 -18.621 -36.693  0.00  0.00    -0.059 C 
ATOM     12  C   UNL A   1      45.426 -18.237 -37.353  0.00  0.00    -0.071 C 
ATOM     13  C   UNL A   1      44.082 -18.760 -36.913  0.00  0.00    +0.056 C 
ATOM     14  C   UNL A   1      43.758 -20.101 -37.618  0.00  0.00    -0.020 C 
ATOM     15  C   UNL A   1      43.120 -19.956 -39.019  0.00  0.00    +0.017 C 
ATOM     16  N   UNL A   1      43.536 -18.754 -39.759  0.00  0.00    -0.293 N 
ATOM     17  C   UNL A   1      44.316 -18.780 -40.918  0.00  0.00    +0.247 C 
ATOM     18  O   UNL A   1      44.425 -17.819 -41.675  0.00  0.00    -0.270 OA
ATOM     19  C   UNL A   1      42.858 -17.476 -39.474  0.00  0.00    +0.040 C 
ENDROOT
BRANCH  17  20
ATOM     20  C   UNL A   1      45.045 -20.015 -41.277  0.00  0.00    +0.037 A 
ATOM     21  C   UNL A   1      46.195 -20.399 -40.580  0.00  0.00    -0.049 A 
ATOM     22  C   UNL A   1      46.879 -21.558 -40.955  0.00  0.00    -0.047 A 
ATOM     23  C   UNL A   1      46.417 -22.314 -42.034  0.00  0.00    +0.018 A 
ATOM     24 BR   UNL A   1      47.345 -23.882 -42.542  0.00  0.00    -0.050 Br
ATOM     25  C   UNL A   1      45.286 -21.918 -42.748  0.00  0.00    -0.047 A 
ATOM     26  C   UNL A   1      44.601 -20.761 -42.374  0.00  0.00    -0.049 A 
ENDBRANCH  17  20
BRANCH   1  28
ATOM     27  C   UNL A   1      40.470 -16.543 -33.420  0.00  0.00    +0.079 C 
ATOM     28  O   UNL A   1      40.349 -17.620 -34.338  0.00  0.00    -0.491 OA
ENDBRANCH   1  28
BRANCH  10  29
ATOM     29  O   UNL A   1      47.237 -20.679 -35.765  0.00  0.00    -0.388 OA
ATOM     30  H   UNL A   1      47.723 -20.984 -34.983  0.00  0.00    +0.000 HD
ENDBRANCH  10  29
TORSDOF 3
ENDMDL
MODEL 14
REMARK VINA RESULT:    -6.656      3.604      5.712
REMARK INTER + INTRA:          -8.271
REMARK INTER:                  -7.616
REMARK INTRA:                  -0.656
REMARK UNBOUND:                -0.643
REMARK  Name = cpd318.pdb
REMARK  4 active torsions:
REMARK  status: ('A' for Active; 'I' for Inactive)
REMARK    1  A    between atoms: C_1  and  O_2
REMARK    2  A    between atoms: O_2  and  C_3
REMARK    3  A    between atoms: C_12  and  O_13
REMARK    4  A    between atoms: C_20  and  C_22
REMARK                            x       y       z     vdW  Elec       q    Type
REMARK                         _______ _______ _______ _____ _____    ______ ____
ROOT
ATOM      1  C   UNL A   1      37.329 -36.067 -30.917  0.00  0.00    +0.162 A 
ATOM      2  C   UNL A   1      37.015 -37.423 -30.787  0.00  0.00    -0.016 A 
ATOM      3  C   UNL A   1      35.672 -37.855 -30.710  0.00  0.00    -0.053 A 
ATOM      4  C   UNL A   1      34.608 -36.940 -30.740  0.00  0.00    -0.022 A 
ATOM      5  C   UNL A   1      34.940 -35.593 -30.735  0.00  0.00    +0.016 A 
ATOM      6  C   UNL A   1      36.269 -35.176 -30.893  0.00  0.00    +0.167 A 
ATOM      7  O   UNL A   1      36.372 -33.807 -31.119  0.00  0.00    -0.484 OA
ATOM      8  C   UNL A   1      35.131 -33.362 -30.555  0.00  0.00    +0.116 C 
ATOM      9  C   UNL A   1      34.656 -31.971 -30.934  0.00  0.00    +0.015 C 
ATOM     10  C   UNL A   1      33.389 -31.651 -30.110  0.00  0.00    +0.077 C 
ATOM     11  C   UNL A   1      32.615 -32.854 -29.610  0.00  0.00    -0.059 C 
ATOM     12  C   UNL A   1      32.925 -34.131 -29.918  0.00  0.00    -0.071 C 
ATOM     13  C   UNL A   1      34.043 -34.413 -30.891  0.00  0.00    +0.056 C 
ATOM     14  C   UNL A   1      33.510 -34.435 -32.345  0.00  0.00    -0.020 C 
ATOM     15  C   UNL A   1      32.922 -35.791 -32.798  0.00  0.00    +0.017 C 
ATOM     16  N   UNL A   1      32.307 -36.582 -31.719  0.00  0.00    -0.293 N 
ATOM     17  C   UNL A   1      30.939 -36.847 -31.626  0.00  0.00    +0.247 C 
ATOM     18  O   UNL A   1      30.472 -37.720 -30.899  0.00  0.00    -0.270 OA
ATOM     19  C   UNL A   1      33.178 -37.406 -30.860  0.00  0.00    +0.040 C 
ENDROOT
BRANCH  17  20
ATOM     20  C   UNL A   1      29.988 -36.060 -32.440  0.00  0.00    +0.037 A 
ATOM     21  C   UNL A   1      29.478 -36.567 -33.639  0.00  0.00    -0.049 A 
ATOM     22  C   UNL A   1      28.598 -35.793 -34.400  0.00  0.00    -0.047 A 
ATOM     23  C   UNL A   1      28.249 -34.513 -33.965  0.00  0.00    +0.018 A 
ATOM     24 BR   UNL A   1      27.060 -33.467 -34.998  0.00  0.00    -0.050 Br
ATOM     25  C   UNL A   1      28.778 -33.995 -32.783  0.00  0.00    -0.047 A 
ATOM     26  C   UNL A   1      29.656 -34.767 -32.021  0.00  0.00    -0.049 A 
ENDBRANCH  17  20
BRANCH   1  28
ATOM     27  C   UNL A   1      39.332 -35.972 -32.188  0.00  0.00    +0.079 C 
ATOM     28  O   UNL A   1      38.577 -35.538 -31.066  0.00  0.00    -0.491 OA
ENDBRANCH   1  28
BRANCH  10  29
ATOM     29  O   UNL A   1      32.493 -30.869 -30.887  0.00  0.00    -0.388 OA
ATOM     30  H   UNL A   1      31.660 -30.755 -30.404  0.00  0.00    +0.000 HD
ENDBRANCH  10  29
TORSDOF 3
ENDMDL
MODEL 15
REMARK VINA RESULT:    -6.629     18.007     20.213
REMARK INTER + INTRA:          -8.241
REMARK INTER:                  -7.604
REMARK INTRA:                  -0.637
REMARK UNBOUND:                -0.643
REMARK  Name = cpd318.pdb
REMARK  4 active torsions:
REMARK  status: ('A' for Active; 'I' for Inactive)
REMARK    1  A    between atoms: C_1  and  O_2
REMARK    2  A    between atoms: O_2  and  C_3
REMARK    3  A    between atoms: C_12  and  O_13
REMARK    4  A    between atoms: C_20  and  C_22
REMARK                            x       y       z     vdW  Elec       q    Type
REMARK                         _______ _______ _______ _____ _____    ______ ____
ROOT
ATOM      1  C   UNL A   1      38.674 -20.136 -33.886  0.00  0.00    +0.162 A 
ATOM      2  C   UNL A   1      39.490 -20.080 -32.753  0.00  0.00    -0.016 A 
ATOM      3  C   UNL A   1      40.892 -20.219 -32.858  0.00  0.00    -0.053 A 
ATOM      4  C   UNL A   1      41.513 -20.438 -34.096  0.00  0.00    -0.022 A 
ATOM      5  C   UNL A   1      40.681 -20.622 -35.191  0.00  0.00    +0.016 A 
ATOM      6  C   UNL A   1      39.300 -20.403 -35.093  0.00  0.00    +0.167 A 
ATOM      7  O   UNL A   1      38.676 -20.386 -36.336  0.00  0.00    -0.484 OA
ATOM      8  C   UNL A   1      39.626 -21.131 -37.109  0.00  0.00    +0.116 C 
ATOM      9  C   UNL A   1      39.530 -21.024 -38.620  0.00  0.00    +0.015 C 
ATOM     10  C   UNL A   1      40.546 -22.008 -39.241  0.00  0.00    +0.077 C 
ATOM     11  C   UNL A   1      41.714 -22.386 -38.352  0.00  0.00    -0.059 C 
ATOM     12  C   UNL A   1      41.938 -21.852 -37.133  0.00  0.00    -0.071 C 
ATOM     13  C   UNL A   1      41.049 -20.742 -36.630  0.00  0.00    +0.056 C 
ATOM     14  C   UNL A   1      41.589 -19.361 -37.080  0.00  0.00    -0.020 C 
ATOM     15  C   UNL A   1      42.673 -18.761 -36.156  0.00  0.00    +0.017 C 
ATOM     16  N   UNL A   1      43.517 -19.756 -35.476  0.00  0.00    -0.293 N 
ATOM     17  C   UNL A   1      44.877 -19.939 -35.739  0.00  0.00    +0.247 C 
ATOM     18  O   UNL A   1      45.628 -20.563 -34.992  0.00  0.00    -0.270 OA
ATOM     19  C   UNL A   1      43.015 -20.386 -34.241  0.00  0.00    +0.040 C 
ENDROOT
BRANCH  17  20
ATOM     20  C   UNL A   1      45.467 -19.357 -36.962  0.00  0.00    +0.037 A 
ATOM     21  C   UNL A   1      46.173 -18.150 -36.916  0.00  0.00    -0.049 A 
ATOM     22  C   UNL A   1      46.701 -17.610 -38.091  0.00  0.00    -0.047 A 
ATOM     23  C   UNL A   1      46.504 -18.271 -39.305  0.00  0.00    +0.018 A 
ATOM     24 BR   UNL A   1      47.218 -17.537 -40.895  0.00  0.00    -0.050 Br
ATOM     25  C   UNL A   1      45.777 -19.460 -39.358  0.00  0.00    -0.047 A 
ATOM     26  C   UNL A   1      45.250 -20.002 -38.185  0.00  0.00    -0.049 A 
ENDBRANCH  17  20
BRANCH   1  28
ATOM     27  C   UNL A   1      36.716 -19.421 -32.749  0.00  0.00    +0.079 C 
ATOM     28  O   UNL A   1      37.323 -19.950 -33.918  0.00  0.00    -0.491 OA
ENDBRANCH   1  28
BRANCH  10  29
ATOM     29  O   UNL A   1      41.086 -21.455 -40.432  0.00  0.00    -0.388 OA
ATOM     30  H   UNL A   1      41.947 -21.052 -40.240  0.00  0.00    +0.000 HD
ENDBRANCH  10  29
TORSDOF 3
ENDMDL
MODEL 16
REMARK VINA RESULT:    -6.629      3.043      5.606
REMARK INTER + INTRA:          -8.241
REMARK INTER:                  -7.587
REMARK INTRA:                  -0.654
REMARK UNBOUND:                -0.643
REMARK  Name = cpd318.pdb
REMARK  4 active torsions:
REMARK  status: ('A' for Active; 'I' for Inactive)
REMARK    1  A    between atoms: C_1  and  O_2
REMARK    2  A    between atoms: O_2  and  C_3
REMARK    3  A    between atoms: C_12  and  O_13
REMARK    4  A    between atoms: C_20  and  C_22
REMARK                            x       y       z     vdW  Elec       q    Type
REMARK                         _______ _______ _______ _____ _____    ______ ____
ROOT
ATOM      1  C   UNL A   1      35.298 -41.476 -29.047  0.00  0.00    +0.162 A 
ATOM      2  C   UNL A   1      36.611 -41.058 -28.814  0.00  0.00    -0.016 A 
ATOM      3  C   UNL A   1      37.062 -39.794 -29.255  0.00  0.00    -0.053 A 
ATOM      4  C   UNL A   1      36.219 -38.924 -29.961  0.00  0.00    -0.022 A 
ATOM      5  C   UNL A   1      34.963 -39.407 -30.300  0.00  0.00    +0.016 A 
ATOM      6  C   UNL A   1      34.495 -40.626 -29.790  0.00  0.00    +0.167 A 
ATOM      7  O   UNL A   1      33.139 -40.815 -30.028  0.00  0.00    -0.484 OA
ATOM      8  C   UNL A   1      32.951 -39.939 -31.148  0.00  0.00    +0.116 C 
ATOM      9  C   UNL A   1      31.526 -39.544 -31.490  0.00  0.00    +0.015 C 
ATOM     10  C   UNL A   1      31.553 -38.723 -32.799  0.00  0.00    +0.077 C 
ATOM     11  C   UNL A   1      32.868 -38.039 -33.113  0.00  0.00    -0.059 C 
ATOM     12  C   UNL A   1      33.937 -38.044 -32.289  0.00  0.00    -0.071 C 
ATOM     13  C   UNL A   1      33.823 -38.677 -30.925  0.00  0.00    +0.056 C 
ATOM     14  C   UNL A   1      33.316 -37.647 -29.884  0.00  0.00    -0.020 C 
ATOM     15  C   UNL A   1      34.419 -36.763 -29.260  0.00  0.00    +0.017 C 
ATOM     16  N   UNL A   1      35.561 -36.492 -30.149  0.00  0.00    -0.293 N 
ATOM     17  C   UNL A   1      35.863 -35.232 -30.671  0.00  0.00    +0.247 C 
ATOM     18  O   UNL A   1      36.951 -34.957 -31.174  0.00  0.00    -0.270 OA
ATOM     19  C   UNL A   1      36.630 -37.502 -30.257  0.00  0.00    +0.040 C 
ENDROOT
BRANCH  17  20
ATOM     20  C   UNL A   1      34.848 -34.160 -30.621  0.00  0.00    +0.037 A 
ATOM     21  C   UNL A   1      34.849 -33.217 -29.587  0.00  0.00    -0.049 A 
ATOM     22  C   UNL A   1      33.864 -32.227 -29.550  0.00  0.00    -0.047 A 
ATOM     23  C   UNL A   1      32.876 -32.198 -30.536  0.00  0.00    +0.018 A 
ATOM     24 BR   UNL A   1      31.542 -30.858 -30.484  0.00  0.00    -0.050 Br
ATOM     25  C   UNL A   1      32.857 -33.153 -31.553  0.00  0.00    -0.047 A 
ATOM     26  C   UNL A   1      33.841 -34.142 -31.592  0.00  0.00    -0.049 A 
ENDBRANCH  17  20
BRANCH   1  28
ATOM     27  C   UNL A   1      34.714 -42.865 -27.212  0.00  0.00    +0.079 C 
ATOM     28  O   UNL A   1      34.732 -42.639 -28.614  0.00  0.00    -0.491 OA
ENDBRANCH   1  28
BRANCH  10  29
ATOM     29  O   UNL A   1      30.554 -37.714 -32.755  0.00  0.00    -0.388 OA
ATOM     30  H   UNL A   1      30.007 -37.836 -31.964  0.00  0.00    +0.000 HD
ENDBRANCH  10  29
TORSDOF 3
ENDMDL
MODEL 17
REMARK VINA RESULT:    -6.604     17.374     20.123
REMARK INTER + INTRA:          -8.213
REMARK INTER:                  -7.563
REMARK INTRA:                  -0.650
REMARK UNBOUND:                -0.643
REMARK  Name = cpd318.pdb
REMARK  4 active torsions:
REMARK  status: ('A' for Active; 'I' for Inactive)
REMARK    1  A    between atoms: C_1  and  O_2
REMARK    2  A    between atoms: O_2  and  C_3
REMARK    3  A    between atoms: C_12  and  O_13
REMARK    4  A    between atoms: C_20  and  C_22
REMARK                            x       y       z     vdW  Elec       q    Type
REMARK                         _______ _______ _______ _____ _____    ______ ____
ROOT
ATOM      1  C   UNL A   1      45.380 -17.481 -40.372  0.00  0.00    +0.162 A 
ATOM      2  C   UNL A   1      44.803 -18.246 -41.390  0.00  0.00    -0.016 A 
ATOM      3  C   UNL A   1      44.001 -19.369 -41.091  0.00  0.00    -0.053 A 
ATOM      4  C   UNL A   1      43.771 -19.770 -39.767  0.00  0.00    -0.022 A 
ATOM      5  C   UNL A   1      44.457 -19.082 -38.776  0.00  0.00    +0.016 A 
ATOM      6  C   UNL A   1      45.185 -17.922 -39.074  0.00  0.00    +0.167 A 
ATOM      7  O   UNL A   1      45.583 -17.237 -37.930  0.00  0.00    -0.484 OA
ATOM      8  C   UNL A   1      45.538 -18.300 -36.968  0.00  0.00    +0.116 C 
ATOM      9  C   UNL A   1      45.528 -17.909 -35.501  0.00  0.00    +0.015 C 
ATOM     10  C   UNL A   1      45.621 -19.199 -34.656  0.00  0.00    +0.077 C 
ATOM     11  C   UNL A   1      45.147 -20.464 -35.343  0.00  0.00    -0.059 C 
ATOM     12  C   UNL A   1      44.589 -20.492 -36.571  0.00  0.00    -0.071 C 
ATOM     13  C   UNL A   1      44.318 -19.198 -37.296  0.00  0.00    +0.056 C 
ATOM     14  C   UNL A   1      42.919 -18.645 -36.926  0.00  0.00    -0.020 C 
ATOM     15  C   UNL A   1      41.753 -19.227 -37.758  0.00  0.00    +0.017 C 
ATOM     16  N   UNL A   1      41.961 -20.610 -38.217  0.00  0.00    -0.293 N 
ATOM     17  C   UNL A   1      41.220 -21.704 -37.763  0.00  0.00    +0.247 C 
ATOM     18  O   UNL A   1      41.204 -22.790 -38.339  0.00  0.00    -0.270 OA
ATOM     19  C   UNL A   1      42.759 -20.840 -39.436  0.00  0.00    +0.040 C 
ENDROOT
BRANCH  17  20
ATOM     20  C   UNL A   1      40.401 -21.572 -36.540  0.00  0.00    +0.037 A 
ATOM     21  C   UNL A   1      39.048 -21.226 -36.616  0.00  0.00    -0.049 A 
ATOM     22  C   UNL A   1      38.301 -21.086 -35.443  0.00  0.00    -0.047 A 
ATOM     23  C   UNL A   1      38.918 -21.274 -34.205  0.00  0.00    +0.018 A 
ATOM     24 BR   UNL A   1      37.907 -21.081 -32.618  0.00  0.00    -0.050 Br
ATOM     25  C   UNL A   1      40.274 -21.592 -34.126  0.00  0.00    -0.047 A 
ATOM     26  C   UNL A   1      41.020 -21.734 -35.296  0.00  0.00    -0.049 A 
ENDBRANCH  17  20
BRANCH   1  28
ATOM     27  C   UNL A   1      47.395 -16.481 -41.135  0.00  0.00    +0.079 C 
ATOM     28  O   UNL A   1      46.115 -16.343 -40.534  0.00  0.00    -0.491 OA
ENDBRANCH   1  28
BRANCH  10  29
ATOM     29  O   UNL A   1      44.856 -19.053 -33.469  0.00  0.00    -0.388 OA
ATOM     30  H   UNL A   1      45.336 -18.489 -32.842  0.00  0.00    +0.000 HD
ENDBRANCH  10  29
TORSDOF 3
ENDMDL
MODEL 18
REMARK VINA RESULT:    -6.491     18.174     20.397
REMARK INTER + INTRA:          -8.083
REMARK INTER:                  -7.423
REMARK INTRA:                  -0.660
REMARK UNBOUND:                -0.643
REMARK  Name = cpd318.pdb
REMARK  4 active torsions:
REMARK  status: ('A' for Active; 'I' for Inactive)
REMARK    1  A    between atoms: C_1  and  O_2
REMARK    2  A    between atoms: O_2  and  C_3
REMARK    3  A    between atoms: C_12  and  O_13
REMARK    4  A    between atoms: C_20  and  C_22
REMARK                            x       y       z     vdW  Elec       q    Type
REMARK                         _______ _______ _______ _____ _____    ______ ____
ROOT
ATOM      1  C   UNL A   1      38.385 -19.570 -35.452  0.00  0.00    +0.162 A 
ATOM      2  C   UNL A   1      37.941 -18.946 -36.620  0.00  0.00    -0.016 A 
ATOM      3  C   UNL A   1      38.846 -18.585 -37.643  0.00  0.00    -0.053 A 
ATOM      4  C   UNL A   1      40.224 -18.819 -37.514  0.00  0.00    -0.022 A 
ATOM      5  C   UNL A   1      40.663 -19.317 -36.296  0.00  0.00    +0.016 A 
ATOM      6  C   UNL A   1      39.753 -19.747 -35.320  0.00  0.00    +0.167 A 
ATOM      7  O   UNL A   1      40.371 -20.444 -34.288  0.00  0.00    -0.484 OA
ATOM      8  C   UNL A   1      41.710 -19.945 -34.409  0.00  0.00    +0.116 C 
ATOM      9  C   UNL A   1      42.810 -20.732 -33.720  0.00  0.00    +0.015 C 
ATOM     10  C   UNL A   1      44.131 -19.943 -33.863  0.00  0.00    +0.077 C 
ATOM     11  C   UNL A   1      44.192 -18.979 -35.030  0.00  0.00    -0.059 C 
ATOM     12  C   UNL A   1      43.219 -18.855 -35.958  0.00  0.00    -0.071 C 
ATOM     13  C   UNL A   1      42.029 -19.779 -35.917  0.00  0.00    +0.056 C 
ATOM     14  C   UNL A   1      42.312 -21.072 -36.722  0.00  0.00    -0.020 C 
ATOM     15  C   UNL A   1      42.036 -20.962 -38.239  0.00  0.00    +0.017 C 
ATOM     16  N   UNL A   1      42.244 -19.618 -38.803  0.00  0.00    -0.293 N 
ATOM     17  C   UNL A   1      43.262 -19.298 -39.704  0.00  0.00    +0.247 C 
ATOM     18  O   UNL A   1      43.266 -18.268 -40.375  0.00  0.00    -0.270 OA
ATOM     19  C   UNL A   1      41.165 -18.622 -38.677  0.00  0.00    +0.040 C 
ENDROOT
BRANCH  17  20
ATOM     20  C   UNL A   1      44.394 -20.230 -39.886  0.00  0.00    +0.037 A 
ATOM     21  C   UNL A   1      45.448 -20.269 -38.967  0.00  0.00    -0.049 A 
ATOM     22  C   UNL A   1      46.518 -21.144 -39.175  0.00  0.00    -0.047 A 
ATOM     23  C   UNL A   1      46.533 -21.960 -40.308  0.00  0.00    +0.018 A 
ATOM     24 BR   UNL A   1      47.983 -23.142 -40.589  0.00  0.00    -0.050 Br
ATOM     25  C   UNL A   1      45.497 -21.904 -41.240  0.00  0.00    -0.047 A 
ATOM     26  C   UNL A   1      44.427 -21.031 -41.033  0.00  0.00    -0.049 A 
ENDBRANCH  17  20
BRANCH   1  28
ATOM     27  C   UNL A   1      37.185 -19.067 -33.465  0.00  0.00    +0.079 C 
ATOM     28  O   UNL A   1      37.603 -20.022 -34.430  0.00  0.00    -0.491 OA
ENDBRANCH   1  28
BRANCH  10  29
ATOM     29  O   UNL A   1      45.218 -20.846 -34.006  0.00  0.00    -0.388 OA
ATOM     30  H   UNL A   1      45.878 -20.464 -34.605  0.00  0.00    +0.000 HD
ENDBRANCH  10  29
TORSDOF 3
ENDMDL
MODEL 19
REMARK VINA RESULT:    -6.486     16.807     20.089
REMARK INTER + INTRA:          -8.078
REMARK INTER:                  -7.423
REMARK INTRA:                  -0.655
REMARK UNBOUND:                -0.643
REMARK  Name = cpd318.pdb
REMARK  4 active torsions:
REMARK  status: ('A' for Active; 'I' for Inactive)
REMARK    1  A    between atoms: C_1  and  O_2
REMARK    2  A    between atoms: O_2  and  C_3
REMARK    3  A    between atoms: C_12  and  O_13
REMARK    4  A    between atoms: C_20  and  C_22
REMARK                            x       y       z     vdW  Elec       q    Type
REMARK                         _______ _______ _______ _____ _____    ______ ____
ROOT
ATOM      1  C   UNL A   1      38.687 -21.719 -34.154  0.00  0.00    +0.162 A 
ATOM      2  C   UNL A   1      38.535 -22.965 -34.769  0.00  0.00    -0.016 A 
ATOM      3  C   UNL A   1      39.001 -23.191 -36.083  0.00  0.00    -0.053 A 
ATOM      4  C   UNL A   1      39.613 -22.170 -36.826  0.00  0.00    -0.022 A 
ATOM      5  C   UNL A   1      39.637 -20.907 -36.252  0.00  0.00    +0.016 A 
ATOM      6  C   UNL A   1      39.248 -20.710 -34.920  0.00  0.00    +0.167 A 
ATOM      7  O   UNL A   1      39.580 -19.444 -34.452  0.00  0.00    -0.484 OA
ATOM      8  C   UNL A   1      39.683 -18.731 -35.692  0.00  0.00    +0.116 C 
ATOM      9  C   UNL A   1      40.408 -17.398 -35.670  0.00  0.00    +0.015 C 
ATOM     10  C   UNL A   1      40.274 -16.750 -37.066  0.00  0.00    +0.077 C 
ATOM     11  C   UNL A   1      40.014 -17.712 -38.208  0.00  0.00    -0.059 C 
ATOM     12  C   UNL A   1      39.987 -19.055 -38.073  0.00  0.00    -0.071 C 
ATOM     13  C   UNL A   1      40.323 -19.676 -36.741  0.00  0.00    +0.056 C 
ATOM     14  C   UNL A   1      41.848 -19.927 -36.623  0.00  0.00    -0.020 C 
ATOM     15  C   UNL A   1      42.333 -21.258 -37.242  0.00  0.00    +0.017 C 
ATOM     16  N   UNL A   1      41.542 -21.721 -38.394  0.00  0.00    -0.293 N 
ATOM     17  C   UNL A   1      42.027 -21.778 -39.703  0.00  0.00    +0.247 C 
ATOM     18  O   UNL A   1      41.473 -22.413 -40.597  0.00  0.00    -0.270 OA
ATOM     19  C   UNL A   1      40.289 -22.457 -38.144  0.00  0.00    +0.040 C 
ENDROOT
BRANCH  17  20
ATOM     20  C   UNL A   1      43.270 -21.057 -40.051  0.00  0.00    +0.037 A 
ATOM     21  C   UNL A   1      44.490 -21.735 -40.149  0.00  0.00    -0.049 A 
ATOM     22  C   UNL A   1      45.654 -21.026 -40.458  0.00  0.00    -0.047 A 
ATOM     23  C   UNL A   1      45.592 -19.644 -40.648  0.00  0.00    +0.018 A 
ATOM     24 BR   UNL A   1      47.168 -18.686 -41.063  0.00  0.00    -0.050 Br
ATOM     25  C   UNL A   1      44.381 -18.962 -40.524  0.00  0.00    -0.047 A 
ATOM     26  C   UNL A   1      43.217 -19.669 -40.217  0.00  0.00    -0.049 A 
ENDBRANCH  17  20
BRANCH   1  28
ATOM     27  C   UNL A   1      36.988 -21.028 -32.646  0.00  0.00    +0.079 C 
ATOM     28  O   UNL A   1      38.339 -21.402 -32.874  0.00  0.00    -0.491 OA
ENDBRANCH   1  28
BRANCH  10  29
ATOM     29  O   UNL A   1      41.460 -16.035 -37.381  0.00  0.00    -0.388 OA
ATOM     30  H   UNL A   1      41.274 -15.083 -37.376  0.00  0.00    +0.000 HD
ENDBRANCH  10  29
TORSDOF 3
ENDMDL
MODEL 20
REMARK VINA RESULT:    -6.479      3.485      7.164
REMARK INTER + INTRA:          -8.069
REMARK INTER:                  -7.434
REMARK INTRA:                  -0.635
REMARK UNBOUND:                -0.643
REMARK  Name = cpd318.pdb
REMARK  4 active torsions:
REMARK  status: ('A' for Active; 'I' for Inactive)
REMARK    1  A    between atoms: C_1  and  O_2
REMARK    2  A    between atoms: O_2  and  C_3
REMARK    3  A    between atoms: C_12  and  O_13
REMARK    4  A    between atoms: C_20  and  C_22
REMARK                            x       y       z     vdW  Elec       q    Type
REMARK                         _______ _______ _______ _____ _____    ______ ____
ROOT
ATOM      1  C   UNL A   1      30.071 -38.307 -31.750  0.00  0.00    +0.162 A 
ATOM      2  C   UNL A   1      29.951 -36.986 -32.191  0.00  0.00    -0.016 A 
ATOM      3  C   UNL A   1      30.962 -36.036 -31.926  0.00  0.00    -0.053 A 
ATOM      4  C   UNL A   1      32.110 -36.376 -31.194  0.00  0.00    -0.022 A 
ATOM      5  C   UNL A   1      32.150 -37.652 -30.651  0.00  0.00    +0.016 A 
ATOM      6  C   UNL A   1      31.185 -38.611 -30.986  0.00  0.00    +0.167 A 
ATOM      7  O   UNL A   1      31.532 -39.887 -30.554  0.00  0.00    -0.484 OA
ATOM      8  C   UNL A   1      32.448 -39.559 -29.501  0.00  0.00    +0.116 C 
ATOM      9  C   UNL A   1      33.365 -40.664 -29.009  0.00  0.00    +0.015 C 
ATOM     10  C   UNL A   1      34.155 -40.132 -27.792  0.00  0.00    +0.077 C 
ATOM     11  C   UNL A   1      34.298 -38.625 -27.716  0.00  0.00    -0.059 C 
ATOM     12  C   UNL A   1      33.862 -37.777 -28.671  0.00  0.00    -0.071 C 
ATOM     13  C   UNL A   1      33.278 -38.328 -29.947  0.00  0.00    +0.056 C 
ATOM     14  C   UNL A   1      34.389 -38.573 -30.998  0.00  0.00    -0.020 C 
ATOM     15  C   UNL A   1      34.769 -37.332 -31.837  0.00  0.00    +0.017 C 
ATOM     16  N   UNL A   1      34.614 -36.048 -31.135  0.00  0.00    -0.293 N 
ATOM     17  C   UNL A   1      35.680 -35.223 -30.770  0.00  0.00    +0.247 C 
ATOM     18  O   UNL A   1      35.538 -34.047 -30.442  0.00  0.00    -0.270 OA
ATOM     19  C   UNL A   1      33.277 -35.427 -31.081  0.00  0.00    +0.040 C 
ENDROOT
BRANCH  17  20
ATOM     20  C   UNL A   1      37.056 -35.763 -30.780  0.00  0.00    +0.037 A 
ATOM     21  C   UNL A   1      37.502 -36.614 -29.764  0.00  0.00    -0.049 A 
ATOM     22  C   UNL A   1      38.814 -37.093 -29.785  0.00  0.00    -0.047 A 
ATOM     23  C   UNL A   1      39.675 -36.703 -30.812  0.00  0.00    +0.018 A 
ATOM     24 BR   UNL A   1      41.452 -37.349 -30.839  0.00  0.00    -0.050 Br
ATOM     25  C   UNL A   1      39.242 -35.832 -31.813  0.00  0.00    -0.047 A 
ATOM     26  C   UNL A   1      37.930 -35.354 -31.793  0.00  0.00    -0.049 A 
ENDBRANCH  17  20
BRANCH   1  28
ATOM     27  C   UNL A   1      27.927 -38.969 -32.528  0.00  0.00    +0.079 C 
ATOM     28  O   UNL A   1      29.197 -39.324 -32.000  0.00  0.00    -0.491 OA
ENDBRANCH   1  28
BRANCH  10  29
ATOM     29  O   UNL A   1      35.466 -40.679 -27.792  0.00  0.00    -0.388 OA
ATOM     30  H   UNL A   1      36.028 -40.172 -27.185  0.00  0.00    +0.000 HD
ENDBRANCH  10  29
TORSDOF 3
ENDMDL
