REMARK  Name = cpd14.pdb
REMARK  17 active torsions:
REMARK  status: ('A' for Active; 'I' for Inactive)
REMARK    1  A    between atoms: C_1  and  C_2
REMARK    2  A    between atoms: C_6  and  N_7
REMARK    3  A    between atoms: N_7  and  C_8
REMARK    4  A    between atoms: C_13  and  C_14
REMARK    5  A    between atoms: N_16  and  C_17
REMARK    6  A    between atoms: C_17  and  C_18
REMARK    7  A    between atoms: C_18  and  C_19
REMARK    8  A    between atoms: C_19  and  C_20
REMARK    9  A    between atoms: N_22  and  C_23
REMARK   10  A    between atoms: C_23  and  C_24
REMARK   11  A    between atoms: C_24  and  C_25
REMARK   12  A    between atoms: C_25  and  C_26
REMARK   13  A    between atoms: C_26  and  C_27
REMARK   14  A    between atoms: C_27  and  C_28
REMARK   15  A    between atoms: C_28  and  N_29
REMARK   16  A    between atoms: N_29  and  C_30
REMARK   17  A    between atoms: C_45  and  C_46
REMARK                            x       y       z     vdW  Elec       q    Type
REMARK                         _______ _______ _______ _____ _____    ______ ____
ROOT
ATOM      1  C   UNL A   1       5.282   5.525  -2.684  0.00  0.00    +0.213 C 
ATOM      2  O   UNL A   1       6.296   5.391  -3.362  0.00  0.00    -0.276 OA
ATOM      3  N   UNL A   1       5.136   6.490  -1.713  0.00  0.00    -0.315 N 
ATOM      4  H   UNL A   1       4.299   6.523  -1.196  0.00  0.00    +0.000 HD
ENDROOT
BRANCH   1   5
ATOM      5  C   UNL A   1       4.069   4.639  -2.869  0.00  0.00    +0.025 C 
BRANCH   5   6
ATOM      6  C   UNL A   1       3.766   3.816  -1.619  0.00  0.00    -0.029 C 
BRANCH   6   7
ATOM      7  C   UNL A   1       2.683   2.764  -1.858  0.00  0.00    +0.012 C 
BRANCH   7  10
ATOM      8  C   UNL A   1       0.504   4.040  -1.559  0.00  0.00    +0.246 C 
ATOM      9  O   UNL A   1      -0.342   4.733  -2.114  0.00  0.00    -0.270 OA
ATOM     10  N   UNL A   1       1.424   3.342  -2.302  0.00  0.00    -0.311 N 
ATOM     11  H   UNL A   1       1.204   3.217  -3.254  0.00  0.00    +0.000 HD
BRANCH   8  17
ATOM     12  C   UNL A   1       0.297   2.785   0.623  0.00  0.00    +0.044 A 
ATOM     13  C   UNL A   1       0.401   2.833   2.024  0.00  0.00    -0.040 A 
ATOM     14  C   UNL A   1       0.656   4.034   2.695  0.00  0.00    -0.060 A 
ATOM     15  C   UNL A   1       0.828   5.214   1.978  0.00  0.00    -0.061 A 
ATOM     16  C   UNL A   1       0.772   5.189   0.587  0.00  0.00    -0.048 A 
ATOM     17  C   UNL A   1       0.547   3.977  -0.085  0.00  0.00    +0.058 A 
BRANCH  12  18
ATOM     18  N   UNL A   1       0.058   1.551  -0.037  0.00  0.00    -0.314 N 
ATOM     19  H   UNL A   1       0.492   1.431  -0.912  0.00  0.00    +0.000 HD
BRANCH  18  25
ATOM     20  C   UNL A   1      -0.968  -3.345   0.043  0.00  0.00    -0.039 C 
ATOM     21  C   UNL A   1      -1.272  -1.917   0.408  0.00  0.00    -0.046 A 
ATOM     22  C   UNL A   1      -2.446  -1.643   1.127  0.00  0.00    -0.058 A 
ATOM     23  C   UNL A   1      -2.782  -0.337   1.470  0.00  0.00    -0.060 A 
ATOM     24  C   UNL A   1      -1.943   0.712   1.106  0.00  0.00    -0.040 A 
ATOM     25  C   UNL A   1      -0.739   0.470   0.427  0.00  0.00    +0.035 A 
ATOM     26  C   UNL A   1      -0.401  -0.856   0.065  0.00  0.00    -0.026 A 
ATOM     27  C   UNL A   1       0.861  -1.122  -0.720  0.00  0.00    -0.038 C 
ENDBRANCH  18  25
ENDBRANCH  12  18
ENDBRANCH   8  17
ENDBRANCH   7  10
ENDBRANCH   6   7
ENDBRANCH   5   6
ENDBRANCH   1   5
BRANCH   3  28
ATOM     28  C   UNL A   1       6.175   7.458  -1.427  0.00  0.00    +0.012 C 
BRANCH  28  29
ATOM     29  C   UNL A   1       7.324   6.852  -0.623  0.00  0.00    -0.037 C 
BRANCH  29  30
ATOM     30  C   UNL A   1       8.339   7.925  -0.223  0.00  0.00    -0.052 C 
BRANCH  30  31
ATOM     31  C   UNL A   1       9.542   7.366   0.541  0.00  0.00    -0.052 C 
BRANCH  31  32
ATOM     32  C   UNL A   1      10.508   6.585  -0.353  0.00  0.00    -0.037 C 
BRANCH  32  33
ATOM     33  C   UNL A   1      11.744   6.128   0.425  0.00  0.00    +0.009 C 
BRANCH  33  34
ATOM     34  N   UNL A   1      12.666   5.453  -0.499  0.00  0.00    -0.343 N 
ATOM     35  H   UNL A   1      12.508   5.360  -1.466  0.00  0.00    +0.000 HD
BRANCH  34  36
ATOM     36  C   UNL A   1      13.818   4.948   0.174  0.00  0.00    +0.041 A 
ATOM     37  C   UNL A   1      14.985   5.732   0.294  0.00  0.00    -0.005 A 
ATOM     38  C   UNL A   1      16.053   5.191   1.015  0.00  0.00    +0.047 A 
ATOM     39  N   UNL A   1      15.999   3.988   1.635  0.00  0.00    -0.251 NA
ATOM     40  C   UNL A   1      14.887   3.249   1.529  0.00  0.00    +0.074 A 
ATOM     41  C   UNL A   1      14.862   2.013   2.158  0.00  0.00    -0.017 A 
ATOM     42  C   UNL A   1      13.747   1.182   2.078  0.00  0.00    +0.043 A 
ATOM     43 CL   UNL A   1      13.758  -0.345   2.869  0.00  0.00    -0.083 Cl
ATOM     44  C   UNL A   1      12.629   1.577   1.358  0.00  0.00    -0.043 A 
ATOM     45  C   UNL A   1      12.636   2.817   0.723  0.00  0.00    -0.049 A 
ATOM     46  C   UNL A   1      13.757   3.677   0.807  0.00  0.00    +0.022 A 
ATOM     47  C   UNL A   1      17.343   5.947   1.214  0.00  0.00    -0.010 C 
ATOM     48  C   UNL A   1      17.557   7.054   0.190  0.00  0.00    -0.047 C 
ATOM     49  C   UNL A   1      16.303   7.908   0.089  0.00  0.00    -0.049 C 
ATOM     50  C   UNL A   1      15.122   7.069  -0.396  0.00  0.00    -0.024 C 
ENDBRANCH  34  36
ENDBRANCH  33  34
ENDBRANCH  32  33
ENDBRANCH  31  32
ENDBRANCH  30  31
ENDBRANCH  29  30
ENDBRANCH  28  29
ENDBRANCH   3  28
TORSDOF 15
