MODEL 1
REMARK VINA RESULT:   -10.178      0.000      0.000
REMARK INTER + INTRA:         -21.825
REMARK INTER:                 -19.104
REMARK INTRA:                  -2.721
REMARK UNBOUND:                -2.721
REMARK  Name = cpd14.pdb
REMARK  17 active torsions:
REMARK  status: ('A' for Active; 'I' for Inactive)
REMARK    1  A    between atoms: C_1  and  C_2
REMARK    2  A    between atoms: C_6  and  N_7
REMARK    3  A    between atoms: N_7  and  C_8
REMARK    4  A    between atoms: C_13  and  C_14
REMARK    5  A    between atoms: N_16  and  C_17
REMARK    6  A    between atoms: C_17  and  C_18
REMARK    7  A    between atoms: C_18  and  C_19
REMARK    8  A    between atoms: C_19  and  C_20
REMARK    9  A    between atoms: N_22  and  C_23
REMARK   10  A    between atoms: C_23  and  C_24
REMARK   11  A    between atoms: C_24  and  C_25
REMARK   12  A    between atoms: C_25  and  C_26
REMARK   13  A    between atoms: C_26  and  C_27
REMARK   14  A    between atoms: C_27  and  C_28
REMARK   15  A    between atoms: C_28  and  N_29
REMARK   16  A    between atoms: N_29  and  C_30
REMARK   17  A    between atoms: C_45  and  C_46
REMARK                            x       y       z     vdW  Elec       q    Type
REMARK                         _______ _______ _______ _____ _____    ______ ____
ROOT
ATOM      1  C   UNL A   1      41.270 -36.568 -32.261  0.00  0.00    +0.213 C 
ATOM      2  O   UNL A   1      41.104 -36.721 -33.467  0.00  0.00    -0.276 OA
ATOM      3  N   UNL A   1      40.297 -36.088 -31.412  0.00  0.00    -0.315 N 
ATOM      4  H   UNL A   1      40.511 -35.973 -30.458  0.00  0.00    +0.000 HD
ENDROOT
BRANCH   1   5
ATOM      5  C   UNL A   1      42.575 -36.916 -31.579  0.00  0.00    +0.025 C 
BRANCH   5   6
ATOM      6  C   UNL A   1      42.362 -37.806 -30.356  0.00  0.00    -0.029 C 
BRANCH   6   7
ATOM      7  C   UNL A   1      43.068 -39.156 -30.483  0.00  0.00    +0.012 C 
BRANCH   7  10
ATOM      8  C   UNL A   1      44.353 -40.575 -28.809  0.00  0.00    +0.246 C 
ATOM      9  O   UNL A   1      44.563 -40.787 -27.620  0.00  0.00    -0.270 OA
ATOM     10  N   UNL A   1      43.288 -39.800 -29.197  0.00  0.00    -0.311 N 
ATOM     11  H   UNL A   1      42.585 -39.664 -28.521  0.00  0.00    +0.000 HD
BRANCH   8  17
ATOM     12  C   UNL A   1      46.616 -40.747 -29.918  0.00  0.00    +0.044 A 
ATOM     13  C   UNL A   1      47.402 -41.373 -30.901  0.00  0.00    -0.040 A 
ATOM     14  C   UNL A   1      46.846 -42.281 -31.808  0.00  0.00    -0.060 A 
ATOM     15  C   UNL A   1      45.492 -42.595 -31.744  0.00  0.00    -0.061 A 
ATOM     16  C   UNL A   1      44.698 -42.022 -30.755  0.00  0.00    -0.048 A 
ATOM     17  C   UNL A   1      45.265 -41.135 -29.825  0.00  0.00    +0.058 A 
BRANCH  12  18
ATOM     18  N   UNL A   1      47.207 -39.844 -28.994  0.00  0.00    -0.314 N 
ATOM     19  H   UNL A   1      47.003 -39.995 -28.043  0.00  0.00    +0.000 HD
BRANCH  18  25
ATOM     20  C   UNL A   1      47.799 -35.086 -30.421  0.00  0.00    -0.039 C 
ATOM     21  C   UNL A   1      48.341 -36.441 -30.053  0.00  0.00    -0.046 A 
ATOM     22  C   UNL A   1      49.727 -36.652 -30.125  0.00  0.00    -0.058 A 
ATOM     23  C   UNL A   1      50.275 -37.892 -29.815  0.00  0.00    -0.060 A 
ATOM     24  C   UNL A   1      49.445 -38.937 -29.420  0.00  0.00    -0.040 A 
ATOM     25  C   UNL A   1      48.060 -38.748 -29.292  0.00  0.00    +0.035 A 
ATOM     26  C   UNL A   1      47.498 -37.491 -29.620  0.00  0.00    -0.026 A 
ATOM     27  C   UNL A   1      46.003 -37.294 -29.546  0.00  0.00    -0.038 C 
ENDBRANCH  18  25
ENDBRANCH  12  18
ENDBRANCH   8  17
ENDBRANCH   7  10
ENDBRANCH   6   7
ENDBRANCH   5   6
ENDBRANCH   1   5
BRANCH   3  28
ATOM     28  C   UNL A   1      38.969 -35.745 -31.878  0.00  0.00    +0.012 C 
BRANCH  28  29
ATOM     29  C   UNL A   1      37.880 -36.526 -31.145  0.00  0.00    -0.037 C 
BRANCH  29  30
ATOM     30  C   UNL A   1      38.248 -36.731 -29.674  0.00  0.00    -0.052 C 
BRANCH  30  31
ATOM     31  C   UNL A   1      38.132 -38.187 -29.218  0.00  0.00    -0.052 C 
BRANCH  31  32
ATOM     32  C   UNL A   1      37.343 -38.346 -27.916  0.00  0.00    -0.037 C 
BRANCH  32  33
ATOM     33  C   UNL A   1      36.263 -37.270 -27.783  0.00  0.00    +0.009 C 
BRANCH  33  34
ATOM     34  N   UNL A   1      34.967 -37.846 -28.169  0.00  0.00    -0.343 N 
ATOM     35  H   UNL A   1      34.387 -38.355 -27.559  0.00  0.00    +0.000 HD
BRANCH  34  36
ATOM     36  C   UNL A   1      34.651 -37.577 -29.533  0.00  0.00    +0.041 A 
ATOM     37  C   UNL A   1      34.461 -38.632 -30.451  0.00  0.00    -0.005 A 
ATOM     38  C   UNL A   1      34.099 -38.291 -31.757  0.00  0.00    +0.047 A 
ATOM     39  N   UNL A   1      33.878 -37.017 -32.161  0.00  0.00    -0.251 NA
ATOM     40  C   UNL A   1      34.050 -36.018 -31.286  0.00  0.00    +0.074 A 
ATOM     41  C   UNL A   1      33.835 -34.720 -31.727  0.00  0.00    -0.017 A 
ATOM     42  C   UNL A   1      34.010 -33.629 -30.880  0.00  0.00    +0.043 A 
ATOM     43 CL   UNL A   1      33.738 -32.035 -31.468  0.00  0.00    -0.083 Cl
ATOM     44  C   UNL A   1      34.409 -33.819 -29.565  0.00  0.00    -0.043 A 
ATOM     45  C   UNL A   1      34.625 -35.116 -29.105  0.00  0.00    -0.049 A 
ATOM     46  C   UNL A   1      34.439 -36.235 -29.951  0.00  0.00    +0.022 A 
ATOM     47  C   UNL A   1      33.860 -39.340 -32.815  0.00  0.00    -0.010 C 
ATOM     48  C   UNL A   1      34.512 -40.678 -32.496  0.00  0.00    -0.047 C 
ATOM     49  C   UNL A   1      34.168 -41.090 -31.073  0.00  0.00    -0.049 C 
ATOM     50  C   UNL A   1      34.717 -40.072 -30.075  0.00  0.00    -0.024 C 
ENDBRANCH  34  36
ENDBRANCH  33  34
ENDBRANCH  32  33
ENDBRANCH  31  32
ENDBRANCH  30  31
ENDBRANCH  29  30
ENDBRANCH  28  29
ENDBRANCH   3  28
TORSDOF 15
ENDMDL
MODEL 2
REMARK VINA RESULT:    -8.895     16.951     21.335
REMARK INTER + INTRA:         -19.416
REMARK INTER:                 -15.354
REMARK INTRA:                  -4.062
REMARK UNBOUND:                -2.721
REMARK  Name = cpd14.pdb
REMARK  17 active torsions:
REMARK  status: ('A' for Active; 'I' for Inactive)
REMARK    1  A    between atoms: C_1  and  C_2
REMARK    2  A    between atoms: C_6  and  N_7
REMARK    3  A    between atoms: N_7  and  C_8
REMARK    4  A    between atoms: C_13  and  C_14
REMARK    5  A    between atoms: N_16  and  C_17
REMARK    6  A    between atoms: C_17  and  C_18
REMARK    7  A    between atoms: C_18  and  C_19
REMARK    8  A    between atoms: C_19  and  C_20
REMARK    9  A    between atoms: N_22  and  C_23
REMARK   10  A    between atoms: C_23  and  C_24
REMARK   11  A    between atoms: C_24  and  C_25
REMARK   12  A    between atoms: C_25  and  C_26
REMARK   13  A    between atoms: C_26  and  C_27
REMARK   14  A    between atoms: C_27  and  C_28
REMARK   15  A    between atoms: C_28  and  N_29
REMARK   16  A    between atoms: N_29  and  C_30
REMARK   17  A    between atoms: C_45  and  C_46
REMARK                            x       y       z     vdW  Elec       q    Type
REMARK                         _______ _______ _______ _____ _____    ______ ____
ROOT
ATOM      1  C   UNL A   1      42.043 -18.669 -32.847  0.00  0.00    +0.213 C 
ATOM      2  O   UNL A   1      41.802 -17.523 -32.480  0.00  0.00    -0.276 OA
ATOM      3  N   UNL A   1      43.267 -19.075 -33.328  0.00  0.00    -0.315 N 
ATOM      4  H   UNL A   1      43.378 -20.008 -33.621  0.00  0.00    +0.000 HD
ENDROOT
BRANCH   1   5
ATOM      5  C   UNL A   1      41.003 -19.767 -32.784  0.00  0.00    +0.025 C 
BRANCH   5   6
ATOM      6  C   UNL A   1      41.512 -21.072 -33.393  0.00  0.00    -0.029 C 
BRANCH   6   7
ATOM      7  C   UNL A   1      40.933 -22.306 -32.702  0.00  0.00    +0.012 C 
BRANCH   7  10
ATOM      8  C   UNL A   1      39.296 -23.074 -34.490  0.00  0.00    +0.246 C 
ATOM      9  O   UNL A   1      39.120 -23.836 -35.434  0.00  0.00    -0.270 OA
ATOM     10  N   UNL A   1      40.357 -23.259 -33.638  0.00  0.00    -0.311 N 
ATOM     11  H   UNL A   1      40.782 -24.148 -33.666  0.00  0.00    +0.000 HD
BRANCH   8  17
ATOM     12  C   UNL A   1      38.206 -20.925 -35.246  0.00  0.00    +0.044 A 
ATOM     13  C   UNL A   1      37.275 -19.912 -34.958  0.00  0.00    -0.040 A 
ATOM     14  C   UNL A   1      36.607 -19.863 -33.730  0.00  0.00    -0.060 A 
ATOM     15  C   UNL A   1      36.844 -20.837 -32.765  0.00  0.00    -0.061 A 
ATOM     16  C   UNL A   1      37.730 -21.876 -33.038  0.00  0.00    -0.048 A 
ATOM     17  C   UNL A   1      38.375 -21.940 -34.283  0.00  0.00    +0.058 A 
BRANCH  12  18
ATOM     18  N   UNL A   1      38.856 -20.966 -36.507  0.00  0.00    -0.314 N 
ATOM     19  H   UNL A   1      38.423 -21.508 -37.206  0.00  0.00    +0.000 HD
BRANCH  18  25
ATOM     20  C   UNL A   1      43.304 -21.050 -38.794  0.00  0.00    -0.039 C 
ATOM     21  C   UNL A   1      42.263 -20.382 -37.938  0.00  0.00    -0.046 A 
ATOM     22  C   UNL A   1      42.551 -19.123 -37.388  0.00  0.00    -0.058 A 
ATOM     23  C   UNL A   1      41.629 -18.475 -36.573  0.00  0.00    -0.060 A 
ATOM     24  C   UNL A   1      40.402 -19.073 -36.303  0.00  0.00    -0.040 A 
ATOM     25  C   UNL A   1      40.062 -20.310 -36.872  0.00  0.00    +0.035 A 
ATOM     26  C   UNL A   1      41.003 -20.978 -37.692  0.00  0.00    -0.026 A 
ATOM     27  C   UNL A   1      40.673 -22.338 -38.259  0.00  0.00    -0.038 C 
ENDBRANCH  18  25
ENDBRANCH  12  18
ENDBRANCH   8  17
ENDBRANCH   7  10
ENDBRANCH   6   7
ENDBRANCH   5   6
ENDBRANCH   1   5
BRANCH   3  28
ATOM     28  C   UNL A   1      44.397 -18.173 -33.416  0.00  0.00    +0.012 C 
BRANCH  28  29
ATOM     29  C   UNL A   1      45.509 -18.726 -34.306  0.00  0.00    -0.037 C 
BRANCH  29  30
ATOM     30  C   UNL A   1      45.314 -20.222 -34.561  0.00  0.00    -0.052 C 
BRANCH  30  31
ATOM     31  C   UNL A   1      45.566 -20.626 -36.017  0.00  0.00    -0.052 C 
BRANCH  31  32
ATOM     32  C   UNL A   1      46.917 -20.141 -36.547  0.00  0.00    -0.037 C 
BRANCH  32  33
ATOM     33  C   UNL A   1      46.741 -19.101 -37.656  0.00  0.00    +0.009 C 
BRANCH  33  34
ATOM     34  N   UNL A   1      47.507 -19.527 -38.835  0.00  0.00    -0.343 N 
ATOM     35  H   UNL A   1      48.479 -19.680 -38.836  0.00  0.00    +0.000 HD
BRANCH  34  36
ATOM     36  C   UNL A   1      46.672 -19.693 -39.980  0.00  0.00    +0.041 A 
ATOM     37  C   UNL A   1      46.625 -20.925 -40.666  0.00  0.00    -0.005 A 
ATOM     38  C   UNL A   1      45.742 -21.028 -41.745  0.00  0.00    +0.047 A 
ATOM     39  N   UNL A   1      44.908 -20.030 -42.122  0.00  0.00    -0.251 NA
ATOM     40  C   UNL A   1      44.946 -18.864 -41.463  0.00  0.00    +0.074 A 
ATOM     41  C   UNL A   1      44.095 -17.851 -41.879  0.00  0.00    -0.017 A 
ATOM     42  C   UNL A   1      44.091 -16.606 -41.254  0.00  0.00    +0.043 A 
ATOM     43 CL   UNL A   1      43.023 -15.375 -41.803  0.00  0.00    -0.083 Cl
ATOM     44  C   UNL A   1      44.948 -16.352 -40.193  0.00  0.00    -0.043 A 
ATOM     45  C   UNL A   1      45.807 -17.360 -39.760  0.00  0.00    -0.049 A 
ATOM     46  C   UNL A   1      45.813 -18.633 -40.378  0.00  0.00    +0.022 A 
ATOM     47  C   UNL A   1      45.603 -22.302 -42.541  0.00  0.00    -0.010 C 
ATOM     48  C   UNL A   1      46.803 -23.230 -42.407  0.00  0.00    -0.047 C 
ATOM     49  C   UNL A   1      47.152 -23.407 -40.937  0.00  0.00    -0.049 C 
ATOM     50  C   UNL A   1      47.547 -22.069 -40.316  0.00  0.00    -0.024 C 
ENDBRANCH  34  36
ENDBRANCH  33  34
ENDBRANCH  32  33
ENDBRANCH  31  32
ENDBRANCH  30  31
ENDBRANCH  29  30
ENDBRANCH  28  29
ENDBRANCH   3  28
TORSDOF 15
ENDMDL
MODEL 3
REMARK VINA RESULT:    -8.410      5.280     10.935
REMARK INTER + INTRA:         -18.506
REMARK INTER:                 -14.702
REMARK INTRA:                  -3.805
REMARK UNBOUND:                -2.721
REMARK  Name = cpd14.pdb
REMARK  17 active torsions:
REMARK  status: ('A' for Active; 'I' for Inactive)
REMARK    1  A    between atoms: C_1  and  C_2
REMARK    2  A    between atoms: C_6  and  N_7
REMARK    3  A    between atoms: N_7  and  C_8
REMARK    4  A    between atoms: C_13  and  C_14
REMARK    5  A    between atoms: N_16  and  C_17
REMARK    6  A    between atoms: C_17  and  C_18
REMARK    7  A    between atoms: C_18  and  C_19
REMARK    8  A    between atoms: C_19  and  C_20
REMARK    9  A    between atoms: N_22  and  C_23
REMARK   10  A    between atoms: C_23  and  C_24
REMARK   11  A    between atoms: C_24  and  C_25
REMARK   12  A    between atoms: C_25  and  C_26
REMARK   13  A    between atoms: C_26  and  C_27
REMARK   14  A    between atoms: C_27  and  C_28
REMARK   15  A    between atoms: C_28  and  N_29
REMARK   16  A    between atoms: N_29  and  C_30
REMARK   17  A    between atoms: C_45  and  C_46
REMARK                            x       y       z     vdW  Elec       q    Type
REMARK                         _______ _______ _______ _____ _____    ______ ____
ROOT
ATOM      1  C   UNL A   1      31.899 -35.225 -30.507  0.00  0.00    +0.213 C 
ATOM      2  O   UNL A   1      31.783 -35.603 -29.346  0.00  0.00    -0.276 OA
ATOM      3  N   UNL A   1      31.648 -33.935 -30.917  0.00  0.00    -0.315 N 
ATOM      4  H   UNL A   1      31.744 -33.711 -31.871  0.00  0.00    +0.000 HD
ENDROOT
BRANCH   1   5
ATOM      5  C   UNL A   1      32.356 -36.152 -31.613  0.00  0.00    +0.025 C 
BRANCH   5   6
ATOM      6  C   UNL A   1      31.380 -37.307 -31.830  0.00  0.00    -0.029 C 
BRANCH   6   7
ATOM      7  C   UNL A   1      31.507 -38.391 -30.760  0.00  0.00    +0.012 C 
BRANCH   7  10
ATOM      8  C   UNL A   1      31.887 -40.863 -31.216  0.00  0.00    +0.246 C 
ATOM      9  O   UNL A   1      31.348 -41.954 -31.368  0.00  0.00    -0.270 OA
ATOM     10  N   UNL A   1      31.141 -39.711 -31.249  0.00  0.00    -0.311 N 
ATOM     11  H   UNL A   1      30.246 -39.788 -31.655  0.00  0.00    +0.000 HD
BRANCH   8  17
ATOM     12  C   UNL A   1      34.258 -40.470 -31.991  0.00  0.00    +0.044 A 
ATOM     13  C   UNL A   1      35.617 -40.396 -31.636  0.00  0.00    -0.040 A 
ATOM     14  C   UNL A   1      36.051 -40.715 -30.345  0.00  0.00    -0.060 A 
ATOM     15  C   UNL A   1      35.134 -41.102 -29.373  0.00  0.00    -0.061 A 
ATOM     16  C   UNL A   1      33.777 -41.144 -29.684  0.00  0.00    -0.048 A 
ATOM     17  C   UNL A   1      33.341 -40.793 -30.972  0.00  0.00    +0.058 A 
BRANCH  12  18
ATOM     18  N   UNL A   1      33.839 -40.121 -33.302  0.00  0.00    -0.314 N 
ATOM     19  H   UNL A   1      33.852 -39.163 -33.525  0.00  0.00    +0.000 HD
BRANCH  18  25
ATOM     20  C   UNL A   1      30.551 -41.305 -36.882  0.00  0.00    -0.039 C 
ATOM     21  C   UNL A   1      31.754 -41.606 -36.030  0.00  0.00    -0.046 A 
ATOM     22  C   UNL A   1      32.385 -42.851 -36.176  0.00  0.00    -0.058 A 
ATOM     23  C   UNL A   1      33.489 -43.186 -35.396  0.00  0.00    -0.060 A 
ATOM     24  C   UNL A   1      33.981 -42.275 -34.466  0.00  0.00    -0.040 A 
ATOM     25  C   UNL A   1      33.402 -41.004 -34.326  0.00  0.00    +0.035 A 
ATOM     26  C   UNL A   1      32.272 -40.666 -35.108  0.00  0.00    -0.026 A 
ATOM     27  C   UNL A   1      31.603 -39.325 -34.922  0.00  0.00    -0.038 C 
ENDBRANCH  18  25
ENDBRANCH  12  18
ENDBRANCH   8  17
ENDBRANCH   7  10
ENDBRANCH   6   7
ENDBRANCH   5   6
ENDBRANCH   1   5
BRANCH   3  28
ATOM     28  C   UNL A   1      31.246 -32.897 -29.991  0.00  0.00    +0.012 C 
BRANCH  28  29
ATOM     29  C   UNL A   1      32.351 -31.866 -29.762  0.00  0.00    -0.037 C 
BRANCH  29  30
ATOM     30  C   UNL A   1      33.369 -31.892 -30.904  0.00  0.00    -0.052 C 
BRANCH  30  31
ATOM     31  C   UNL A   1      34.697 -32.547 -30.517  0.00  0.00    -0.052 C 
BRANCH  31  32
ATOM     32  C   UNL A   1      35.146 -33.621 -31.511  0.00  0.00    -0.037 C 
BRANCH  32  33
ATOM     33  C   UNL A   1      36.644 -33.906 -31.387  0.00  0.00    +0.009 C 
BRANCH  33  34
ATOM     34  N   UNL A   1      36.910 -35.273 -31.856  0.00  0.00    -0.343 N 
ATOM     35  H   UNL A   1      36.619 -35.623 -32.729  0.00  0.00    +0.000 HD
BRANCH  34  36
ATOM     36  C   UNL A   1      37.640 -36.033 -30.895  0.00  0.00    +0.041 A 
ATOM     37  C   UNL A   1      36.976 -36.680 -29.832  0.00  0.00    -0.005 A 
ATOM     38  C   UNL A   1      37.751 -37.452 -28.962  0.00  0.00    +0.047 A 
ATOM     39  N   UNL A   1      39.083 -37.641 -29.122  0.00  0.00    -0.251 NA
ATOM     40  C   UNL A   1      39.711 -37.034 -30.137  0.00  0.00    +0.074 A 
ATOM     41  C   UNL A   1      41.078 -37.229 -30.270  0.00  0.00    -0.017 A 
ATOM     42  C   UNL A   1      41.801 -36.617 -31.291  0.00  0.00    +0.043 A 
ATOM     43 CL   UNL A   1      43.496 -36.881 -31.418  0.00  0.00    -0.083 Cl
ATOM     44  C   UNL A   1      41.162 -35.789 -32.203  0.00  0.00    -0.043 A 
ATOM     45  C   UNL A   1      39.789 -35.585 -32.086  0.00  0.00    -0.049 A 
ATOM     46  C   UNL A   1      39.040 -36.211 -31.062  0.00  0.00    +0.022 A 
ATOM     47  C   UNL A   1      37.143 -38.195 -27.799  0.00  0.00    -0.010 C 
ATOM     48  C   UNL A   1      35.786 -37.647 -27.377  0.00  0.00    -0.047 C 
ATOM     49  C   UNL A   1      34.893 -37.492 -28.599  0.00  0.00    -0.049 C 
ATOM     50  C   UNL A   1      35.498 -36.489 -29.579  0.00  0.00    -0.024 C 
ENDBRANCH  34  36
ENDBRANCH  33  34
ENDBRANCH  32  33
ENDBRANCH  31  32
ENDBRANCH  30  31
ENDBRANCH  29  30
ENDBRANCH  28  29
ENDBRANCH   3  28
TORSDOF 15
ENDMDL
MODEL 4
REMARK VINA RESULT:    -8.365     17.768     21.289
REMARK INTER + INTRA:         -18.421
REMARK INTER:                 -13.050
REMARK INTRA:                  -5.372
REMARK UNBOUND:                -2.721
REMARK  Name = cpd14.pdb
REMARK  17 active torsions:
REMARK  status: ('A' for Active; 'I' for Inactive)
REMARK    1  A    between atoms: C_1  and  C_2
REMARK    2  A    between atoms: C_6  and  N_7
REMARK    3  A    between atoms: N_7  and  C_8
REMARK    4  A    between atoms: C_13  and  C_14
REMARK    5  A    between atoms: N_16  and  C_17
REMARK    6  A    between atoms: C_17  and  C_18
REMARK    7  A    between atoms: C_18  and  C_19
REMARK    8  A    between atoms: C_19  and  C_20
REMARK    9  A    between atoms: N_22  and  C_23
REMARK   10  A    between atoms: C_23  and  C_24
REMARK   11  A    between atoms: C_24  and  C_25
REMARK   12  A    between atoms: C_25  and  C_26
REMARK   13  A    between atoms: C_26  and  C_27
REMARK   14  A    between atoms: C_27  and  C_28
REMARK   15  A    between atoms: C_28  and  N_29
REMARK   16  A    between atoms: N_29  and  C_30
REMARK   17  A    between atoms: C_45  and  C_46
REMARK                            x       y       z     vdW  Elec       q    Type
REMARK                         _______ _______ _______ _____ _____    ______ ____
ROOT
ATOM      1  C   UNL A   1      40.081 -21.805 -38.273  0.00  0.00    +0.213 C 
ATOM      2  O   UNL A   1      39.477 -20.801 -38.637  0.00  0.00    -0.276 OA
ATOM      3  N   UNL A   1      40.123 -22.238 -36.966  0.00  0.00    -0.315 N 
ATOM      4  H   UNL A   1      40.645 -23.043 -36.748  0.00  0.00    +0.000 HD
ENDROOT
BRANCH   1   5
ATOM      5  C   UNL A   1      40.831 -22.689 -39.246  0.00  0.00    +0.025 C 
BRANCH   5   6
ATOM      6  C   UNL A   1      41.239 -21.931 -40.508  0.00  0.00    -0.029 C 
BRANCH   6   7
ATOM      7  C   UNL A   1      42.745 -21.992 -40.766  0.00  0.00    +0.012 C 
BRANCH   7  10
ATOM      8  C   UNL A   1      44.478 -20.725 -42.129  0.00  0.00    +0.246 C 
ATOM      9  O   UNL A   1      44.676 -20.064 -43.142  0.00  0.00    -0.270 OA
ATOM     10  N   UNL A   1      43.197 -20.975 -41.704  0.00  0.00    -0.311 N 
ATOM     11  H   UNL A   1      42.496 -20.394 -42.080  0.00  0.00    +0.000 HD
BRANCH   8  17
ATOM     12  C   UNL A   1      46.203 -20.597 -40.289  0.00  0.00    +0.044 A 
ATOM     13  C   UNL A   1      47.267 -21.232 -39.625  0.00  0.00    -0.040 A 
ATOM     14  C   UNL A   1      47.788 -22.448 -40.080  0.00  0.00    -0.060 A 
ATOM     15  C   UNL A   1      47.246 -23.065 -41.203  0.00  0.00    -0.061 A 
ATOM     16  C   UNL A   1      46.165 -22.480 -41.856  0.00  0.00    -0.048 A 
ATOM     17  C   UNL A   1      45.624 -21.276 -41.379  0.00  0.00    +0.058 A 
BRANCH  12  18
ATOM     18  N   UNL A   1      45.678 -19.373 -39.796  0.00  0.00    -0.314 N 
ATOM     19  H   UNL A   1      46.146 -18.553 -40.071  0.00  0.00    +0.000 HD
BRANCH  18  25
ATOM     20  C   UNL A   1      42.331 -16.374 -37.598  0.00  0.00    -0.039 C 
ATOM     21  C   UNL A   1      42.958 -17.722 -37.828  0.00  0.00    -0.046 A 
ATOM     22  C   UNL A   1      42.486 -18.818 -37.088  0.00  0.00    -0.058 A 
ATOM     23  C   UNL A   1      43.047 -20.081 -37.250  0.00  0.00    -0.060 A 
ATOM     24  C   UNL A   1      44.083 -20.266 -38.160  0.00  0.00    -0.040 A 
ATOM     25  C   UNL A   1      44.549 -19.204 -38.949  0.00  0.00    +0.035 A 
ATOM     26  C   UNL A   1      43.989 -17.915 -38.778  0.00  0.00    -0.026 A 
ATOM     27  C   UNL A   1      44.525 -16.751 -39.576  0.00  0.00    -0.038 C 
ENDBRANCH  18  25
ENDBRANCH  12  18
ENDBRANCH   8  17
ENDBRANCH   7  10
ENDBRANCH   6   7
ENDBRANCH   5   6
ENDBRANCH   1   5
BRANCH   3  28
ATOM     28  C   UNL A   1      39.425 -21.545 -35.903  0.00  0.00    +0.012 C 
BRANCH  28  29
ATOM     29  C   UNL A   1      39.492 -22.303 -34.578  0.00  0.00    -0.037 C 
BRANCH  29  30
ATOM     30  C   UNL A   1      40.844 -22.089 -33.893  0.00  0.00    -0.052 C 
BRANCH  30  31
ATOM     31  C   UNL A   1      40.773 -21.133 -32.700  0.00  0.00    -0.052 C 
BRANCH  31  32
ATOM     32  C   UNL A   1      41.495 -19.807 -32.953  0.00  0.00    -0.037 C 
BRANCH  32  33
ATOM     33  C   UNL A   1      42.829 -20.024 -33.670  0.00  0.00    +0.009 C 
BRANCH  33  34
ATOM     34  N   UNL A   1      43.874 -19.261 -32.973  0.00  0.00    -0.343 N 
ATOM     35  H   UNL A   1      44.138 -19.415 -32.038  0.00  0.00    +0.000 HD
BRANCH  34  36
ATOM     36  C   UNL A   1      44.459 -18.270 -33.816  0.00  0.00    +0.041 A 
ATOM     37  C   UNL A   1      45.444 -18.619 -34.764  0.00  0.00    -0.005 A 
ATOM     38  C   UNL A   1      45.930 -17.603 -35.592  0.00  0.00    +0.047 A 
ATOM     39  N   UNL A   1      45.469 -16.330 -35.557  0.00  0.00    -0.251 NA
ATOM     40  C   UNL A   1      44.527 -16.002 -34.663  0.00  0.00    +0.074 A 
ATOM     41  C   UNL A   1      44.083 -14.688 -34.634  0.00  0.00    -0.017 A 
ATOM     42  C   UNL A   1      43.118 -14.269 -33.721  0.00  0.00    +0.043 A 
ATOM     43 CL   UNL A   1      42.599 -12.630 -33.716  0.00  0.00    -0.083 Cl
ATOM     44  C   UNL A   1      42.579 -15.166 -32.811  0.00  0.00    -0.043 A 
ATOM     45  C   UNL A   1      43.010 -16.490 -32.829  0.00  0.00    -0.049 A 
ATOM     46  C   UNL A   1      43.980 -16.933 -33.760  0.00  0.00    +0.022 A 
ATOM     47  C   UNL A   1      46.975 -17.868 -36.647  0.00  0.00    -0.010 C 
ATOM     48  C   UNL A   1      47.777 -19.138 -36.396  0.00  0.00    -0.047 C 
ATOM     49  C   UNL A   1      46.830 -20.292 -36.103  0.00  0.00    -0.049 C 
ATOM     50  C   UNL A   1      46.022 -20.013 -34.837  0.00  0.00    -0.024 C 
ENDBRANCH  34  36
ENDBRANCH  33  34
ENDBRANCH  32  33
ENDBRANCH  31  32
ENDBRANCH  30  31
ENDBRANCH  29  30
ENDBRANCH  28  29
ENDBRANCH   3  28
TORSDOF 15
ENDMDL
MODEL 5
REMARK VINA RESULT:    -8.316      5.061      9.111
REMARK INTER + INTRA:         -18.330
REMARK INTER:                 -14.746
REMARK INTRA:                  -3.583
REMARK UNBOUND:                -2.721
REMARK  Name = cpd14.pdb
REMARK  17 active torsions:
REMARK  status: ('A' for Active; 'I' for Inactive)
REMARK    1  A    between atoms: C_1  and  C_2
REMARK    2  A    between atoms: C_6  and  N_7
REMARK    3  A    between atoms: N_7  and  C_8
REMARK    4  A    between atoms: C_13  and  C_14
REMARK    5  A    between atoms: N_16  and  C_17
REMARK    6  A    between atoms: C_17  and  C_18
REMARK    7  A    between atoms: C_18  and  C_19
REMARK    8  A    between atoms: C_19  and  C_20
REMARK    9  A    between atoms: N_22  and  C_23
REMARK   10  A    between atoms: C_23  and  C_24
REMARK   11  A    between atoms: C_24  and  C_25
REMARK   12  A    between atoms: C_25  and  C_26
REMARK   13  A    between atoms: C_26  and  C_27
REMARK   14  A    between atoms: C_27  and  C_28
REMARK   15  A    between atoms: C_28  and  N_29
REMARK   16  A    between atoms: N_29  and  C_30
REMARK   17  A    between atoms: C_45  and  C_46
REMARK                            x       y       z     vdW  Elec       q    Type
REMARK                         _______ _______ _______ _____ _____    ______ ____
ROOT
ATOM      1  C   UNL A   1      31.721 -39.908 -33.000  0.00  0.00    +0.213 C 
ATOM      2  O   UNL A   1      30.989 -40.821 -32.628  0.00  0.00    -0.276 OA
ATOM      3  N   UNL A   1      32.856 -40.100 -33.754  0.00  0.00    -0.315 N 
ATOM      4  H   UNL A   1      33.404 -39.319 -33.998  0.00  0.00    +0.000 HD
ENDROOT
BRANCH   1   5
ATOM      5  C   UNL A   1      31.426 -38.460 -32.674  0.00  0.00    +0.025 C 
BRANCH   5   6
ATOM      6  C   UNL A   1      32.122 -37.503 -33.640  0.00  0.00    -0.029 C 
BRANCH   6   7
ATOM      7  C   UNL A   1      33.287 -36.758 -32.990  0.00  0.00    +0.012 C 
BRANCH   7  10
ATOM      8  C   UNL A   1      34.289 -36.809 -30.653  0.00  0.00    +0.246 C 
ATOM      9  O   UNL A   1      34.348 -37.427 -29.595  0.00  0.00    -0.270 OA
ATOM     10  N   UNL A   1      33.759 -37.401 -31.773  0.00  0.00    -0.311 N 
ATOM     11  H   UNL A   1      33.690 -38.383 -31.750  0.00  0.00    +0.000 HD
BRANCH   8  17
ATOM     12  C   UNL A   1      36.080 -35.087 -31.106  0.00  0.00    +0.044 A 
ATOM     13  C   UNL A   1      36.415 -33.723 -31.162  0.00  0.00    -0.040 A 
ATOM     14  C   UNL A   1      35.511 -32.733 -30.761  0.00  0.00    -0.060 A 
ATOM     15  C   UNL A   1      34.243 -33.084 -30.308  0.00  0.00    -0.061 A 
ATOM     16  C   UNL A   1      33.869 -34.425 -30.281  0.00  0.00    -0.048 A 
ATOM     17  C   UNL A   1      34.767 -35.414 -30.713  0.00  0.00    +0.058 A 
BRANCH  12  18
ATOM     18  N   UNL A   1      37.006 -36.072 -31.537  0.00  0.00    -0.314 N 
ATOM     19  H   UNL A   1      36.871 -36.434 -32.442  0.00  0.00    +0.000 HD
BRANCH  18  25
ATOM     20  C   UNL A   1      41.881 -37.159 -31.247  0.00  0.00    -0.039 C 
ATOM     21  C   UNL A   1      40.480 -37.179 -30.699  0.00  0.00    -0.046 A 
ATOM     22  C   UNL A   1      40.244 -37.840 -29.483  0.00  0.00    -0.058 A 
ATOM     23  C   UNL A   1      38.963 -37.905 -28.945  0.00  0.00    -0.060 A 
ATOM     24  C   UNL A   1      37.901 -37.301 -29.612  0.00  0.00    -0.040 A 
ATOM     25  C   UNL A   1      38.108 -36.592 -30.806  0.00  0.00    +0.035 A 
ATOM     26  C   UNL A   1      39.408 -36.536 -31.362  0.00  0.00    -0.026 A 
ATOM     27  C   UNL A   1      39.632 -35.830 -32.678  0.00  0.00    -0.038 C 
ENDBRANCH  18  25
ENDBRANCH  12  18
ENDBRANCH   8  17
ENDBRANCH   7  10
ENDBRANCH   6   7
ENDBRANCH   5   6
ENDBRANCH   1   5
BRANCH   3  28
ATOM     28  C   UNL A   1      33.272 -41.414 -34.201  0.00  0.00    +0.012 C 
BRANCH  28  29
ATOM     29  C   UNL A   1      34.194 -42.100 -33.195  0.00  0.00    -0.037 C 
BRANCH  29  30
ATOM     30  C   UNL A   1      35.147 -41.093 -32.548  0.00  0.00    -0.052 C 
BRANCH  30  31
ATOM     31  C   UNL A   1      34.918 -40.924 -31.043  0.00  0.00    -0.052 C 
BRANCH  31  32
ATOM     32  C   UNL A   1      36.213 -40.673 -30.267  0.00  0.00    -0.037 C 
BRANCH  32  33
ATOM     33  C   UNL A   1      35.946 -40.536 -28.766  0.00  0.00    +0.009 C 
BRANCH  33  34
ATOM     34  N   UNL A   1      34.523 -40.232 -28.560  0.00  0.00    -0.343 N 
ATOM     35  H   UNL A   1      33.961 -39.756 -29.213  0.00  0.00    +0.000 HD
BRANCH  34  36
ATOM     36  C   UNL A   1      34.054 -40.709 -27.300  0.00  0.00    +0.041 A 
ATOM     37  C   UNL A   1      33.807 -42.083 -27.096  0.00  0.00    -0.005 A 
ATOM     38  C   UNL A   1      33.403 -42.481 -25.819  0.00  0.00    +0.047 A 
ATOM     39  N   UNL A   1      33.288 -41.627 -24.774  0.00  0.00    -0.251 NA
ATOM     40  C   UNL A   1      33.534 -40.324 -24.967  0.00  0.00    +0.074 A 
ATOM     41  C   UNL A   1      33.393 -39.466 -23.886  0.00  0.00    -0.017 A 
ATOM     42  C   UNL A   1      33.615 -38.097 -24.014  0.00  0.00    +0.043 A 
ATOM     43 CL   UNL A   1      33.425 -37.067 -22.650  0.00  0.00    -0.083 Cl
ATOM     44  C   UNL A   1      33.982 -37.558 -25.239  0.00  0.00    -0.043 A 
ATOM     45  C   UNL A   1      34.131 -38.406 -26.334  0.00  0.00    -0.049 A 
ATOM     46  C   UNL A   1      33.922 -39.801 -26.215  0.00  0.00    +0.022 A 
ATOM     47  C   UNL A   1      33.122 -43.925 -25.487  0.00  0.00    -0.010 C 
ATOM     48  C   UNL A   1      32.830 -44.779 -26.714  0.00  0.00    -0.047 C 
ATOM     49  C   UNL A   1      33.898 -44.543 -27.769  0.00  0.00    -0.049 C 
ATOM     50  C   UNL A   1      33.888 -43.084 -28.224  0.00  0.00    -0.024 C 
ENDBRANCH  34  36
ENDBRANCH  33  34
ENDBRANCH  32  33
ENDBRANCH  31  32
ENDBRANCH  30  31
ENDBRANCH  29  30
ENDBRANCH  28  29
ENDBRANCH   3  28
TORSDOF 15
ENDMDL
MODEL 6
REMARK VINA RESULT:    -8.313     18.119     22.420
REMARK INTER + INTRA:         -18.324
REMARK INTER:                 -13.994
REMARK INTRA:                  -4.330
REMARK UNBOUND:                -2.721
REMARK  Name = cpd14.pdb
REMARK  17 active torsions:
REMARK  status: ('A' for Active; 'I' for Inactive)
REMARK    1  A    between atoms: C_1  and  C_2
REMARK    2  A    between atoms: C_6  and  N_7
REMARK    3  A    between atoms: N_7  and  C_8
REMARK    4  A    between atoms: C_13  and  C_14
REMARK    5  A    between atoms: N_16  and  C_17
REMARK    6  A    between atoms: C_17  and  C_18
REMARK    7  A    between atoms: C_18  and  C_19
REMARK    8  A    between atoms: C_19  and  C_20
REMARK    9  A    between atoms: N_22  and  C_23
REMARK   10  A    between atoms: C_23  and  C_24
REMARK   11  A    between atoms: C_24  and  C_25
REMARK   12  A    between atoms: C_25  and  C_26
REMARK   13  A    between atoms: C_26  and  C_27
REMARK   14  A    between atoms: C_27  and  C_28
REMARK   15  A    between atoms: C_28  and  N_29
REMARK   16  A    between atoms: N_29  and  C_30
REMARK   17  A    between atoms: C_45  and  C_46
REMARK                            x       y       z     vdW  Elec       q    Type
REMARK                         _______ _______ _______ _____ _____    ______ ____
ROOT
ATOM      1  C   UNL A   1      47.425 -18.220 -35.836  0.00  0.00    +0.213 C 
ATOM      2  O   UNL A   1      48.531 -17.924 -35.394  0.00  0.00    -0.276 OA
ATOM      3  N   UNL A   1      46.594 -17.326 -36.473  0.00  0.00    -0.315 N 
ATOM      4  H   UNL A   1      45.712 -17.633 -36.784  0.00  0.00    +0.000 HD
ENDROOT
BRANCH   1   5
ATOM      5  C   UNL A   1      46.871 -19.625 -35.738  0.00  0.00    +0.025 C 
BRANCH   5   6
ATOM      6  C   UNL A   1      45.369 -19.667 -36.012  0.00  0.00    -0.029 C 
BRANCH   6   7
ATOM      7  C   UNL A   1      44.569 -20.181 -34.816  0.00  0.00    +0.012 C 
BRANCH   7  10
ATOM      8  C   UNL A   1      44.218 -18.460 -32.978  0.00  0.00    +0.246 C 
ATOM      9  O   UNL A   1      44.421 -18.189 -31.799  0.00  0.00    -0.270 OA
ATOM     10  N   UNL A   1      44.898 -19.491 -33.579  0.00  0.00    -0.311 N 
ATOM     11  H   UNL A   1      45.709 -19.801 -33.114  0.00  0.00    +0.000 HD
BRANCH   8  17
ATOM     12  C   UNL A   1      41.835 -17.844 -33.545  0.00  0.00    +0.044 A 
ATOM     13  C   UNL A   1      40.978 -17.031 -34.306  0.00  0.00    -0.040 A 
ATOM     14  C   UNL A   1      41.475 -16.165 -35.286  0.00  0.00    -0.060 A 
ATOM     15  C   UNL A   1      42.845 -16.081 -35.517  0.00  0.00    -0.061 A 
ATOM     16  C   UNL A   1      43.721 -16.844 -34.749  0.00  0.00    -0.048 A 
ATOM     17  C   UNL A   1      43.221 -17.688 -33.745  0.00  0.00    +0.058 A 
BRANCH  12  18
ATOM     18  N   UNL A   1      41.309 -18.700 -32.542  0.00  0.00    -0.314 N 
ATOM     19  H   UNL A   1      41.395 -18.389 -31.612  0.00  0.00    +0.000 HD
BRANCH  18  25
ATOM     20  C   UNL A   1      37.145 -21.472 -32.618  0.00  0.00    -0.039 C 
ATOM     21  C   UNL A   1      38.640 -21.315 -32.704  0.00  0.00    -0.046 A 
ATOM     22  C   UNL A   1      39.428 -22.467 -32.857  0.00  0.00    -0.058 A 
ATOM     23  C   UNL A   1      40.815 -22.376 -32.921  0.00  0.00    -0.060 A 
ATOM     24  C   UNL A   1      41.432 -21.131 -32.841  0.00  0.00    -0.040 A 
ATOM     25  C   UNL A   1      40.672 -19.956 -32.733  0.00  0.00    +0.035 A 
ATOM     26  C   UNL A   1      39.262 -20.046 -32.654  0.00  0.00    -0.026 A 
ATOM     27  C   UNL A   1      38.438 -18.793 -32.476  0.00  0.00    -0.038 C 
ENDBRANCH  18  25
ENDBRANCH  12  18
ENDBRANCH   8  17
ENDBRANCH   7  10
ENDBRANCH   6   7
ENDBRANCH   5   6
ENDBRANCH   1   5
BRANCH   3  28
ATOM     28  C   UNL A   1      46.976 -15.947 -36.701  0.00  0.00    +0.012 C 
BRANCH  28  29
ATOM     29  C   UNL A   1      45.839 -15.125 -37.305  0.00  0.00    -0.037 C 
BRANCH  29  30
ATOM     30  C   UNL A   1      46.339 -14.275 -38.475  0.00  0.00    -0.052 C 
BRANCH  30  31
ATOM     31  C   UNL A   1      46.051 -14.898 -39.843  0.00  0.00    -0.052 C 
BRANCH  31  32
ATOM     32  C   UNL A   1      47.238 -15.685 -40.403  0.00  0.00    -0.037 C 
BRANCH  32  33
ATOM     33  C   UNL A   1      47.067 -17.190 -40.178  0.00  0.00    +0.009 C 
BRANCH  33  34
ATOM     34  N   UNL A   1      45.939 -17.667 -40.988  0.00  0.00    -0.343 N 
ATOM     35  H   UNL A   1      45.547 -17.165 -41.738  0.00  0.00    +0.000 HD
BRANCH  34  36
ATOM     36  C   UNL A   1      45.479 -18.947 -40.558  0.00  0.00    +0.041 A 
ATOM     37  C   UNL A   1      44.307 -19.069 -39.782  0.00  0.00    -0.005 A 
ATOM     38  C   UNL A   1      43.889 -20.359 -39.445  0.00  0.00    +0.047 A 
ATOM     39  N   UNL A   1      44.522 -21.480 -39.865  0.00  0.00    -0.251 NA
ATOM     40  C   UNL A   1      45.629 -21.364 -40.610  0.00  0.00    +0.074 A 
ATOM     41  C   UNL A   1      46.269 -22.526 -41.014  0.00  0.00    -0.017 A 
ATOM     42  C   UNL A   1      47.434 -22.483 -41.776  0.00  0.00    +0.043 A 
ATOM     43 CL   UNL A   1      48.200 -23.947 -42.253  0.00  0.00    -0.083 Cl
ATOM     44  C   UNL A   1      47.984 -21.265 -42.148  0.00  0.00    -0.043 A 
ATOM     45  C   UNL A   1      47.352 -20.088 -41.753  0.00  0.00    -0.049 A 
ATOM     46  C   UNL A   1      46.160 -20.117 -40.990  0.00  0.00    +0.022 A 
ATOM     47  C   UNL A   1      42.644 -20.605 -38.628  0.00  0.00    -0.010 C 
ATOM     48  C   UNL A   1      42.206 -19.392 -37.818  0.00  0.00    -0.047 C 
ATOM     49  C   UNL A   1      42.174 -18.163 -38.713  0.00  0.00    -0.049 C 
ATOM     50  C   UNL A   1      43.569 -17.860 -39.256  0.00  0.00    -0.024 C 
ENDBRANCH  34  36
ENDBRANCH  33  34
ENDBRANCH  32  33
ENDBRANCH  31  32
ENDBRANCH  30  31
ENDBRANCH  29  30
ENDBRANCH  28  29
ENDBRANCH   3  28
TORSDOF 15
ENDMDL
MODEL 7
REMARK VINA RESULT:    -8.102     18.559     21.218
REMARK INTER + INTRA:         -17.928
REMARK INTER:                 -12.210
REMARK INTRA:                  -5.718
REMARK UNBOUND:                -2.721
REMARK  Name = cpd14.pdb
REMARK  17 active torsions:
REMARK  status: ('A' for Active; 'I' for Inactive)
REMARK    1  A    between atoms: C_1  and  C_2
REMARK    2  A    between atoms: C_6  and  N_7
REMARK    3  A    between atoms: N_7  and  C_8
REMARK    4  A    between atoms: C_13  and  C_14
REMARK    5  A    between atoms: N_16  and  C_17
REMARK    6  A    between atoms: C_17  and  C_18
REMARK    7  A    between atoms: C_18  and  C_19
REMARK    8  A    between atoms: C_19  and  C_20
REMARK    9  A    between atoms: N_22  and  C_23
REMARK   10  A    between atoms: C_23  and  C_24
REMARK   11  A    between atoms: C_24  and  C_25
REMARK   12  A    between atoms: C_25  and  C_26
REMARK   13  A    between atoms: C_26  and  C_27
REMARK   14  A    between atoms: C_27  and  C_28
REMARK   15  A    between atoms: C_28  and  N_29
REMARK   16  A    between atoms: N_29  and  C_30
REMARK   17  A    between atoms: C_45  and  C_46
REMARK                            x       y       z     vdW  Elec       q    Type
REMARK                         _______ _______ _______ _____ _____    ______ ____
ROOT
ATOM      1  C   UNL A   1      45.778 -17.464 -35.233  0.00  0.00    +0.213 C 
ATOM      2  O   UNL A   1      44.715 -16.975 -35.603  0.00  0.00    -0.276 OA
ATOM      3  N   UNL A   1      45.987 -17.964 -33.968  0.00  0.00    -0.315 N 
ATOM      4  H   UNL A   1      46.875 -18.323 -33.738  0.00  0.00    +0.000 HD
ENDROOT
BRANCH   1   5
ATOM      5  C   UNL A   1      46.972 -17.582 -36.155  0.00  0.00    +0.025 C 
BRANCH   5   6
ATOM      6  C   UNL A   1      47.316 -19.038 -36.461  0.00  0.00    -0.029 C 
BRANCH   6   7
ATOM      7  C   UNL A   1      47.264 -19.352 -37.956  0.00  0.00    +0.012 C 
BRANCH   7  10
ATOM      8  C   UNL A   1      45.905 -18.296 -39.827  0.00  0.00    +0.246 C 
ATOM      9  O   UNL A   1      45.308 -17.290 -40.195  0.00  0.00    -0.270 OA
ATOM     10  N   UNL A   1      46.750 -18.244 -38.747  0.00  0.00    -0.311 N 
ATOM     11  H   UNL A   1      47.046 -17.345 -38.473  0.00  0.00    +0.000 HD
BRANCH   8  17
ATOM     12  C   UNL A   1      44.462 -20.257 -40.499  0.00  0.00    +0.044 A 
ATOM     13  C   UNL A   1      44.362 -21.446 -41.242  0.00  0.00    -0.040 A 
ATOM     14  C   UNL A   1      45.465 -21.977 -41.919  0.00  0.00    -0.060 A 
ATOM     15  C   UNL A   1      46.692 -21.322 -41.882  0.00  0.00    -0.061 A 
ATOM     16  C   UNL A   1      46.809 -20.119 -41.189  0.00  0.00    -0.048 A 
ATOM     17  C   UNL A   1      45.693 -19.573 -40.536  0.00  0.00    +0.058 A 
BRANCH  12  18
ATOM     18  N   UNL A   1      43.323 -19.726 -39.837  0.00  0.00    -0.314 N 
ATOM     19  H   UNL A   1      43.226 -18.747 -39.850  0.00  0.00    +0.000 HD
BRANCH  18  25
ATOM     20  C   UNL A   1      41.524 -21.739 -35.625  0.00  0.00    -0.039 C 
ATOM     21  C   UNL A   1      41.469 -21.490 -37.109  0.00  0.00    -0.046 A 
ATOM     22  C   UNL A   1      40.448 -22.099 -37.855  0.00  0.00    -0.058 A 
ATOM     23  C   UNL A   1      40.367 -21.916 -39.232  0.00  0.00    -0.060 A 
ATOM     24  C   UNL A   1      41.302 -21.114 -39.880  0.00  0.00    -0.040 A 
ATOM     25  C   UNL A   1      42.309 -20.454 -39.159  0.00  0.00    +0.035 A 
ATOM     26  C   UNL A   1      42.402 -20.648 -37.760  0.00  0.00    -0.026 A 
ATOM     27  C   UNL A   1      43.518 -19.993 -36.983  0.00  0.00    -0.038 C 
ENDBRANCH  18  25
ENDBRANCH  12  18
ENDBRANCH   8  17
ENDBRANCH   7  10
ENDBRANCH   6   7
ENDBRANCH   5   6
ENDBRANCH   1   5
BRANCH   3  28
ATOM     28  C   UNL A   1      44.944 -17.977 -32.963  0.00  0.00    +0.012 C 
BRANCH  28  29
ATOM     29  C   UNL A   1      45.168 -16.920 -31.883  0.00  0.00    -0.037 C 
BRANCH  29  30
ATOM     30  C   UNL A   1      44.100 -15.827 -31.957  0.00  0.00    -0.052 C 
BRANCH  30  31
ATOM     31  C   UNL A   1      42.848 -16.254 -32.727  0.00  0.00    -0.052 C 
BRANCH  31  32
ATOM     32  C   UNL A   1      42.401 -15.219 -33.762  0.00  0.00    -0.037 C 
BRANCH  32  33
ATOM     33  C   UNL A   1      41.309 -15.779 -34.677  0.00  0.00    +0.009 C 
BRANCH  33  34
ATOM     34  N   UNL A   1      41.650 -17.163 -35.034  0.00  0.00    -0.343 N 
ATOM     35  H   UNL A   1      42.531 -17.573 -34.875  0.00  0.00    +0.000 HD
BRANCH  34  36
ATOM     36  C   UNL A   1      40.551 -17.842 -35.640  0.00  0.00    +0.041 A 
ATOM     37  C   UNL A   1      40.312 -17.733 -37.026  0.00  0.00    -0.005 A 
ATOM     38  C   UNL A   1      39.251 -18.471 -37.557  0.00  0.00    +0.047 A 
ATOM     39  N   UNL A   1      38.486 -19.310 -36.819  0.00  0.00    -0.251 NA
ATOM     40  C   UNL A   1      38.720 -19.421 -35.505  0.00  0.00    +0.074 A 
ATOM     41  C   UNL A   1      37.913 -20.274 -34.767  0.00  0.00    -0.017 A 
ATOM     42  C   UNL A   1      38.086 -20.427 -33.393  0.00  0.00    +0.043 A 
ATOM     43 CL   UNL A   1      37.060 -21.492 -32.514  0.00  0.00    -0.083 Cl
ATOM     44  C   UNL A   1      39.078 -19.721 -32.729  0.00  0.00    -0.043 A 
ATOM     45  C   UNL A   1      39.900 -18.863 -33.456  0.00  0.00    -0.049 A 
ATOM     46  C   UNL A   1      39.744 -18.707 -34.854  0.00  0.00    +0.022 A 
ATOM     47  C   UNL A   1      38.913 -18.436 -39.027  0.00  0.00    -0.010 C 
ATOM     48  C   UNL A   1      39.462 -17.208 -39.742  0.00  0.00    -0.047 C 
ATOM     49  C   UNL A   1      40.932 -17.031 -39.401  0.00  0.00    -0.049 C 
ATOM     50  C   UNL A   1      41.109 -16.793 -37.902  0.00  0.00    -0.024 C 
ENDBRANCH  34  36
ENDBRANCH  33  34
ENDBRANCH  32  33
ENDBRANCH  31  32
ENDBRANCH  30  31
ENDBRANCH  29  30
ENDBRANCH  28  29
ENDBRANCH   3  28
TORSDOF 15
ENDMDL
MODEL 8
REMARK VINA RESULT:    -8.045     18.587     21.919
REMARK INTER + INTRA:         -17.820
REMARK INTER:                 -12.978
REMARK INTRA:                  -4.842
REMARK UNBOUND:                -2.721
REMARK  Name = cpd14.pdb
REMARK  17 active torsions:
REMARK  status: ('A' for Active; 'I' for Inactive)
REMARK    1  A    between atoms: C_1  and  C_2
REMARK    2  A    between atoms: C_6  and  N_7
REMARK    3  A    between atoms: N_7  and  C_8
REMARK    4  A    between atoms: C_13  and  C_14
REMARK    5  A    between atoms: N_16  and  C_17
REMARK    6  A    between atoms: C_17  and  C_18
REMARK    7  A    between atoms: C_18  and  C_19
REMARK    8  A    between atoms: C_19  and  C_20
REMARK    9  A    between atoms: N_22  and  C_23
REMARK   10  A    between atoms: C_23  and  C_24
REMARK   11  A    between atoms: C_24  and  C_25
REMARK   12  A    between atoms: C_25  and  C_26
REMARK   13  A    between atoms: C_26  and  C_27
REMARK   14  A    between atoms: C_27  and  C_28
REMARK   15  A    between atoms: C_28  and  N_29
REMARK   16  A    between atoms: N_29  and  C_30
REMARK   17  A    between atoms: C_45  and  C_46
REMARK                            x       y       z     vdW  Elec       q    Type
REMARK                         _______ _______ _______ _____ _____    ______ ____
ROOT
ATOM      1  C   UNL A   1      39.049 -21.204 -33.143  0.00  0.00    +0.213 C 
ATOM      2  O   UNL A   1      37.824 -21.147 -33.103  0.00  0.00    -0.276 OA
ATOM      3  N   UNL A   1      39.746 -22.152 -33.857  0.00  0.00    -0.315 N 
ATOM      4  H   UNL A   1      40.730 -22.145 -33.825  0.00  0.00    +0.000 HD
ENDROOT
BRANCH   1   5
ATOM      5  C   UNL A   1      39.923 -20.206 -32.413  0.00  0.00    +0.025 C 
BRANCH   5   6
ATOM      6  C   UNL A   1      41.392 -20.332 -32.814  0.00  0.00    -0.029 C 
BRANCH   6   7
ATOM      7  C   UNL A   1      42.045 -18.976 -33.078  0.00  0.00    +0.012 C 
BRANCH   7  10
ATOM      8  C   UNL A   1      44.260 -17.825 -32.592  0.00  0.00    +0.246 C 
ATOM      9  O   UNL A   1      45.262 -17.826 -31.885  0.00  0.00    -0.270 OA
ATOM     10  N   UNL A   1      43.419 -18.910 -32.603  0.00  0.00    -0.311 N 
ATOM     11  H   UNL A   1      43.791 -19.748 -32.243  0.00  0.00    +0.000 HD
BRANCH   8  17
ATOM     12  C   UNL A   1      44.733 -16.268 -34.524  0.00  0.00    +0.044 A 
ATOM     13  C   UNL A   1      44.320 -15.144 -35.259  0.00  0.00    -0.040 A 
ATOM     14  C   UNL A   1      43.222 -14.374 -34.858  0.00  0.00    -0.060 A 
ATOM     15  C   UNL A   1      42.503 -14.721 -33.719  0.00  0.00    -0.061 A 
ATOM     16  C   UNL A   1      42.864 -15.854 -32.994  0.00  0.00    -0.048 A 
ATOM     17  C   UNL A   1      43.946 -16.642 -33.417  0.00  0.00    +0.058 A 
BRANCH  12  18
ATOM     18  N   UNL A   1      45.838 -17.046 -34.962  0.00  0.00    -0.314 N 
ATOM     19  H   UNL A   1      46.494 -17.300 -34.274  0.00  0.00    +0.000 HD
BRANCH  18  25
ATOM     20  C   UNL A   1      46.230 -20.791 -38.255  0.00  0.00    -0.039 C 
ATOM     21  C   UNL A   1      46.351 -19.342 -37.870  0.00  0.00    -0.046 A 
ATOM     22  C   UNL A   1      46.853 -18.435 -38.817  0.00  0.00    -0.058 A 
ATOM     23  C   UNL A   1      47.004 -17.088 -38.503  0.00  0.00    -0.060 A 
ATOM     24  C   UNL A   1      46.646 -16.628 -37.239  0.00  0.00    -0.040 A 
ATOM     25  C   UNL A   1      46.099 -17.497 -36.283  0.00  0.00    +0.035 A 
ATOM     26  C   UNL A   1      45.957 -18.871 -36.596  0.00  0.00    -0.026 A 
ATOM     27  C   UNL A   1      45.427 -19.827 -35.554  0.00  0.00    -0.038 C 
ENDBRANCH  18  25
ENDBRANCH  12  18
ENDBRANCH   8  17
ENDBRANCH   7  10
ENDBRANCH   6   7
ENDBRANCH   5   6
ENDBRANCH   1   5
BRANCH   3  28
ATOM     28  C   UNL A   1      39.078 -23.160 -34.654  0.00  0.00    +0.012 C 
BRANCH  28  29
ATOM     29  C   UNL A   1      39.178 -22.873 -36.151  0.00  0.00    -0.037 C 
BRANCH  29  30
ATOM     30  C   UNL A   1      40.554 -22.309 -36.511  0.00  0.00    -0.052 C 
BRANCH  30  31
ATOM     31  C   UNL A   1      40.560 -20.787 -36.677  0.00  0.00    -0.052 C 
BRANCH  31  32
ATOM     32  C   UNL A   1      40.270 -20.341 -38.112  0.00  0.00    -0.037 C 
BRANCH  32  33
ATOM     33  C   UNL A   1      40.972 -19.021 -38.439  0.00  0.00    +0.009 C 
BRANCH  33  34
ATOM     34  N   UNL A   1      42.424 -19.209 -38.314  0.00  0.00    -0.343 N 
ATOM     35  H   UNL A   1      42.860 -19.633 -37.540  0.00  0.00    +0.000 HD
BRANCH  34  36
ATOM     36  C   UNL A   1      43.126 -18.704 -39.449  0.00  0.00    +0.041 A 
ATOM     37  C   UNL A   1      43.437 -19.546 -40.538  0.00  0.00    -0.005 A 
ATOM     38  C   UNL A   1      44.076 -18.967 -41.637  0.00  0.00    +0.047 A 
ATOM     39  N   UNL A   1      44.361 -17.645 -41.722  0.00  0.00    -0.251 NA
ATOM     40  C   UNL A   1      44.056 -16.846 -40.691  0.00  0.00    +0.074 A 
ATOM     41  C   UNL A   1      44.373 -15.499 -40.794  0.00  0.00    -0.017 A 
ATOM     42  C   UNL A   1      44.101 -14.610 -39.757  0.00  0.00    +0.043 A 
ATOM     43 CL   UNL A   1      44.514 -12.949 -39.923  0.00  0.00    -0.083 Cl
ATOM     44  C   UNL A   1      43.505 -15.058 -38.588  0.00  0.00    -0.043 A 
ATOM     45  C   UNL A   1      43.177 -16.407 -38.469  0.00  0.00    -0.049 A 
ATOM     46  C   UNL A   1      43.435 -17.319 -39.520  0.00  0.00    +0.022 A 
ATOM     47  C   UNL A   1      44.445 -19.772 -42.858  0.00  0.00    -0.010 C 
ATOM     48  C   UNL A   1      44.526 -21.269 -42.591  0.00  0.00    -0.047 C 
ATOM     49  C   UNL A   1      43.278 -21.727 -41.854  0.00  0.00    -0.049 C 
ATOM     50  C   UNL A   1      43.173 -21.033 -40.497  0.00  0.00    -0.024 C 
ENDBRANCH  34  36
ENDBRANCH  33  34
ENDBRANCH  32  33
ENDBRANCH  31  32
ENDBRANCH  30  31
ENDBRANCH  29  30
ENDBRANCH  28  29
ENDBRANCH   3  28
TORSDOF 15
ENDMDL
MODEL 9
REMARK VINA RESULT:    -7.889     17.670     20.595
REMARK INTER + INTRA:         -17.528
REMARK INTER:                 -12.523
REMARK INTRA:                  -5.004
REMARK UNBOUND:                -2.721
REMARK  Name = cpd14.pdb
REMARK  17 active torsions:
REMARK  status: ('A' for Active; 'I' for Inactive)
REMARK    1  A    between atoms: C_1  and  C_2
REMARK    2  A    between atoms: C_6  and  N_7
REMARK    3  A    between atoms: N_7  and  C_8
REMARK    4  A    between atoms: C_13  and  C_14
REMARK    5  A    between atoms: N_16  and  C_17
REMARK    6  A    between atoms: C_17  and  C_18
REMARK    7  A    between atoms: C_18  and  C_19
REMARK    8  A    between atoms: C_19  and  C_20
REMARK    9  A    between atoms: N_22  and  C_23
REMARK   10  A    between atoms: C_23  and  C_24
REMARK   11  A    between atoms: C_24  and  C_25
REMARK   12  A    between atoms: C_25  and  C_26
REMARK   13  A    between atoms: C_26  and  C_27
REMARK   14  A    between atoms: C_27  and  C_28
REMARK   15  A    between atoms: C_28  and  N_29
REMARK   16  A    between atoms: N_29  and  C_30
REMARK   17  A    between atoms: C_45  and  C_46
REMARK                            x       y       z     vdW  Elec       q    Type
REMARK                         _______ _______ _______ _____ _____    ______ ____
ROOT
ATOM      1  C   UNL A   1      40.576 -16.450 -37.320  0.00  0.00    +0.213 C 
ATOM      2  O   UNL A   1      40.273 -15.951 -38.399  0.00  0.00    -0.276 OA
ATOM      3  N   UNL A   1      39.876 -17.479 -36.732  0.00  0.00    -0.315 N 
ATOM      4  H   UNL A   1      40.169 -17.814 -35.854  0.00  0.00    +0.000 HD
ENDROOT
BRANCH   1   5
ATOM      5  C   UNL A   1      41.780 -15.984 -36.530  0.00  0.00    +0.025 C 
BRANCH   5   6
ATOM      6  C   UNL A   1      43.031 -15.885 -37.400  0.00  0.00    -0.029 C 
BRANCH   6   7
ATOM      7  C   UNL A   1      43.527 -17.251 -37.871  0.00  0.00    +0.012 C 
BRANCH   7  10
ATOM      8  C   UNL A   1      45.829 -17.752 -38.829  0.00  0.00    +0.246 C 
ATOM      9  O   UNL A   1      46.495 -17.843 -39.854  0.00  0.00    -0.270 OA
ATOM     10  N   UNL A   1      44.593 -17.155 -38.857  0.00  0.00    -0.311 N 
ATOM     11  H   UNL A   1      44.404 -16.590 -39.642  0.00  0.00    +0.000 HD
BRANCH   8  17
ATOM     12  C   UNL A   1      46.164 -19.659 -37.208  0.00  0.00    +0.044 A 
ATOM     13  C   UNL A   1      46.734 -20.090 -35.997  0.00  0.00    -0.040 A 
ATOM     14  C   UNL A   1      47.385 -19.196 -35.140  0.00  0.00    -0.060 A 
ATOM     15  C   UNL A   1      47.493 -17.852 -35.480  0.00  0.00    -0.061 A 
ATOM     16  C   UNL A   1      46.974 -17.404 -36.692  0.00  0.00    -0.048 A 
ATOM     17  C   UNL A   1      46.349 -18.309 -37.565  0.00  0.00    +0.058 A 
BRANCH  12  18
ATOM     18  N   UNL A   1      45.526 -20.588 -38.072  0.00  0.00    -0.314 N 
ATOM     19  H   UNL A   1      44.617 -20.867 -37.821  0.00  0.00    +0.000 HD
BRANCH  18  25
ATOM     20  C   UNL A   1      44.925 -22.028 -42.825  0.00  0.00    -0.039 C 
ATOM     21  C   UNL A   1      45.735 -21.920 -41.561  0.00  0.00    -0.046 A 
ATOM     22  C   UNL A   1      47.008 -22.510 -41.527  0.00  0.00    -0.058 A 
ATOM     23  C   UNL A   1      47.787 -22.456 -40.375  0.00  0.00    -0.060 A 
ATOM     24  C   UNL A   1      47.306 -21.801 -39.245  0.00  0.00    -0.040 A 
ATOM     25  C   UNL A   1      46.058 -21.160 -39.259  0.00  0.00    +0.035 A 
ATOM     26  C   UNL A   1      45.258 -21.225 -40.425  0.00  0.00    -0.026 A 
ATOM     27  C   UNL A   1      43.887 -20.593 -40.431  0.00  0.00    -0.038 C 
ENDBRANCH  18  25
ENDBRANCH  12  18
ENDBRANCH   8  17
ENDBRANCH   7  10
ENDBRANCH   6   7
ENDBRANCH   5   6
ENDBRANCH   1   5
BRANCH   3  28
ATOM     28  C   UNL A   1      38.722 -18.085 -37.364  0.00  0.00    +0.012 C 
BRANCH  28  29
ATOM     29  C   UNL A   1      38.518 -19.535 -36.927  0.00  0.00    -0.037 C 
BRANCH  29  30
ATOM     30  C   UNL A   1      39.008 -20.506 -38.002  0.00  0.00    -0.052 C 
BRANCH  30  31
ATOM     31  C   UNL A   1      40.512 -20.405 -38.269  0.00  0.00    -0.052 C 
BRANCH  31  32
ATOM     32  C   UNL A   1      41.299 -21.593 -37.712  0.00  0.00    -0.037 C 
BRANCH  32  33
ATOM     33  C   UNL A   1      42.428 -21.132 -36.787  0.00  0.00    +0.009 C 
BRANCH  33  34
ATOM     34  N   UNL A   1      42.187 -21.664 -35.439  0.00  0.00    -0.343 N 
ATOM     35  H   UNL A   1      42.490 -22.549 -35.133  0.00  0.00    +0.000 HD
BRANCH  34  36
ATOM     36  C   UNL A   1      41.462 -20.743 -34.626  0.00  0.00    +0.041 A 
ATOM     37  C   UNL A   1      40.164 -21.053 -34.166  0.00  0.00    -0.005 A 
ATOM     38  C   UNL A   1      39.539 -20.126 -33.328  0.00  0.00    +0.047 A 
ATOM     39  N   UNL A   1      40.134 -18.985 -32.906  0.00  0.00    -0.251 NA
ATOM     40  C   UNL A   1      41.370 -18.696 -33.335  0.00  0.00    +0.074 A 
ATOM     41  C   UNL A   1      41.951 -17.513 -32.903  0.00  0.00    -0.017 A 
ATOM     42  C   UNL A   1      43.226 -17.138 -33.320  0.00  0.00    +0.043 A 
ATOM     43 CL   UNL A   1      43.910 -15.661 -32.764  0.00  0.00    -0.083 Cl
ATOM     44  C   UNL A   1      43.946 -17.947 -34.187  0.00  0.00    -0.043 A 
ATOM     45  C   UNL A   1      43.378 -19.140 -34.628  0.00  0.00    -0.049 A 
ATOM     46  C   UNL A   1      42.089 -19.540 -34.202  0.00  0.00    +0.022 A 
ATOM     47  C   UNL A   1      38.157 -20.362 -32.771  0.00  0.00    -0.010 C 
ATOM     48  C   UNL A   1      37.353 -21.381 -33.566  0.00  0.00    -0.047 C 
ATOM     49  C   UNL A   1      38.191 -22.629 -33.796  0.00  0.00    -0.049 C 
ATOM     50  C   UNL A   1      39.433 -22.294 -34.621  0.00  0.00    -0.024 C 
ENDBRANCH  34  36
ENDBRANCH  33  34
ENDBRANCH  32  33
ENDBRANCH  31  32
ENDBRANCH  30  31
ENDBRANCH  29  30
ENDBRANCH  28  29
ENDBRANCH   3  28
TORSDOF 15
ENDMDL
MODEL 10
REMARK VINA RESULT:    -7.870     18.895     21.740
REMARK INTER + INTRA:         -17.492
REMARK INTER:                 -12.284
REMARK INTRA:                  -5.208
REMARK UNBOUND:                -2.721
REMARK  Name = cpd14.pdb
REMARK  17 active torsions:
REMARK  status: ('A' for Active; 'I' for Inactive)
REMARK    1  A    between atoms: C_1  and  C_2
REMARK    2  A    between atoms: C_6  and  N_7
REMARK    3  A    between atoms: N_7  and  C_8
REMARK    4  A    between atoms: C_13  and  C_14
REMARK    5  A    between atoms: N_16  and  C_17
REMARK    6  A    between atoms: C_17  and  C_18
REMARK    7  A    between atoms: C_18  and  C_19
REMARK    8  A    between atoms: C_19  and  C_20
REMARK    9  A    between atoms: N_22  and  C_23
REMARK   10  A    between atoms: C_23  and  C_24
REMARK   11  A    between atoms: C_24  and  C_25
REMARK   12  A    between atoms: C_25  and  C_26
REMARK   13  A    between atoms: C_26  and  C_27
REMARK   14  A    between atoms: C_27  and  C_28
REMARK   15  A    between atoms: C_28  and  N_29
REMARK   16  A    between atoms: N_29  and  C_30
REMARK   17  A    between atoms: C_45  and  C_46
REMARK                            x       y       z     vdW  Elec       q    Type
REMARK                         _______ _______ _______ _____ _____    ______ ____
ROOT
ATOM      1  C   UNL A   1      42.092 -15.694 -36.309  0.00  0.00    +0.213 C 
ATOM      2  O   UNL A   1      42.378 -14.611 -35.808  0.00  0.00    -0.276 OA
ATOM      3  N   UNL A   1      41.277 -16.623 -35.704  0.00  0.00    -0.315 N 
ATOM      4  H   UNL A   1      41.109 -17.479 -36.161  0.00  0.00    +0.000 HD
ENDROOT
BRANCH   1   5
ATOM      5  C   UNL A   1      42.603 -16.107 -37.673  0.00  0.00    +0.025 C 
BRANCH   5   6
ATOM      6  C   UNL A   1      43.767 -15.234 -38.136  0.00  0.00    -0.029 C 
BRANCH   6   7
ATOM      7  C   UNL A   1      44.438 -15.775 -39.399  0.00  0.00    +0.012 C 
BRANCH   7  10
ATOM      8  C   UNL A   1      46.981 -15.767 -39.366  0.00  0.00    +0.246 C 
ATOM      9  O   UNL A   1      47.994 -15.315 -39.890  0.00  0.00    -0.270 OA
ATOM     10  N   UNL A   1      45.756 -15.202 -39.625  0.00  0.00    -0.311 N 
ATOM     11  H   UNL A   1      45.772 -14.297 -40.012  0.00  0.00    +0.000 HD
BRANCH   8  17
ATOM     12  C   UNL A   1      47.146 -18.256 -38.968  0.00  0.00    +0.044 A 
ATOM     13  C   UNL A   1      47.273 -19.292 -38.027  0.00  0.00    -0.040 A 
ATOM     14  C   UNL A   1      47.246 -19.035 -36.652  0.00  0.00    -0.060 A 
ATOM     15  C   UNL A   1      47.106 -17.732 -36.186  0.00  0.00    -0.061 A 
ATOM     16  C   UNL A   1      47.020 -16.681 -37.095  0.00  0.00    -0.048 A 
ATOM     17  C   UNL A   1      47.078 -16.938 -38.474  0.00  0.00    +0.058 A 
BRANCH  12  18
ATOM     18  N   UNL A   1      47.196 -18.538 -40.358  0.00  0.00    -0.314 N 
ATOM     19  H   UNL A   1      47.950 -18.149 -40.857  0.00  0.00    +0.000 HD
BRANCH  18  25
ATOM     20  C   UNL A   1      46.058 -22.809 -42.703  0.00  0.00    -0.039 C 
ATOM     21  C   UNL A   1      45.757 -21.388 -42.308  0.00  0.00    -0.046 A 
ATOM     22  C   UNL A   1      44.587 -20.787 -42.800  0.00  0.00    -0.058 A 
ATOM     23  C   UNL A   1      44.275 -19.470 -42.480  0.00  0.00    -0.060 A 
ATOM     24  C   UNL A   1      45.125 -18.738 -41.656  0.00  0.00    -0.040 A 
ATOM     25  C   UNL A   1      46.278 -19.321 -41.109  0.00  0.00    +0.035 A 
ATOM     26  C   UNL A   1      46.605 -20.657 -41.443  0.00  0.00    -0.026 A 
ATOM     27  C   UNL A   1      47.876 -21.275 -40.911  0.00  0.00    -0.038 C 
ENDBRANCH  18  25
ENDBRANCH  12  18
ENDBRANCH   8  17
ENDBRANCH   7  10
ENDBRANCH   6   7
ENDBRANCH   5   6
ENDBRANCH   1   5
BRANCH   3  28
ATOM     28  C   UNL A   1      40.659 -16.383 -34.416  0.00  0.00    +0.012 C 
BRANCH  28  29
ATOM     29  C   UNL A   1      39.482 -17.321 -34.156  0.00  0.00    -0.037 C 
BRANCH  29  30
ATOM     30  C   UNL A   1      38.528 -17.349 -35.352  0.00  0.00    -0.052 C 
BRANCH  30  31
ATOM     31  C   UNL A   1      38.240 -18.763 -35.864  0.00  0.00    -0.052 C 
BRANCH  31  32
ATOM     32  C   UNL A   1      38.785 -19.856 -34.942  0.00  0.00    -0.037 C 
BRANCH  32  33
ATOM     33  C   UNL A   1      39.283 -21.063 -35.739  0.00  0.00    +0.009 C 
BRANCH  33  34
ATOM     34  N   UNL A   1      40.509 -21.577 -35.111  0.00  0.00    -0.343 N 
ATOM     35  H   UNL A   1      40.526 -22.305 -34.449  0.00  0.00    +0.000 HD
BRANCH  34  36
ATOM     36  C   UNL A   1      41.671 -20.892 -35.574  0.00  0.00    +0.041 A 
ATOM     37  C   UNL A   1      42.091 -21.010 -36.916  0.00  0.00    -0.005 A 
ATOM     38  C   UNL A   1      43.207 -20.266 -37.309  0.00  0.00    +0.047 A 
ATOM     39  N   UNL A   1      43.860 -19.412 -36.486  0.00  0.00    -0.251 NA
ATOM     40  C   UNL A   1      43.453 -19.292 -35.215  0.00  0.00    +0.074 A 
ATOM     41  C   UNL A   1      44.149 -18.424 -34.386  0.00  0.00    -0.017 A 
ATOM     42  C   UNL A   1      43.795 -18.260 -33.049  0.00  0.00    +0.043 A 
ATOM     43 CL   UNL A   1      44.686 -17.177 -32.054  0.00  0.00    -0.083 Cl
ATOM     44  C   UNL A   1      42.731 -18.971 -32.514  0.00  0.00    -0.043 A 
ATOM     45  C   UNL A   1      42.019 -19.844 -33.333  0.00  0.00    -0.049 A 
ATOM     46  C   UNL A   1      42.360 -20.010 -34.697  0.00  0.00    +0.022 A 
ATOM     47  C   UNL A   1      43.735 -20.310 -38.722  0.00  0.00    -0.010 C 
ATOM     48  C   UNL A   1      43.297 -21.550 -39.491  0.00  0.00    -0.047 C 
ATOM     49  C   UNL A   1      41.796 -21.740 -39.344  0.00  0.00    -0.049 C 
ATOM     50  C   UNL A   1      41.426 -21.966 -37.879  0.00  0.00    -0.024 C 
ENDBRANCH  34  36
ENDBRANCH  33  34
ENDBRANCH  32  33
ENDBRANCH  31  32
ENDBRANCH  30  31
ENDBRANCH  29  30
ENDBRANCH  28  29
ENDBRANCH   3  28
TORSDOF 15
ENDMDL
MODEL 11
REMARK VINA RESULT:    -7.868     17.877     21.208
REMARK INTER + INTRA:         -17.487
REMARK INTER:                 -13.169
REMARK INTRA:                  -4.319
REMARK UNBOUND:                -2.721
REMARK  Name = cpd14.pdb
REMARK  17 active torsions:
REMARK  status: ('A' for Active; 'I' for Inactive)
REMARK    1  A    between atoms: C_1  and  C_2
REMARK    2  A    between atoms: C_6  and  N_7
REMARK    3  A    between atoms: N_7  and  C_8
REMARK    4  A    between atoms: C_13  and  C_14
REMARK    5  A    between atoms: N_16  and  C_17
REMARK    6  A    between atoms: C_17  and  C_18
REMARK    7  A    between atoms: C_18  and  C_19
REMARK    8  A    between atoms: C_19  and  C_20
REMARK    9  A    between atoms: N_22  and  C_23
REMARK   10  A    between atoms: C_23  and  C_24
REMARK   11  A    between atoms: C_24  and  C_25
REMARK   12  A    between atoms: C_25  and  C_26
REMARK   13  A    between atoms: C_26  and  C_27
REMARK   14  A    between atoms: C_27  and  C_28
REMARK   15  A    between atoms: C_28  and  N_29
REMARK   16  A    between atoms: N_29  and  C_30
REMARK   17  A    between atoms: C_45  and  C_46
REMARK                            x       y       z     vdW  Elec       q    Type
REMARK                         _______ _______ _______ _____ _____    ______ ____
ROOT
ATOM      1  C   UNL A   1      45.512 -17.939 -35.618  0.00  0.00    +0.213 C 
ATOM      2  O   UNL A   1      46.617 -18.435 -35.420  0.00  0.00    -0.276 OA
ATOM      3  N   UNL A   1      44.394 -18.247 -34.876  0.00  0.00    -0.315 N 
ATOM      4  H   UNL A   1      43.536 -17.823 -35.107  0.00  0.00    +0.000 HD
ENDROOT
BRANCH   1   5
ATOM      5  C   UNL A   1      45.275 -16.911 -36.703  0.00  0.00    +0.025 C 
BRANCH   5   6
ATOM      6  C   UNL A   1      43.790 -16.734 -37.009  0.00  0.00    -0.029 C 
BRANCH   6   7
ATOM      7  C   UNL A   1      43.474 -15.365 -37.611  0.00  0.00    +0.012 C 
BRANCH   7  10
ATOM      8  C   UNL A   1      43.298 -15.776 -40.114  0.00  0.00    +0.246 C 
ATOM      9  O   UNL A   1      42.558 -16.123 -41.029  0.00  0.00    -0.270 OA
ATOM     10  N   UNL A   1      42.777 -15.456 -38.885  0.00  0.00    -0.311 N 
ATOM     11  H   UNL A   1      41.811 -15.265 -38.862  0.00  0.00    +0.000 HD
BRANCH   8  17
ATOM     12  C   UNL A   1      45.528 -16.891 -40.521  0.00  0.00    +0.044 A 
ATOM     13  C   UNL A   1      46.903 -16.722 -40.756  0.00  0.00    -0.040 A 
ATOM     14  C   UNL A   1      47.500 -15.457 -40.716  0.00  0.00    -0.060 A 
ATOM     15  C   UNL A   1      46.730 -14.328 -40.456  0.00  0.00    -0.061 A 
ATOM     16  C   UNL A   1      45.358 -14.460 -40.261  0.00  0.00    -0.048 A 
ATOM     17  C   UNL A   1      44.757 -15.727 -40.332  0.00  0.00    +0.058 A 
BRANCH  12  18
ATOM     18  N   UNL A   1      44.941 -18.182 -40.586  0.00  0.00    -0.314 N 
ATOM     19  H   UNL A   1      43.994 -18.220 -40.850  0.00  0.00    +0.000 HD
BRANCH  18  25
ATOM     20  C   UNL A   1      46.260 -22.779 -42.055  0.00  0.00    -0.039 C 
ATOM     21  C   UNL A   1      46.155 -21.694 -41.017  0.00  0.00    -0.046 A 
ATOM     22  C   UNL A   1      46.587 -21.970 -39.710  0.00  0.00    -0.058 A 
ATOM     23  C   UNL A   1      46.491 -21.007 -38.711  0.00  0.00    -0.060 A 
ATOM     24  C   UNL A   1      45.970 -19.751 -39.007  0.00  0.00    -0.040 A 
ATOM     25  C   UNL A   1      45.572 -19.426 -40.313  0.00  0.00    +0.035 A 
ATOM     26  C   UNL A   1      45.656 -20.407 -41.329  0.00  0.00    -0.026 A 
ATOM     27  C   UNL A   1      45.172 -20.089 -42.723  0.00  0.00    -0.038 C 
ENDBRANCH  18  25
ENDBRANCH  12  18
ENDBRANCH   8  17
ENDBRANCH   7  10
ENDBRANCH   6   7
ENDBRANCH   5   6
ENDBRANCH   1   5
BRANCH   3  28
ATOM     28  C   UNL A   1      44.439 -19.177 -33.766  0.00  0.00    +0.012 C 
BRANCH  28  29
ATOM     29  C   UNL A   1      43.307 -18.940 -32.767  0.00  0.00    -0.037 C 
BRANCH  29  30
ATOM     30  C   UNL A   1      42.022 -19.638 -33.218  0.00  0.00    -0.052 C 
BRANCH  30  31
ATOM     31  C   UNL A   1      40.751 -18.885 -32.818  0.00  0.00    -0.052 C 
BRANCH  31  32
ATOM     32  C   UNL A   1      40.378 -17.775 -33.803  0.00  0.00    -0.037 C 
BRANCH  32  33
ATOM     33  C   UNL A   1      40.602 -18.216 -35.252  0.00  0.00    +0.009 C 
BRANCH  33  34
ATOM     34  N   UNL A   1      39.395 -18.902 -35.733  0.00  0.00    -0.343 N 
ATOM     35  H   UNL A   1      38.500 -18.492 -35.759  0.00  0.00    +0.000 HD
BRANCH  34  36
ATOM     36  C   UNL A   1      39.675 -20.235 -36.157  0.00  0.00    +0.041 A 
ATOM     37  C   UNL A   1      40.536 -20.479 -37.248  0.00  0.00    -0.005 A 
ATOM     38  C   UNL A   1      40.807 -21.812 -37.570  0.00  0.00    +0.047 A 
ATOM     39  N   UNL A   1      40.325 -22.861 -36.861  0.00  0.00    -0.251 NA
ATOM     40  C   UNL A   1      39.515 -22.628 -35.820  0.00  0.00    +0.074 A 
ATOM     41  C   UNL A   1      39.021 -23.719 -35.120  0.00  0.00    -0.017 A 
ATOM     42  C   UNL A   1      38.161 -23.556 -34.037  0.00  0.00    +0.043 A 
ATOM     43 CL   UNL A   1      37.566 -24.935 -33.199  0.00  0.00    -0.083 Cl
ATOM     44  C   UNL A   1      37.775 -22.285 -33.634  0.00  0.00    -0.043 A 
ATOM     45  C   UNL A   1      38.266 -21.178 -34.323  0.00  0.00    -0.049 A 
ATOM     46  C   UNL A   1      39.151 -21.329 -35.417  0.00  0.00    +0.022 A 
ATOM     47  C   UNL A   1      41.722 -22.186 -38.709  0.00  0.00    -0.010 C 
ATOM     48  C   UNL A   1      41.896 -21.072 -39.733  0.00  0.00    -0.047 C 
ATOM     49  C   UNL A   1      42.229 -19.770 -39.021  0.00  0.00    -0.049 C 
ATOM     50  C   UNL A   1      41.085 -19.357 -38.098  0.00  0.00    -0.024 C 
ENDBRANCH  34  36
ENDBRANCH  33  34
ENDBRANCH  32  33
ENDBRANCH  31  32
ENDBRANCH  30  31
ENDBRANCH  29  30
ENDBRANCH  28  29
ENDBRANCH   3  28
TORSDOF 15
ENDMDL
MODEL 12
REMARK VINA RESULT:    -7.855     17.864     22.092
REMARK INTER + INTRA:         -17.465
REMARK INTER:                 -13.328
REMARK INTRA:                  -4.137
REMARK UNBOUND:                -2.721
REMARK  Name = cpd14.pdb
REMARK  17 active torsions:
REMARK  status: ('A' for Active; 'I' for Inactive)
REMARK    1  A    between atoms: C_1  and  C_2
REMARK    2  A    between atoms: C_6  and  N_7
REMARK    3  A    between atoms: N_7  and  C_8
REMARK    4  A    between atoms: C_13  and  C_14
REMARK    5  A    between atoms: N_16  and  C_17
REMARK    6  A    between atoms: C_17  and  C_18
REMARK    7  A    between atoms: C_18  and  C_19
REMARK    8  A    between atoms: C_19  and  C_20
REMARK    9  A    between atoms: N_22  and  C_23
REMARK   10  A    between atoms: C_23  and  C_24
REMARK   11  A    between atoms: C_24  and  C_25
REMARK   12  A    between atoms: C_25  and  C_26
REMARK   13  A    between atoms: C_26  and  C_27
REMARK   14  A    between atoms: C_27  and  C_28
REMARK   15  A    between atoms: C_28  and  N_29
REMARK   16  A    between atoms: N_29  and  C_30
REMARK   17  A    between atoms: C_45  and  C_46
REMARK                            x       y       z     vdW  Elec       q    Type
REMARK                         _______ _______ _______ _____ _____    ______ ____
ROOT
ATOM      1  C   UNL A   1      40.100 -20.724 -38.530  0.00  0.00    +0.213 C 
ATOM      2  O   UNL A   1      39.823 -21.705 -37.847  0.00  0.00    -0.276 OA
ATOM      3  N   UNL A   1      41.251 -20.615 -39.277  0.00  0.00    -0.315 N 
ATOM      4  H   UNL A   1      41.414 -19.788 -39.784  0.00  0.00    +0.000 HD
ENDROOT
BRANCH   1   5
ATOM      5  C   UNL A   1      39.176 -19.529 -38.632  0.00  0.00    +0.025 C 
BRANCH   5   6
ATOM      6  C   UNL A   1      39.801 -18.271 -38.033  0.00  0.00    -0.029 C 
BRANCH   6   7
ATOM      7  C   UNL A   1      40.172 -18.444 -36.560  0.00  0.00    +0.012 C 
BRANCH   7  10
ATOM      8  C   UNL A   1      40.382 -16.499 -34.937  0.00  0.00    +0.246 C 
ATOM      9  O   UNL A   1      39.868 -15.459 -34.539  0.00  0.00    -0.270 OA
ATOM     10  N   UNL A   1      39.666 -17.369 -35.721  0.00  0.00    -0.311 N 
ATOM     11  H   UNL A   1      38.688 -17.251 -35.715  0.00  0.00    +0.000 HD
BRANCH   8  17
ATOM     12  C   UNL A   1      42.128 -17.580 -33.466  0.00  0.00    +0.044 A 
ATOM     13  C   UNL A   1      43.493 -17.836 -33.252  0.00  0.00    -0.040 A 
ATOM     14  C   UNL A   1      44.478 -17.271 -34.070  0.00  0.00    -0.060 A 
ATOM     15  C   UNL A   1      44.117 -16.446 -35.132  0.00  0.00    -0.061 A 
ATOM     16  C   UNL A   1      42.771 -16.209 -35.393  0.00  0.00    -0.048 A 
ATOM     17  C   UNL A   1      41.784 -16.802 -34.590  0.00  0.00    +0.058 A 
BRANCH  12  18
ATOM     18  N   UNL A   1      41.146 -18.181 -32.635  0.00  0.00    -0.314 N 
ATOM     19  H   UNL A   1      40.788 -17.624 -31.908  0.00  0.00    +0.000 HD
BRANCH  18  25
ATOM     20  C   UNL A   1      37.236 -21.301 -32.604  0.00  0.00    -0.039 C 
ATOM     21  C   UNL A   1      38.714 -21.023 -32.658  0.00  0.00    -0.046 A 
ATOM     22  C   UNL A   1      39.601 -22.110 -32.690  0.00  0.00    -0.058 A 
ATOM     23  C   UNL A   1      40.977 -21.905 -32.718  0.00  0.00    -0.060 A 
ATOM     24  C   UNL A   1      41.484 -20.609 -32.724  0.00  0.00    -0.040 A 
ATOM     25  C   UNL A   1      40.625 -19.499 -32.739  0.00  0.00    +0.035 A 
ATOM     26  C   UNL A   1      39.225 -19.704 -32.697  0.00  0.00    -0.026 A 
ATOM     27  C   UNL A   1      38.293 -18.517 -32.650  0.00  0.00    -0.038 C 
ENDBRANCH  18  25
ENDBRANCH  12  18
ENDBRANCH   8  17
ENDBRANCH   7  10
ENDBRANCH   6   7
ENDBRANCH   5   6
ENDBRANCH   1   5
BRANCH   3  28
ATOM     28  C   UNL A   1      42.232 -21.680 -39.339  0.00  0.00    +0.012 C 
BRANCH  28  29
ATOM     29  C   UNL A   1      43.586 -21.252 -38.775  0.00  0.00    -0.037 C 
BRANCH  29  30
ATOM     30  C   UNL A   1      43.432 -20.064 -37.823  0.00  0.00    -0.052 C 
BRANCH  30  31
ATOM     31  C   UNL A   1      44.443 -20.075 -36.673  0.00  0.00    -0.052 C 
BRANCH  31  32
ATOM     32  C   UNL A   1      45.714 -19.283 -36.988  0.00  0.00    -0.037 C 
BRANCH  32  33
ATOM     33  C   UNL A   1      46.768 -20.163 -37.664  0.00  0.00    +0.009 C 
BRANCH  33  34
ATOM     34  N   UNL A   1      47.347 -19.428 -38.797  0.00  0.00    -0.343 N 
ATOM     35  H   UNL A   1      48.189 -18.921 -38.753  0.00  0.00    +0.000 HD
BRANCH  34  36
ATOM     36  C   UNL A   1      46.540 -19.536 -39.969  0.00  0.00    +0.041 A 
ATOM     37  C   UNL A   1      46.489 -20.742 -40.700  0.00  0.00    -0.005 A 
ATOM     38  C   UNL A   1      45.634 -20.790 -41.804  0.00  0.00    +0.047 A 
ATOM     39  N   UNL A   1      44.829 -19.763 -42.167  0.00  0.00    -0.251 NA
ATOM     40  C   UNL A   1      44.871 -18.622 -41.466  0.00  0.00    +0.074 A 
ATOM     41  C   UNL A   1      44.050 -17.578 -41.868  0.00  0.00    -0.017 A 
ATOM     42  C   UNL A   1      44.052 -16.357 -41.199  0.00  0.00    +0.043 A 
ATOM     43 CL   UNL A   1      43.022 -15.087 -41.731  0.00  0.00    -0.083 Cl
ATOM     44  C   UNL A   1      44.885 -16.157 -40.108  0.00  0.00    -0.043 A 
ATOM     45  C   UNL A   1      45.713 -17.196 -39.689  0.00  0.00    -0.049 A 
ATOM     46  C   UNL A   1      45.712 -18.447 -40.351  0.00  0.00    +0.022 A 
ATOM     47  C   UNL A   1      45.493 -22.032 -42.649  0.00  0.00    -0.010 C 
ATOM     48  C   UNL A   1      46.672 -22.987 -42.516  0.00  0.00    -0.047 C 
ATOM     49  C   UNL A   1      46.977 -23.223 -41.046  0.00  0.00    -0.049 C 
ATOM     50  C   UNL A   1      47.380 -21.916 -40.366  0.00  0.00    -0.024 C 
ENDBRANCH  34  36
ENDBRANCH  33  34
ENDBRANCH  32  33
ENDBRANCH  31  32
ENDBRANCH  30  31
ENDBRANCH  29  30
ENDBRANCH  28  29
ENDBRANCH   3  28
TORSDOF 15
ENDMDL
MODEL 13
REMARK VINA RESULT:    -7.822     18.087     22.293
REMARK INTER + INTRA:         -17.403
REMARK INTER:                 -13.139
REMARK INTRA:                  -4.264
REMARK UNBOUND:                -2.721
REMARK  Name = cpd14.pdb
REMARK  17 active torsions:
REMARK  status: ('A' for Active; 'I' for Inactive)
REMARK    1  A    between atoms: C_1  and  C_2
REMARK    2  A    between atoms: C_6  and  N_7
REMARK    3  A    between atoms: N_7  and  C_8
REMARK    4  A    between atoms: C_13  and  C_14
REMARK    5  A    between atoms: N_16  and  C_17
REMARK    6  A    between atoms: C_17  and  C_18
REMARK    7  A    between atoms: C_18  and  C_19
REMARK    8  A    between atoms: C_19  and  C_20
REMARK    9  A    between atoms: N_22  and  C_23
REMARK   10  A    between atoms: C_23  and  C_24
REMARK   11  A    between atoms: C_24  and  C_25
REMARK   12  A    between atoms: C_25  and  C_26
REMARK   13  A    between atoms: C_26  and  C_27
REMARK   14  A    between atoms: C_27  and  C_28
REMARK   15  A    between atoms: C_28  and  N_29
REMARK   16  A    between atoms: N_29  and  C_30
REMARK   17  A    between atoms: C_45  and  C_46
REMARK                            x       y       z     vdW  Elec       q    Type
REMARK                         _______ _______ _______ _____ _____    ______ ____
ROOT
ATOM      1  C   UNL A   1      40.285 -17.285 -38.789  0.00  0.00    +0.213 C 
ATOM      2  O   UNL A   1      39.336 -16.859 -39.440  0.00  0.00    -0.276 OA
ATOM      3  N   UNL A   1      41.011 -16.517 -37.908  0.00  0.00    -0.315 N 
ATOM      4  H   UNL A   1      41.772 -16.924 -37.435  0.00  0.00    +0.000 HD
ENDROOT
BRANCH   1   5
ATOM      5  C   UNL A   1      40.740 -18.726 -38.881  0.00  0.00    +0.025 C 
BRANCH   5   6
ATOM      6  C   UNL A   1      39.572 -19.703 -38.766  0.00  0.00    -0.029 C 
BRANCH   6   7
ATOM      7  C   UNL A   1      39.323 -20.152 -37.326  0.00  0.00    +0.012 C 
BRANCH   7  10
ATOM      8  C   UNL A   1      40.592 -22.170 -36.441  0.00  0.00    +0.246 C 
ATOM      9  O   UNL A   1      40.502 -23.341 -36.088  0.00  0.00    -0.270 OA
ATOM     10  N   UNL A   1      39.565 -21.573 -37.130  0.00  0.00    -0.311 N 
ATOM     11  H   UNL A   1      38.910 -22.183 -37.542  0.00  0.00    +0.000 HD
BRANCH   8  17
ATOM     12  C   UNL A   1      42.006 -20.850 -34.816  0.00  0.00    +0.044 A 
ATOM     13  C   UNL A   1      43.210 -20.159 -34.594  0.00  0.00    -0.040 A 
ATOM     14  C   UNL A   1      44.127 -19.943 -35.628  0.00  0.00    -0.060 A 
ATOM     15  C   UNL A   1      43.869 -20.427 -36.906  0.00  0.00    -0.061 A 
ATOM     16  C   UNL A   1      42.704 -21.151 -37.146  0.00  0.00    -0.048 A 
ATOM     17  C   UNL A   1      41.800 -21.393 -36.100  0.00  0.00    +0.058 A 
BRANCH  12  18
ATOM     18  N   UNL A   1      41.099 -21.075 -33.747  0.00  0.00    -0.314 N 
ATOM     19  H   UNL A   1      41.153 -21.952 -33.305  0.00  0.00    +0.000 HD
BRANCH  18  25
ATOM     20  C   UNL A   1      36.319 -19.992 -32.746  0.00  0.00    -0.039 C 
ATOM     21  C   UNL A   1      37.777 -19.627 -32.820  0.00  0.00    -0.046 A 
ATOM     22  C   UNL A   1      38.158 -18.315 -32.497  0.00  0.00    -0.058 A 
ATOM     23  C   UNL A   1      39.491 -17.923 -32.571  0.00  0.00    -0.060 A 
ATOM     24  C   UNL A   1      40.462 -18.841 -32.960  0.00  0.00    -0.040 A 
ATOM     25  C   UNL A   1      40.123 -20.173 -33.246  0.00  0.00    +0.035 A 
ATOM     26  C   UNL A   1      38.766 -20.571 -33.185  0.00  0.00    -0.026 A 
ATOM     27  C   UNL A   1      38.380 -21.984 -33.550  0.00  0.00    -0.038 C 
ENDBRANCH  18  25
ENDBRANCH  12  18
ENDBRANCH   8  17
ENDBRANCH   7  10
ENDBRANCH   6   7
ENDBRANCH   5   6
ENDBRANCH   1   5
BRANCH   3  28
ATOM     28  C   UNL A   1      40.692 -15.127 -37.654  0.00  0.00    +0.012 C 
BRANCH  28  29
ATOM     29  C   UNL A   1      41.412 -14.183 -38.616  0.00  0.00    -0.037 C 
BRANCH  29  30
ATOM     30  C   UNL A   1      42.922 -14.197 -38.370  0.00  0.00    -0.052 C 
BRANCH  30  31
ATOM     31  C   UNL A   1      43.737 -14.530 -39.623  0.00  0.00    -0.052 C 
BRANCH  31  32
ATOM     32  C   UNL A   1      42.935 -15.309 -40.668  0.00  0.00    -0.037 C 
BRANCH  32  33
ATOM     33  C   UNL A   1      43.353 -16.781 -40.710  0.00  0.00    +0.009 C 
BRANCH  33  34
ATOM     34  N   UNL A   1      44.809 -16.857 -40.897  0.00  0.00    -0.343 N 
ATOM     35  H   UNL A   1      45.350 -16.149 -41.315  0.00  0.00    +0.000 HD
BRANCH  34  36
ATOM     36  C   UNL A   1      45.345 -18.082 -40.400  0.00  0.00    +0.041 A 
ATOM     37  C   UNL A   1      45.265 -19.267 -41.162  0.00  0.00    -0.005 A 
ATOM     38  C   UNL A   1      45.861 -20.415 -40.633  0.00  0.00    +0.047 A 
ATOM     39  N   UNL A   1      46.545 -20.427 -39.464  0.00  0.00    -0.251 NA
ATOM     40  C   UNL A   1      46.629 -19.299 -38.746  0.00  0.00    +0.074 A 
ATOM     41  C   UNL A   1      47.319 -19.341 -37.543  0.00  0.00    -0.017 A 
ATOM     42  C   UNL A   1      47.435 -18.213 -36.735  0.00  0.00    +0.043 A 
ATOM     43 CL   UNL A   1      48.295 -18.307 -35.249  0.00  0.00    -0.083 Cl
ATOM     44  C   UNL A   1      46.853 -17.013 -37.119  0.00  0.00    -0.043 A 
ATOM     45  C   UNL A   1      46.159 -16.953 -38.326  0.00  0.00    -0.049 A 
ATOM     46  C   UNL A   1      46.046 -18.088 -39.163  0.00  0.00    +0.022 A 
ATOM     47  C   UNL A   1      45.844 -21.732 -41.368  0.00  0.00    -0.010 C 
ATOM     48  C   UNL A   1      44.744 -21.821 -42.418  0.00  0.00    -0.047 C 
ATOM     49  C   UNL A   1      44.770 -20.579 -43.295  0.00  0.00    -0.049 C 
ATOM     50  C   UNL A   1      44.494 -19.330 -42.460  0.00  0.00    -0.024 C 
ENDBRANCH  34  36
ENDBRANCH  33  34
ENDBRANCH  32  33
ENDBRANCH  31  32
ENDBRANCH  30  31
ENDBRANCH  29  30
ENDBRANCH  28  29
ENDBRANCH   3  28
TORSDOF 15
ENDMDL
MODEL 14
REMARK VINA RESULT:    -7.797     18.102     20.786
REMARK INTER + INTRA:         -17.356
REMARK INTER:                 -12.308
REMARK INTRA:                  -5.048
REMARK UNBOUND:                -2.721
REMARK  Name = cpd14.pdb
REMARK  17 active torsions:
REMARK  status: ('A' for Active; 'I' for Inactive)
REMARK    1  A    between atoms: C_1  and  C_2
REMARK    2  A    between atoms: C_6  and  N_7
REMARK    3  A    between atoms: N_7  and  C_8
REMARK    4  A    between atoms: C_13  and  C_14
REMARK    5  A    between atoms: N_16  and  C_17
REMARK    6  A    between atoms: C_17  and  C_18
REMARK    7  A    between atoms: C_18  and  C_19
REMARK    8  A    between atoms: C_19  and  C_20
REMARK    9  A    between atoms: N_22  and  C_23
REMARK   10  A    between atoms: C_23  and  C_24
REMARK   11  A    between atoms: C_24  and  C_25
REMARK   12  A    between atoms: C_25  and  C_26
REMARK   13  A    between atoms: C_26  and  C_27
REMARK   14  A    between atoms: C_27  and  C_28
REMARK   15  A    between atoms: C_28  and  N_29
REMARK   16  A    between atoms: N_29  and  C_30
REMARK   17  A    between atoms: C_45  and  C_46
REMARK                            x       y       z     vdW  Elec       q    Type
REMARK                         _______ _______ _______ _____ _____    ______ ____
ROOT
ATOM      1  C   UNL A   1      40.634 -16.449 -37.350  0.00  0.00    +0.213 C 
ATOM      2  O   UNL A   1      40.363 -15.972 -38.448  0.00  0.00    -0.276 OA
ATOM      3  N   UNL A   1      39.919 -17.469 -36.764  0.00  0.00    -0.315 N 
ATOM      4  H   UNL A   1      40.186 -17.786 -35.871  0.00  0.00    +0.000 HD
ENDROOT
BRANCH   1   5
ATOM      5  C   UNL A   1      41.813 -15.965 -36.533  0.00  0.00    +0.025 C 
BRANCH   5   6
ATOM      6  C   UNL A   1      43.093 -15.892 -37.362  0.00  0.00    -0.029 C 
BRANCH   6   7
ATOM      7  C   UNL A   1      43.585 -17.271 -37.802  0.00  0.00    +0.012 C 
BRANCH   7  10
ATOM      8  C   UNL A   1      45.845 -17.821 -38.829  0.00  0.00    +0.246 C 
ATOM      9  O   UNL A   1      46.477 -17.932 -39.874  0.00  0.00    -0.270 OA
ATOM     10  N   UNL A   1      44.620 -17.201 -38.822  0.00  0.00    -0.311 N 
ATOM     11  H   UNL A   1      44.416 -16.639 -39.605  0.00  0.00    +0.000 HD
BRANCH   8  17
ATOM     12  C   UNL A   1      46.222 -19.729 -37.218  0.00  0.00    +0.044 A 
ATOM     13  C   UNL A   1      46.822 -20.160 -36.022  0.00  0.00    -0.040 A 
ATOM     14  C   UNL A   1      47.489 -19.266 -35.178  0.00  0.00    -0.060 A 
ATOM     15  C   UNL A   1      47.586 -17.921 -35.519  0.00  0.00    -0.061 A 
ATOM     16  C   UNL A   1      47.038 -17.473 -36.718  0.00  0.00    -0.048 A 
ATOM     17  C   UNL A   1      46.396 -18.378 -37.578  0.00  0.00    +0.058 A 
BRANCH  12  18
ATOM     18  N   UNL A   1      45.568 -20.659 -38.069  0.00  0.00    -0.314 N 
ATOM     19  H   UNL A   1      44.671 -20.951 -37.790  0.00  0.00    +0.000 HD
BRANCH  18  25
ATOM     20  C   UNL A   1      44.830 -22.050 -42.817  0.00  0.00    -0.039 C 
ATOM     21  C   UNL A   1      45.678 -21.950 -41.578  0.00  0.00    -0.046 A 
ATOM     22  C   UNL A   1      46.955 -22.532 -41.589  0.00  0.00    -0.058 A 
ATOM     23  C   UNL A   1      47.769 -22.485 -40.461  0.00  0.00    -0.060 A 
ATOM     24  C   UNL A   1      47.319 -21.846 -39.310  0.00  0.00    -0.040 A 
ATOM     25  C   UNL A   1      46.067 -21.214 -39.278  0.00  0.00    +0.035 A 
ATOM     26  C   UNL A   1      45.231 -21.272 -40.419  0.00  0.00    -0.026 A 
ATOM     27  C   UNL A   1      43.857 -20.649 -40.377  0.00  0.00    -0.038 C 
ENDBRANCH  18  25
ENDBRANCH  12  18
ENDBRANCH   8  17
ENDBRANCH   7  10
ENDBRANCH   6   7
ENDBRANCH   5   6
ENDBRANCH   1   5
BRANCH   3  28
ATOM     28  C   UNL A   1      38.786 -18.090 -37.418  0.00  0.00    +0.012 C 
BRANCH  28  29
ATOM     29  C   UNL A   1      38.539 -19.513 -36.919  0.00  0.00    -0.037 C 
BRANCH  29  30
ATOM     30  C   UNL A   1      39.183 -20.540 -37.852  0.00  0.00    -0.052 C 
BRANCH  30  31
ATOM     31  C   UNL A   1      40.697 -20.365 -37.993  0.00  0.00    -0.052 C 
BRANCH  31  32
ATOM     32  C   UNL A   1      41.496 -21.390 -37.184  0.00  0.00    -0.037 C 
BRANCH  32  33
ATOM     33  C   UNL A   1      42.615 -20.720 -36.383  0.00  0.00    +0.009 C 
BRANCH  33  34
ATOM     34  N   UNL A   1      42.485 -21.103 -34.971  0.00  0.00    -0.343 N 
ATOM     35  H   UNL A   1      42.822 -21.948 -34.595  0.00  0.00    +0.000 HD
BRANCH  34  36
ATOM     36  C   UNL A   1      41.812 -20.103 -34.208  0.00  0.00    +0.041 A 
ATOM     37  C   UNL A   1      42.451 -18.885 -33.892  0.00  0.00    -0.005 A 
ATOM     38  C   UNL A   1      41.708 -17.932 -33.190  0.00  0.00    +0.047 A 
ATOM     39  N   UNL A   1      40.409 -18.103 -32.850  0.00  0.00    -0.251 NA
ATOM     40  C   UNL A   1      39.800 -19.256 -33.159  0.00  0.00    +0.074 A 
ATOM     41  C   UNL A   1      38.474 -19.415 -32.785  0.00  0.00    -0.017 A 
ATOM     42  C   UNL A   1      37.781 -20.592 -33.058  0.00  0.00    +0.043 A 
ATOM     43 CL   UNL A   1      36.139 -20.751 -32.573  0.00  0.00    -0.083 Cl
ATOM     44  C   UNL A   1      38.410 -21.640 -33.714  0.00  0.00    -0.043 A 
ATOM     45  C   UNL A   1      39.741 -21.495 -34.100  0.00  0.00    -0.049 A 
ATOM     46  C   UNL A   1      40.453 -20.300 -33.841  0.00  0.00    +0.022 A 
ATOM     47  C   UNL A   1      42.289 -16.593 -32.810  0.00  0.00    -0.010 C 
ATOM     48  C   UNL A   1      43.812 -16.578 -32.799  0.00  0.00    -0.047 C 
ATOM     49  C   UNL A   1      44.340 -17.181 -34.091  0.00  0.00    -0.049 C 
ATOM     50  C   UNL A   1      43.906 -18.640 -34.217  0.00  0.00    -0.024 C 
ENDBRANCH  34  36
ENDBRANCH  33  34
ENDBRANCH  32  33
ENDBRANCH  31  32
ENDBRANCH  30  31
ENDBRANCH  29  30
ENDBRANCH  28  29
ENDBRANCH   3  28
TORSDOF 15
ENDMDL
MODEL 15
REMARK VINA RESULT:    -7.784      5.680      9.281
REMARK INTER + INTRA:         -17.331
REMARK INTER:                 -11.492
REMARK INTRA:                  -5.839
REMARK UNBOUND:                -2.721
REMARK  Name = cpd14.pdb
REMARK  17 active torsions:
REMARK  status: ('A' for Active; 'I' for Inactive)
REMARK    1  A    between atoms: C_1  and  C_2
REMARK    2  A    between atoms: C_6  and  N_7
REMARK    3  A    between atoms: N_7  and  C_8
REMARK    4  A    between atoms: C_13  and  C_14
REMARK    5  A    between atoms: N_16  and  C_17
REMARK    6  A    between atoms: C_17  and  C_18
REMARK    7  A    between atoms: C_18  and  C_19
REMARK    8  A    between atoms: C_19  and  C_20
REMARK    9  A    between atoms: N_22  and  C_23
REMARK   10  A    between atoms: C_23  and  C_24
REMARK   11  A    between atoms: C_24  and  C_25
REMARK   12  A    between atoms: C_25  and  C_26
REMARK   13  A    between atoms: C_26  and  C_27
REMARK   14  A    between atoms: C_27  and  C_28
REMARK   15  A    between atoms: C_28  and  N_29
REMARK   16  A    between atoms: N_29  and  C_30
REMARK   17  A    between atoms: C_45  and  C_46
REMARK                            x       y       z     vdW  Elec       q    Type
REMARK                         _______ _______ _______ _____ _____    ______ ____
ROOT
ATOM      1  C   UNL A   1      33.397 -40.700 -32.061  0.00  0.00    +0.213 C 
ATOM      2  O   UNL A   1      33.134 -40.345 -33.206  0.00  0.00    -0.276 OA
ATOM      3  N   UNL A   1      32.500 -41.340 -31.235  0.00  0.00    -0.315 N 
ATOM      4  H   UNL A   1      32.778 -41.577 -30.321  0.00  0.00    +0.000 HD
ENDROOT
BRANCH   1   5
ATOM      5  C   UNL A   1      34.762 -40.480 -31.445  0.00  0.00    +0.025 C 
BRANCH   5   6
ATOM      6  C   UNL A   1      34.680 -40.253 -29.937  0.00  0.00    -0.029 C 
BRANCH   6   7
ATOM      7  C   UNL A   1      36.042 -40.364 -29.253  0.00  0.00    +0.012 C 
BRANCH   7  10
ATOM      8  C   UNL A   1      36.608 -38.302 -27.876  0.00  0.00    +0.246 C 
ATOM      9  O   UNL A   1      36.330 -37.653 -26.874  0.00  0.00    -0.270 OA
ATOM     10  N   UNL A   1      36.124 -39.578 -28.031  0.00  0.00    -0.311 N 
ATOM     11  H   UNL A   1      35.792 -40.015 -27.214  0.00  0.00    +0.000 HD
BRANCH   8  17
ATOM     12  C   UNL A   1      36.893 -36.965 -30.000  0.00  0.00    +0.044 A 
ATOM     13  C   UNL A   1      37.788 -36.403 -30.927  0.00  0.00    -0.040 A 
ATOM     14  C   UNL A   1      39.165 -36.636 -30.843  0.00  0.00    -0.060 A 
ATOM     15  C   UNL A   1      39.681 -37.424 -29.820  0.00  0.00    -0.061 A 
ATOM     16  C   UNL A   1      38.823 -37.959 -28.862  0.00  0.00    -0.048 A 
ATOM     17  C   UNL A   1      37.445 -37.698 -28.931  0.00  0.00    +0.058 A 
BRANCH  12  18
ATOM     18  N   UNL A   1      35.502 -36.698 -30.093  0.00  0.00    -0.314 N 
ATOM     19  H   UNL A   1      34.940 -37.037 -29.359  0.00  0.00    +0.000 HD
BRANCH  18  25
ATOM     20  C   UNL A   1      33.521 -32.460 -31.868  0.00  0.00    -0.039 C 
ATOM     21  C   UNL A   1      33.808 -33.934 -31.961  0.00  0.00    -0.046 A 
ATOM     22  C   UNL A   1      33.288 -34.652 -33.050  0.00  0.00    -0.058 A 
ATOM     23  C   UNL A   1      33.507 -36.021 -33.170  0.00  0.00    -0.060 A 
ATOM     24  C   UNL A   1      34.258 -36.689 -32.206  0.00  0.00    -0.040 A 
ATOM     25  C   UNL A   1      34.830 -35.995 -31.130  0.00  0.00    +0.035 A 
ATOM     26  C   UNL A   1      34.598 -34.605 -30.997  0.00  0.00    -0.026 A 
ATOM     27  C   UNL A   1      35.157 -33.859 -29.810  0.00  0.00    -0.038 C 
ENDBRANCH  18  25
ENDBRANCH  12  18
ENDBRANCH   8  17
ENDBRANCH   7  10
ENDBRANCH   6   7
ENDBRANCH   5   6
ENDBRANCH   1   5
BRANCH   3  28
ATOM     28  C   UNL A   1      31.159 -41.676 -31.669  0.00  0.00    +0.012 C 
BRANCH  28  29
ATOM     29  C   UNL A   1      30.134 -41.528 -30.546  0.00  0.00    -0.037 C 
BRANCH  29  30
ATOM     30  C   UNL A   1      29.177 -40.367 -30.826  0.00  0.00    -0.052 C 
BRANCH  30  31
ATOM     31  C   UNL A   1      29.445 -39.670 -32.163  0.00  0.00    -0.052 C 
BRANCH  31  32
ATOM     32  C   UNL A   1      28.842 -38.265 -32.236  0.00  0.00    -0.037 C 
BRANCH  32  33
ATOM     33  C   UNL A   1      29.254 -37.417 -31.031  0.00  0.00    +0.009 C 
BRANCH  33  34
ATOM     34  N   UNL A   1      30.528 -36.749 -31.331  0.00  0.00    -0.343 N 
ATOM     35  H   UNL A   1      31.063 -36.919 -32.140  0.00  0.00    +0.000 HD
BRANCH  34  36
ATOM     36  C   UNL A   1      30.897 -35.825 -30.309  0.00  0.00    +0.041 A 
ATOM     37  C   UNL A   1      31.594 -36.258 -29.161  0.00  0.00    -0.005 A 
ATOM     38  C   UNL A   1      31.970 -35.286 -28.231  0.00  0.00    +0.047 A 
ATOM     39  N   UNL A   1      31.742 -33.962 -28.404  0.00  0.00    -0.251 NA
ATOM     40  C   UNL A   1      31.089 -33.551 -29.498  0.00  0.00    +0.074 A 
ATOM     41  C   UNL A   1      30.852 -32.192 -29.645  0.00  0.00    -0.017 A 
ATOM     42  C   UNL A   1      30.165 -31.691 -30.748  0.00  0.00    +0.043 A 
ATOM     43 CL   UNL A   1      29.888 -30.000 -30.890  0.00  0.00    -0.083 Cl
ATOM     44  C   UNL A   1      29.697 -32.551 -31.731  0.00  0.00    -0.043 A 
ATOM     45  C   UNL A   1      29.930 -33.919 -31.601  0.00  0.00    -0.049 A 
ATOM     46  C   UNL A   1      30.638 -34.439 -30.492  0.00  0.00    +0.022 A 
ATOM     47  C   UNL A   1      32.728 -35.638 -26.975  0.00  0.00    -0.010 C 
ATOM     48  C   UNL A   1      32.596 -37.103 -26.582  0.00  0.00    -0.047 C 
ATOM     49  C   UNL A   1      32.878 -37.985 -27.788  0.00  0.00    -0.049 C 
ATOM     50  C   UNL A   1      31.856 -37.722 -28.893  0.00  0.00    -0.024 C 
ENDBRANCH  34  36
ENDBRANCH  33  34
ENDBRANCH  32  33
ENDBRANCH  31  32
ENDBRANCH  30  31
ENDBRANCH  29  30
ENDBRANCH  28  29
ENDBRANCH   3  28
TORSDOF 15
ENDMDL
MODEL 16
REMARK VINA RESULT:    -7.772     17.582     22.013
REMARK INTER + INTRA:         -17.308
REMARK INTER:                 -12.889
REMARK INTRA:                  -4.419
REMARK UNBOUND:                -2.721
REMARK  Name = cpd14.pdb
REMARK  17 active torsions:
REMARK  status: ('A' for Active; 'I' for Inactive)
REMARK    1  A    between atoms: C_1  and  C_2
REMARK    2  A    between atoms: C_6  and  N_7
REMARK    3  A    between atoms: N_7  and  C_8
REMARK    4  A    between atoms: C_13  and  C_14
REMARK    5  A    between atoms: N_16  and  C_17
REMARK    6  A    between atoms: C_17  and  C_18
REMARK    7  A    between atoms: C_18  and  C_19
REMARK    8  A    between atoms: C_19  and  C_20
REMARK    9  A    between atoms: N_22  and  C_23
REMARK   10  A    between atoms: C_23  and  C_24
REMARK   11  A    between atoms: C_24  and  C_25
REMARK   12  A    between atoms: C_25  and  C_26
REMARK   13  A    between atoms: C_26  and  C_27
REMARK   14  A    between atoms: C_27  and  C_28
REMARK   15  A    between atoms: C_28  and  N_29
REMARK   16  A    between atoms: N_29  and  C_30
REMARK   17  A    between atoms: C_45  and  C_46
REMARK                            x       y       z     vdW  Elec       q    Type
REMARK                         _______ _______ _______ _____ _____    ______ ____
ROOT
ATOM      1  C   UNL A   1      43.483 -19.125 -34.207  0.00  0.00    +0.213 C 
ATOM      2  O   UNL A   1      44.079 -18.801 -33.185  0.00  0.00    -0.276 OA
ATOM      3  N   UNL A   1      43.772 -18.615 -35.453  0.00  0.00    -0.315 N 
ATOM      4  H   UNL A   1      43.237 -18.909 -36.225  0.00  0.00    +0.000 HD
ENDROOT
BRANCH   1   5
ATOM      5  C   UNL A   1      42.367 -20.148 -34.197  0.00  0.00    +0.025 C 
BRANCH   5   6
ATOM      6  C   UNL A   1      41.661 -20.209 -32.845  0.00  0.00    -0.029 C 
BRANCH   6   7
ATOM      7  C   UNL A   1      41.001 -21.565 -32.589  0.00  0.00    +0.012 C 
BRANCH   7  10
ATOM      8  C   UNL A   1      38.535 -21.684 -33.199  0.00  0.00    +0.246 C 
ATOM      9  O   UNL A   1      37.400 -21.865 -32.772  0.00  0.00    -0.270 OA
ATOM     10  N   UNL A   1      39.574 -21.457 -32.329  0.00  0.00    -0.311 N 
ATOM     11  H   UNL A   1      39.321 -21.187 -31.416  0.00  0.00    +0.000 HD
BRANCH   8  17
ATOM     12  C   UNL A   1      38.580 -20.624 -35.491  0.00  0.00    +0.044 A 
ATOM     13  C   UNL A   1      38.889 -20.777 -36.853  0.00  0.00    -0.040 A 
ATOM     14  C   UNL A   1      39.305 -22.008 -37.373  0.00  0.00    -0.060 A 
ATOM     15  C   UNL A   1      39.435 -23.112 -36.537  0.00  0.00    -0.061 A 
ATOM     16  C   UNL A   1      39.176 -22.980 -35.175  0.00  0.00    -0.048 A 
ATOM     17  C   UNL A   1      38.789 -21.736 -34.652  0.00  0.00    +0.058 A 
BRANCH  12  18
ATOM     18  N   UNL A   1      38.179 -19.360 -34.983  0.00  0.00    -0.314 N 
ATOM     19  H   UNL A   1      37.211 -19.189 -34.948  0.00  0.00    +0.000 HD
BRANCH  18  25
ATOM     20  C   UNL A   1      39.313 -15.928 -31.524  0.00  0.00    -0.039 C 
ATOM     21  C   UNL A   1      39.532 -16.597 -32.854  0.00  0.00    -0.046 A 
ATOM     22  C   UNL A   1      40.524 -16.089 -33.707  0.00  0.00    -0.058 A 
ATOM     23  C   UNL A   1      40.751 -16.660 -34.955  0.00  0.00    -0.060 A 
ATOM     24  C   UNL A   1      39.993 -17.754 -35.364  0.00  0.00    -0.040 A 
ATOM     25  C   UNL A   1      39.024 -18.316 -34.519  0.00  0.00    +0.035 A 
ATOM     26  C   UNL A   1      38.782 -17.729 -33.254  0.00  0.00    -0.026 A 
ATOM     27  C   UNL A   1      37.699 -18.286 -32.361  0.00  0.00    -0.038 C 
ENDBRANCH  18  25
ENDBRANCH  12  18
ENDBRANCH   8  17
ENDBRANCH   7  10
ENDBRANCH   6   7
ENDBRANCH   5   6
ENDBRANCH   1   5
BRANCH   3  28
ATOM     28  C   UNL A   1      44.840 -17.659 -35.665  0.00  0.00    +0.012 C 
BRANCH  28  29
ATOM     29  C   UNL A   1      44.361 -16.415 -36.411  0.00  0.00    -0.037 C 
BRANCH  29  30
ATOM     30  C   UNL A   1      45.540 -15.516 -36.792  0.00  0.00    -0.052 C 
BRANCH  30  31
ATOM     31  C   UNL A   1      46.691 -16.277 -37.456  0.00  0.00    -0.052 C 
BRANCH  31  32
ATOM     32  C   UNL A   1      46.825 -15.973 -38.950  0.00  0.00    -0.037 C 
BRANCH  32  33
ATOM     33  C   UNL A   1      47.184 -17.231 -39.745  0.00  0.00    +0.009 C 
BRANCH  33  34
ATOM     34  N   UNL A   1      46.144 -17.467 -40.757  0.00  0.00    -0.343 N 
ATOM     35  H   UNL A   1      45.919 -16.833 -41.474  0.00  0.00    +0.000 HD
BRANCH  34  36
ATOM     36  C   UNL A   1      45.501 -18.727 -40.573  0.00  0.00    +0.041 A 
ATOM     37  C   UNL A   1      44.198 -18.801 -40.037  0.00  0.00    -0.005 A 
ATOM     38  C   UNL A   1      43.612 -20.066 -39.940  0.00  0.00    +0.047 A 
ATOM     39  N   UNL A   1      44.212 -21.199 -40.376  0.00  0.00    -0.251 NA
ATOM     40  C   UNL A   1      45.445 -21.127 -40.894  0.00  0.00    +0.074 A 
ATOM     41  C   UNL A   1      46.045 -22.304 -41.318  0.00  0.00    -0.017 A 
ATOM     42  C   UNL A   1      47.332 -22.309 -41.851  0.00  0.00    +0.043 A 
ATOM     43 CL   UNL A   1      48.042 -23.790 -42.361  0.00  0.00    -0.083 Cl
ATOM     44  C   UNL A   1      48.047 -21.126 -41.968  0.00  0.00    -0.043 A 
ATOM     45  C   UNL A   1      47.457 -19.935 -41.551  0.00  0.00    -0.049 A 
ATOM     46  C   UNL A   1      46.146 -19.913 -41.019  0.00  0.00    +0.022 A 
ATOM     47  C   UNL A   1      42.220 -20.258 -39.391  0.00  0.00    -0.010 C 
ATOM     48  C   UNL A   1      41.746 -19.096 -38.529  0.00  0.00    -0.047 C 
ATOM     49  C   UNL A   1      41.991 -17.784 -39.258  0.00  0.00    -0.049 C 
ATOM     50  C   UNL A   1      43.484 -17.580 -39.506  0.00  0.00    -0.024 C 
ENDBRANCH  34  36
ENDBRANCH  33  34
ENDBRANCH  32  33
ENDBRANCH  31  32
ENDBRANCH  30  31
ENDBRANCH  29  30
ENDBRANCH  28  29
ENDBRANCH   3  28
TORSDOF 15
ENDMDL
MODEL 17
REMARK VINA RESULT:    -7.635     18.302     21.966
REMARK INTER + INTRA:         -17.050
REMARK INTER:                 -11.465
REMARK INTRA:                  -5.585
REMARK UNBOUND:                -2.721
REMARK  Name = cpd14.pdb
REMARK  17 active torsions:
REMARK  status: ('A' for Active; 'I' for Inactive)
REMARK    1  A    between atoms: C_1  and  C_2
REMARK    2  A    between atoms: C_6  and  N_7
REMARK    3  A    between atoms: N_7  and  C_8
REMARK    4  A    between atoms: C_13  and  C_14
REMARK    5  A    between atoms: N_16  and  C_17
REMARK    6  A    between atoms: C_17  and  C_18
REMARK    7  A    between atoms: C_18  and  C_19
REMARK    8  A    between atoms: C_19  and  C_20
REMARK    9  A    between atoms: N_22  and  C_23
REMARK   10  A    between atoms: C_23  and  C_24
REMARK   11  A    between atoms: C_24  and  C_25
REMARK   12  A    between atoms: C_25  and  C_26
REMARK   13  A    between atoms: C_26  and  C_27
REMARK   14  A    between atoms: C_27  and  C_28
REMARK   15  A    between atoms: C_28  and  N_29
REMARK   16  A    between atoms: N_29  and  C_30
REMARK   17  A    between atoms: C_45  and  C_46
REMARK                            x       y       z     vdW  Elec       q    Type
REMARK                         _______ _______ _______ _____ _____    ______ ____
ROOT
ATOM      1  C   UNL A   1      43.023 -14.532 -35.098  0.00  0.00    +0.213 C 
ATOM      2  O   UNL A   1      43.391 -14.052 -34.030  0.00  0.00    -0.276 OA
ATOM      3  N   UNL A   1      43.766 -14.473 -36.256  0.00  0.00    -0.315 N 
ATOM      4  H   UNL A   1      43.396 -14.865 -37.080  0.00  0.00    +0.000 HD
ENDROOT
BRANCH   1   5
ATOM      5  C   UNL A   1      41.706 -15.263 -35.239  0.00  0.00    +0.025 C 
BRANCH   5   6
ATOM      6  C   UNL A   1      41.884 -16.648 -35.856  0.00  0.00    -0.029 C 
BRANCH   6   7
ATOM      7  C   UNL A   1      40.807 -17.634 -35.404  0.00  0.00    +0.012 C 
BRANCH   7  10
ATOM      8  C   UNL A   1      40.403 -18.621 -33.096  0.00  0.00    +0.246 C 
ATOM      9  O   UNL A   1      40.512 -18.437 -31.888  0.00  0.00    -0.270 OA
ATOM     10  N   UNL A   1      40.554 -17.575 -33.973  0.00  0.00    -0.311 N 
ATOM     11  H   UNL A   1      40.482 -16.673 -33.584  0.00  0.00    +0.000 HD
BRANCH   8  17
ATOM     12  C   UNL A   1      41.164 -20.911 -33.843  0.00  0.00    +0.044 A 
ATOM     13  C   UNL A   1      40.789 -22.187 -34.297  0.00  0.00    -0.040 A 
ATOM     14  C   UNL A   1      39.455 -22.494 -34.588  0.00  0.00    -0.060 A 
ATOM     15  C   UNL A   1      38.463 -21.533 -34.418  0.00  0.00    -0.061 A 
ATOM     16  C   UNL A   1      38.800 -20.274 -33.930  0.00  0.00    -0.048 A 
ATOM     17  C   UNL A   1      40.134 -19.979 -33.608  0.00  0.00    +0.058 A 
BRANCH  12  18
ATOM     18  N   UNL A   1      42.521 -20.630 -33.534  0.00  0.00    -0.314 N 
ATOM     19  H   UNL A   1      42.813 -20.832 -32.616  0.00  0.00    +0.000 HD
BRANCH  18  25
ATOM     20  C   UNL A   1      45.967 -17.143 -34.532  0.00  0.00    -0.039 C 
ATOM     21  C   UNL A   1      45.141 -18.342 -34.911  0.00  0.00    -0.046 A 
ATOM     22  C   UNL A   1      45.267 -18.861 -36.210  0.00  0.00    -0.058 A 
ATOM     23  C   UNL A   1      44.510 -19.956 -36.615  0.00  0.00    -0.060 A 
ATOM     24  C   UNL A   1      43.623 -20.552 -35.724  0.00  0.00    -0.040 A 
ATOM     25  C   UNL A   1      43.505 -20.088 -34.404  0.00  0.00    +0.035 A 
ATOM     26  C   UNL A   1      44.264 -18.967 -33.993  0.00  0.00    -0.026 A 
ATOM     27  C   UNL A   1      44.100 -18.420 -32.595  0.00  0.00    -0.038 C 
ENDBRANCH  18  25
ENDBRANCH  12  18
ENDBRANCH   8  17
ENDBRANCH   7  10
ENDBRANCH   6   7
ENDBRANCH   5   6
ENDBRANCH   1   5
BRANCH   3  28
ATOM     28  C   UNL A   1      45.074 -13.853 -36.301  0.00  0.00    +0.012 C 
BRANCH  28  29
ATOM     29  C   UNL A   1      45.396 -13.282 -37.681  0.00  0.00    -0.037 C 
BRANCH  29  30
ATOM     30  C   UNL A   1      46.488 -14.102 -38.372  0.00  0.00    -0.052 C 
BRANCH  30  31
ATOM     31  C   UNL A   1      46.182 -15.601 -38.419  0.00  0.00    -0.052 C 
BRANCH  31  32
ATOM     32  C   UNL A   1      45.262 -15.988 -39.579  0.00  0.00    -0.037 C 
BRANCH  32  33
ATOM     33  C   UNL A   1      44.102 -16.865 -39.103  0.00  0.00    +0.009 C 
BRANCH  33  34
ATOM     34  N   UNL A   1      43.519 -17.555 -40.263  0.00  0.00    -0.343 N 
ATOM     35  H   UNL A   1      43.176 -17.096 -41.063  0.00  0.00    +0.000 HD
BRANCH  34  36
ATOM     36  C   UNL A   1      43.510 -18.971 -40.090  0.00  0.00    +0.041 A 
ATOM     37  C   UNL A   1      42.400 -19.620 -39.510  0.00  0.00    -0.005 A 
ATOM     38  C   UNL A   1      42.441 -21.014 -39.424  0.00  0.00    +0.047 A 
ATOM     39  N   UNL A   1      43.461 -21.760 -39.911  0.00  0.00    -0.251 NA
ATOM     40  C   UNL A   1      44.510 -21.144 -40.471  0.00  0.00    +0.074 A 
ATOM     41  C   UNL A   1      45.551 -21.928 -40.946  0.00  0.00    -0.017 A 
ATOM     42  C   UNL A   1      46.682 -21.357 -41.526  0.00  0.00    +0.043 A 
ATOM     43 CL   UNL A   1      47.952 -22.364 -42.099  0.00  0.00    -0.083 Cl
ATOM     44  C   UNL A   1      46.792 -19.978 -41.637  0.00  0.00    -0.043 A 
ATOM     45  C   UNL A   1      45.754 -19.176 -41.168  0.00  0.00    -0.049 A 
ATOM     46  C   UNL A   1      44.594 -19.743 -40.589  0.00  0.00    +0.022 A 
ATOM     47  C   UNL A   1      41.304 -21.809 -38.832  0.00  0.00    -0.010 C 
ATOM     48  C   UNL A   1      40.401 -20.985 -37.924  0.00  0.00    -0.047 C 
ATOM     49  C   UNL A   1      40.007 -19.696 -38.626  0.00  0.00    -0.049 C 
ATOM     50  C   UNL A   1      41.242 -18.847 -38.922  0.00  0.00    -0.024 C 
ENDBRANCH  34  36
ENDBRANCH  33  34
ENDBRANCH  32  33
ENDBRANCH  31  32
ENDBRANCH  30  31
ENDBRANCH  29  30
ENDBRANCH  28  29
ENDBRANCH   3  28
TORSDOF 15
ENDMDL
MODEL 18
REMARK VINA RESULT:    -7.366     17.738     21.517
REMARK INTER + INTRA:         -16.547
REMARK INTER:                 -10.760
REMARK INTRA:                  -5.787
REMARK UNBOUND:                -2.721
REMARK  Name = cpd14.pdb
REMARK  17 active torsions:
REMARK  status: ('A' for Active; 'I' for Inactive)
REMARK    1  A    between atoms: C_1  and  C_2
REMARK    2  A    between atoms: C_6  and  N_7
REMARK    3  A    between atoms: N_7  and  C_8
REMARK    4  A    between atoms: C_13  and  C_14
REMARK    5  A    between atoms: N_16  and  C_17
REMARK    6  A    between atoms: C_17  and  C_18
REMARK    7  A    between atoms: C_18  and  C_19
REMARK    8  A    between atoms: C_19  and  C_20
REMARK    9  A    between atoms: N_22  and  C_23
REMARK   10  A    between atoms: C_23  and  C_24
REMARK   11  A    between atoms: C_24  and  C_25
REMARK   12  A    between atoms: C_25  and  C_26
REMARK   13  A    between atoms: C_26  and  C_27
REMARK   14  A    between atoms: C_27  and  C_28
REMARK   15  A    between atoms: C_28  and  N_29
REMARK   16  A    between atoms: N_29  and  C_30
REMARK   17  A    between atoms: C_45  and  C_46
REMARK                            x       y       z     vdW  Elec       q    Type
REMARK                         _______ _______ _______ _____ _____    ______ ____
ROOT
ATOM      1  C   UNL A   1      37.168 -17.452 -33.590  0.00  0.00    +0.213 C 
ATOM      2  O   UNL A   1      37.530 -16.349 -33.193  0.00  0.00    -0.276 OA
ATOM      3  N   UNL A   1      37.064 -17.788 -34.921  0.00  0.00    -0.315 N 
ATOM      4  H   UNL A   1      36.748 -18.688 -35.162  0.00  0.00    +0.000 HD
ENDROOT
BRANCH   1   5
ATOM      5  C   UNL A   1      36.817 -18.573 -32.635  0.00  0.00    +0.025 C 
BRANCH   5   6
ATOM      6  C   UNL A   1      37.458 -19.897 -33.047  0.00  0.00    -0.029 C 
BRANCH   6   7
ATOM      7  C   UNL A   1      38.983 -19.864 -32.949  0.00  0.00    +0.012 C 
BRANCH   7  10
ATOM      8  C   UNL A   1      40.349 -21.994 -33.205  0.00  0.00    +0.246 C 
ATOM      9  O   UNL A   1      41.002 -22.849 -32.617  0.00  0.00    -0.270 OA
ATOM     10  N   UNL A   1      39.546 -21.129 -32.503  0.00  0.00    -0.311 N 
ATOM     11  H   UNL A   1      39.323 -21.400 -31.582  0.00  0.00    +0.000 HD
BRANCH   8  17
ATOM     12  C   UNL A   1      41.620 -21.428 -35.314  0.00  0.00    +0.044 A 
ATOM     13  C   UNL A   1      41.614 -21.393 -36.719  0.00  0.00    -0.040 A 
ATOM     14  C   UNL A   1      40.464 -21.707 -37.451  0.00  0.00    -0.060 A 
ATOM     15  C   UNL A   1      39.295 -22.079 -36.794  0.00  0.00    -0.061 A 
ATOM     16  C   UNL A   1      39.284 -22.164 -35.404  0.00  0.00    -0.048 A 
ATOM     17  C   UNL A   1      40.448 -21.878 -34.674  0.00  0.00    +0.058 A 
BRANCH  12  18
ATOM     18  N   UNL A   1      42.805 -21.125 -34.593  0.00  0.00    -0.314 N 
ATOM     19  H   UNL A   1      43.350 -21.892 -34.304  0.00  0.00    +0.000 HD
BRANCH  18  25
ATOM     20  C   UNL A   1      46.155 -17.457 -35.185  0.00  0.00    -0.039 C 
ATOM     21  C   UNL A   1      44.970 -18.076 -34.494  0.00  0.00    -0.046 A 
ATOM     22  C   UNL A   1      44.410 -17.409 -33.394  0.00  0.00    -0.058 A 
ATOM     23  C   UNL A   1      43.328 -17.951 -32.708  0.00  0.00    -0.060 A 
ATOM     24  C   UNL A   1      42.785 -19.165 -33.120  0.00  0.00    -0.040 A 
ATOM     25  C   UNL A   1      43.291 -19.836 -34.243  0.00  0.00    +0.035 A 
ATOM     26  C   UNL A   1      44.400 -19.294 -34.935  0.00  0.00    -0.026 A 
ATOM     27  C   UNL A   1      44.992 -20.039 -36.107  0.00  0.00    -0.038 C 
ENDBRANCH  18  25
ENDBRANCH  12  18
ENDBRANCH   8  17
ENDBRANCH   7  10
ENDBRANCH   6   7
ENDBRANCH   5   6
ENDBRANCH   1   5
BRANCH   3  28
ATOM     28  C   UNL A   1      37.403 -16.857 -35.978  0.00  0.00    +0.012 C 
BRANCH  28  29
ATOM     29  C   UNL A   1      38.295 -17.493 -37.043  0.00  0.00    -0.037 C 
BRANCH  29  30
ATOM     30  C   UNL A   1      39.463 -18.247 -36.402  0.00  0.00    -0.052 C 
BRANCH  30  31
ATOM     31  C   UNL A   1      40.444 -17.331 -35.666  0.00  0.00    -0.052 C 
BRANCH  31  32
ATOM     32  C   UNL A   1      41.765 -17.145 -36.415  0.00  0.00    -0.037 C 
BRANCH  32  33
ATOM     33  C   UNL A   1      41.912 -18.160 -37.550  0.00  0.00    +0.009 C 
BRANCH  33  34
ATOM     34  N   UNL A   1      42.478 -17.483 -38.725  0.00  0.00    -0.343 N 
ATOM     35  H   UNL A   1      41.982 -16.844 -39.286  0.00  0.00    +0.000 HD
BRANCH  34  36
ATOM     36  C   UNL A   1      43.833 -17.863 -38.956  0.00  0.00    +0.041 A 
ATOM     37  C   UNL A   1      44.143 -19.104 -39.551  0.00  0.00    -0.005 A 
ATOM     38  C   UNL A   1      45.490 -19.383 -39.797  0.00  0.00    +0.047 A 
ATOM     39  N   UNL A   1      46.490 -18.507 -39.538  0.00  0.00    -0.251 NA
ATOM     40  C   UNL A   1      46.194 -17.324 -38.983  0.00  0.00    +0.074 A 
ATOM     41  C   UNL A   1      47.237 -16.451 -38.711  0.00  0.00    -0.017 A 
ATOM     42  C   UNL A   1      47.008 -15.211 -38.119  0.00  0.00    +0.043 A 
ATOM     43 CL   UNL A   1      48.330 -14.160 -37.795  0.00  0.00    -0.083 Cl
ATOM     44  C   UNL A   1      45.720 -14.823 -37.783  0.00  0.00    -0.043 A 
ATOM     45  C   UNL A   1      44.660 -15.686 -38.052  0.00  0.00    -0.049 A 
ATOM     46  C   UNL A   1      44.877 -16.943 -38.666  0.00  0.00    +0.022 A 
ATOM     47  C   UNL A   1      45.932 -20.674 -40.438  0.00  0.00    -0.010 C 
ATOM     48  C   UNL A   1      44.900 -21.789 -40.323  0.00  0.00    -0.047 C 
ATOM     49  C   UNL A   1      43.537 -21.272 -40.755  0.00  0.00    -0.049 C 
ATOM     50  C   UNL A   1      43.079 -20.138 -39.839  0.00  0.00    -0.024 C 
ENDBRANCH  34  36
ENDBRANCH  33  34
ENDBRANCH  32  33
ENDBRANCH  31  32
ENDBRANCH  30  31
ENDBRANCH  29  30
ENDBRANCH  28  29
ENDBRANCH   3  28
TORSDOF 15
ENDMDL
MODEL 19
REMARK VINA RESULT:    -7.347     18.319     21.996
REMARK INTER + INTRA:         -16.511
REMARK INTER:                 -10.021
REMARK INTRA:                  -6.491
REMARK UNBOUND:                -2.721
REMARK  Name = cpd14.pdb
REMARK  17 active torsions:
REMARK  status: ('A' for Active; 'I' for Inactive)
REMARK    1  A    between atoms: C_1  and  C_2
REMARK    2  A    between atoms: C_6  and  N_7
REMARK    3  A    between atoms: N_7  and  C_8
REMARK    4  A    between atoms: C_13  and  C_14
REMARK    5  A    between atoms: N_16  and  C_17
REMARK    6  A    between atoms: C_17  and  C_18
REMARK    7  A    between atoms: C_18  and  C_19
REMARK    8  A    between atoms: C_19  and  C_20
REMARK    9  A    between atoms: N_22  and  C_23
REMARK   10  A    between atoms: C_23  and  C_24
REMARK   11  A    between atoms: C_24  and  C_25
REMARK   12  A    between atoms: C_25  and  C_26
REMARK   13  A    between atoms: C_26  and  C_27
REMARK   14  A    between atoms: C_27  and  C_28
REMARK   15  A    between atoms: C_28  and  N_29
REMARK   16  A    between atoms: N_29  and  C_30
REMARK   17  A    between atoms: C_45  and  C_46
REMARK                            x       y       z     vdW  Elec       q    Type
REMARK                         _______ _______ _______ _____ _____    ______ ____
ROOT
ATOM      1  C   UNL A   1      46.781 -15.845 -37.071  0.00  0.00    +0.213 C 
ATOM      2  O   UNL A   1      47.357 -14.798 -36.791  0.00  0.00    -0.276 OA
ATOM      3  N   UNL A   1      46.362 -16.168 -38.342  0.00  0.00    -0.315 N 
ATOM      4  H   UNL A   1      45.888 -17.019 -38.486  0.00  0.00    +0.000 HD
ENDROOT
BRANCH   1   5
ATOM      5  C   UNL A   1      46.490 -16.905 -36.031  0.00  0.00    +0.025 C 
BRANCH   5   6
ATOM      6  C   UNL A   1      45.163 -17.614 -36.292  0.00  0.00    -0.029 C 
BRANCH   6   7
ATOM      7  C   UNL A   1      44.849 -18.677 -35.240  0.00  0.00    +0.012 C 
BRANCH   7  10
ATOM      8  C   UNL A   1      44.905 -17.692 -32.897  0.00  0.00    +0.246 C 
ATOM      9  O   UNL A   1      45.386 -17.792 -31.773  0.00  0.00    -0.270 OA
ATOM     10  N   UNL A   1      45.451 -18.387 -33.948  0.00  0.00    -0.311 N 
ATOM     11  H   UNL A   1      46.363 -18.732 -33.810  0.00  0.00    +0.000 HD
BRANCH   8  17
ATOM     12  C   UNL A   1      42.408 -17.343 -33.040  0.00  0.00    +0.044 A 
ATOM     13  C   UNL A   1      41.355 -16.431 -33.228  0.00  0.00    -0.040 A 
ATOM     14  C   UNL A   1      41.599 -15.094 -33.560  0.00  0.00    -0.060 A 
ATOM     15  C   UNL A   1      42.905 -14.634 -33.699  0.00  0.00    -0.061 A 
ATOM     16  C   UNL A   1      43.969 -15.505 -33.478  0.00  0.00    -0.048 A 
ATOM     17  C   UNL A   1      43.721 -16.838 -33.113  0.00  0.00    +0.058 A 
BRANCH  12  18
ATOM     18  N   UNL A   1      42.136 -18.690 -32.682  0.00  0.00    -0.314 N 
ATOM     19  H   UNL A   1      42.510 -19.000 -31.826  0.00  0.00    +0.000 HD
BRANCH  18  25
ATOM     20  C   UNL A   1      37.949 -21.355 -33.311  0.00  0.00    -0.039 C 
ATOM     21  C   UNL A   1      39.359 -20.986 -33.687  0.00  0.00    -0.046 A 
ATOM     22  C   UNL A   1      39.983 -21.691 -34.728  0.00  0.00    -0.058 A 
ATOM     23  C   UNL A   1      41.293 -21.401 -35.098  0.00  0.00    -0.060 A 
ATOM     24  C   UNL A   1      41.993 -20.395 -34.439  0.00  0.00    -0.040 A 
ATOM     25  C   UNL A   1      41.384 -19.640 -33.425  0.00  0.00    +0.035 A 
ATOM     26  C   UNL A   1      40.057 -19.941 -33.036  0.00  0.00    -0.026 A 
ATOM     27  C   UNL A   1      39.413 -19.176 -31.905  0.00  0.00    -0.038 C 
ENDBRANCH  18  25
ENDBRANCH  12  18
ENDBRANCH   8  17
ENDBRANCH   7  10
ENDBRANCH   6   7
ENDBRANCH   5   6
ENDBRANCH   1   5
BRANCH   3  28
ATOM     28  C   UNL A   1      46.595 -15.295 -39.474  0.00  0.00    +0.012 C 
BRANCH  28  29
ATOM     29  C   UNL A   1      45.333 -15.082 -40.308  0.00  0.00    -0.037 C 
BRANCH  29  30
ATOM     30  C   UNL A   1      44.203 -16.002 -39.840  0.00  0.00    -0.052 C 
BRANCH  30  31
ATOM     31  C   UNL A   1      42.992 -15.243 -39.292  0.00  0.00    -0.052 C 
BRANCH  31  32
ATOM     32  C   UNL A   1      42.843 -15.370 -37.774  0.00  0.00    -0.037 C 
BRANCH  32  33
ATOM     33  C   UNL A   1      41.447 -15.866 -37.389  0.00  0.00    +0.009 C 
BRANCH  33  34
ATOM     34  N   UNL A   1      41.582 -17.067 -36.553  0.00  0.00    -0.343 N 
ATOM     35  H   UNL A   1      42.220 -17.152 -35.809  0.00  0.00    +0.000 HD
BRANCH  34  36
ATOM     36  C   UNL A   1      40.678 -18.096 -36.952  0.00  0.00    +0.041 A 
ATOM     37  C   UNL A   1      39.370 -18.151 -36.425  0.00  0.00    -0.005 A 
ATOM     38  C   UNL A   1      38.524 -19.155 -36.905  0.00  0.00    +0.047 A 
ATOM     39  N   UNL A   1      38.884 -20.031 -37.873  0.00  0.00    -0.251 NA
ATOM     40  C   UNL A   1      40.122 -19.972 -38.379  0.00  0.00    +0.074 A 
ATOM     41  C   UNL A   1      40.473 -20.892 -39.357  0.00  0.00    -0.017 A 
ATOM     42  C   UNL A   1      41.747 -20.902 -39.918  0.00  0.00    +0.043 A 
ATOM     43 CL   UNL A   1      42.143 -22.062 -41.125  0.00  0.00    -0.083 Cl
ATOM     44  C   UNL A   1      42.703 -19.985 -39.504  0.00  0.00    -0.043 A 
ATOM     45  C   UNL A   1      42.366 -19.052 -38.525  0.00  0.00    -0.049 A 
ATOM     46  C   UNL A   1      41.071 -19.022 -37.956  0.00  0.00    +0.022 A 
ATOM     47  C   UNL A   1      37.103 -19.298 -36.419  0.00  0.00    -0.010 C 
ATOM     48  C   UNL A   1      36.856 -18.628 -35.073  0.00  0.00    -0.047 C 
ATOM     49  C   UNL A   1      37.403 -17.209 -35.099  0.00  0.00    -0.049 C 
ATOM     50  C   UNL A   1      38.914 -17.222 -35.324  0.00  0.00    -0.024 C 
ENDBRANCH  34  36
ENDBRANCH  33  34
ENDBRANCH  32  33
ENDBRANCH  31  32
ENDBRANCH  30  31
ENDBRANCH  29  30
ENDBRANCH  28  29
ENDBRANCH   3  28
TORSDOF 15
ENDMDL
MODEL 20
REMARK VINA RESULT:    -7.315     17.605     21.821
REMARK INTER + INTRA:         -16.450
REMARK INTER:                 -11.156
REMARK INTRA:                  -5.294
REMARK UNBOUND:                -2.721
REMARK  Name = cpd14.pdb
REMARK  17 active torsions:
REMARK  status: ('A' for Active; 'I' for Inactive)
REMARK    1  A    between atoms: C_1  and  C_2
REMARK    2  A    between atoms: C_6  and  N_7
REMARK    3  A    between atoms: N_7  and  C_8
REMARK    4  A    between atoms: C_13  and  C_14
REMARK    5  A    between atoms: N_16  and  C_17
REMARK    6  A    between atoms: C_17  and  C_18
REMARK    7  A    between atoms: C_18  and  C_19
REMARK    8  A    between atoms: C_19  and  C_20
REMARK    9  A    between atoms: N_22  and  C_23
REMARK   10  A    between atoms: C_23  and  C_24
REMARK   11  A    between atoms: C_24  and  C_25
REMARK   12  A    between atoms: C_25  and  C_26
REMARK   13  A    between atoms: C_26  and  C_27
REMARK   14  A    between atoms: C_27  and  C_28
REMARK   15  A    between atoms: C_28  and  N_29
REMARK   16  A    between atoms: N_29  and  C_30
REMARK   17  A    between atoms: C_45  and  C_46
REMARK                            x       y       z     vdW  Elec       q    Type
REMARK                         _______ _______ _______ _____ _____    ______ ____
ROOT
ATOM      1  C   UNL A   1      41.281 -21.392 -38.530  0.00  0.00    +0.213 C 
ATOM      2  O   UNL A   1      41.062 -22.535 -38.142  0.00  0.00    -0.276 OA
ATOM      3  N   UNL A   1      42.272 -20.588 -38.013  0.00  0.00    -0.315 N 
ATOM      4  H   UNL A   1      42.375 -19.674 -38.363  0.00  0.00    +0.000 HD
ENDROOT
BRANCH   1   5
ATOM      5  C   UNL A   1      40.482 -20.755 -39.647  0.00  0.00    +0.025 C 
BRANCH   5   6
ATOM      6  C   UNL A   1      39.521 -19.689 -39.126  0.00  0.00    -0.029 C 
BRANCH   6   7
ATOM      7  C   UNL A   1      39.648 -19.472 -37.618  0.00  0.00    +0.012 C 
BRANCH   7  10
ATOM      8  C   UNL A   1      38.089 -19.915 -35.659  0.00  0.00    +0.246 C 
ATOM      9  O   UNL A   1      37.044 -19.585 -35.108  0.00  0.00    -0.270 OA
ATOM     10  N   UNL A   1      38.364 -19.490 -36.936  0.00  0.00    -0.311 N 
ATOM     11  H   UNL A   1      37.595 -19.156 -37.454  0.00  0.00    +0.000 HD
BRANCH   8  17
ATOM     12  C   UNL A   1      39.915 -20.227 -33.942  0.00  0.00    +0.044 A 
ATOM     13  C   UNL A   1      40.780 -21.125 -33.293  0.00  0.00    -0.040 A 
ATOM     14  C   UNL A   1      40.858 -22.468 -33.676  0.00  0.00    -0.060 A 
ATOM     15  C   UNL A   1      40.061 -22.949 -34.710  0.00  0.00    -0.061 A 
ATOM     16  C   UNL A   1      39.164 -22.093 -35.343  0.00  0.00    -0.048 A 
ATOM     17  C   UNL A   1      39.065 -20.753 -34.935  0.00  0.00    +0.058 A 
BRANCH  12  18
ATOM     18  N   UNL A   1      39.838 -18.873 -33.522  0.00  0.00    -0.314 N 
ATOM     19  H   UNL A   1      39.267 -18.688 -32.742  0.00  0.00    +0.000 HD
BRANCH  18  25
ATOM     20  C   UNL A   1      43.818 -15.855 -33.800  0.00  0.00    -0.039 C 
ATOM     21  C   UNL A   1      42.418 -16.247 -34.187  0.00  0.00    -0.046 A 
ATOM     22  C   UNL A   1      41.702 -15.411 -35.058  0.00  0.00    -0.058 A 
ATOM     23  C   UNL A   1      40.397 -15.719 -35.430  0.00  0.00    -0.060 A 
ATOM     24  C   UNL A   1      39.793 -16.873 -34.941  0.00  0.00    -0.040 A 
ATOM     25  C   UNL A   1      40.494 -17.756 -34.104  0.00  0.00    +0.035 A 
ATOM     26  C   UNL A   1      41.817 -17.438 -33.715  0.00  0.00    -0.026 A 
ATOM     27  C   UNL A   1      42.560 -18.348 -32.765  0.00  0.00    -0.038 C 
ENDBRANCH  18  25
ENDBRANCH  12  18
ENDBRANCH   8  17
ENDBRANCH   7  10
ENDBRANCH   6   7
ENDBRANCH   5   6
ENDBRANCH   1   5
BRANCH   3  28
ATOM     28  C   UNL A   1      43.168 -21.045 -36.970  0.00  0.00    +0.012 C 
BRANCH  28  29
ATOM     29  C   UNL A   1      43.560 -19.921 -36.012  0.00  0.00    -0.037 C 
BRANCH  29  30
ATOM     30  C   UNL A   1      44.925 -20.193 -35.377  0.00  0.00    -0.052 C 
BRANCH  30  31
ATOM     31  C   UNL A   1      45.517 -18.973 -34.668  0.00  0.00    -0.052 C 
BRANCH  31  32
ATOM     32  C   UNL A   1      46.644 -18.308 -35.462  0.00  0.00    -0.037 C 
BRANCH  32  33
ATOM     33  C   UNL A   1      47.076 -19.171 -36.649  0.00  0.00    +0.009 C 
BRANCH  33  34
ATOM     34  N   UNL A   1      47.085 -18.342 -37.862  0.00  0.00    -0.343 N 
ATOM     35  H   UNL A   1      47.755 -17.646 -38.051  0.00  0.00    +0.000 HD
BRANCH  34  36
ATOM     36  C   UNL A   1      46.004 -18.666 -38.735  0.00  0.00    +0.041 A 
ATOM     37  C   UNL A   1      44.832 -17.881 -38.755  0.00  0.00    -0.005 A 
ATOM     38  C   UNL A   1      43.840 -18.228 -39.676  0.00  0.00    +0.047 A 
ATOM     39  N   UNL A   1      43.973 -19.238 -40.569  0.00  0.00    -0.251 NA
ATOM     40  C   UNL A   1      45.090 -19.977 -40.555  0.00  0.00    +0.074 A 
ATOM     41  C   UNL A   1      45.196 -21.017 -41.467  0.00  0.00    -0.017 A 
ATOM     42  C   UNL A   1      46.320 -21.838 -41.502  0.00  0.00    +0.043 A 
ATOM     43 CL   UNL A   1      46.410 -23.119 -42.645  0.00  0.00    -0.083 Cl
ATOM     44  C   UNL A   1      47.366 -21.632 -40.614  0.00  0.00    -0.043 A 
ATOM     45  C   UNL A   1      47.277 -20.590 -39.694  0.00  0.00    -0.049 A 
ATOM     46  C   UNL A   1      46.147 -19.739 -39.656  0.00  0.00    +0.022 A 
ATOM     47  C   UNL A   1      42.552 -17.450 -39.790  0.00  0.00    -0.010 C 
ATOM     48  C   UNL A   1      42.229 -16.634 -38.545  0.00  0.00    -0.047 C 
ATOM     49  C   UNL A   1      43.450 -15.828 -38.129  0.00  0.00    -0.049 C 
ATOM     50  C   UNL A   1      44.607 -16.759 -37.769  0.00  0.00    -0.024 C 
ENDBRANCH  34  36
ENDBRANCH  33  34
ENDBRANCH  32  33
ENDBRANCH  31  32
ENDBRANCH  30  31
ENDBRANCH  29  30
ENDBRANCH  28  29
ENDBRANCH   3  28
TORSDOF 15
ENDMDL
