@<TRIPOS>MOLECULE
*****
 18 19 0 0 0
SMALL
GASTEIGER

@<TRIPOS>ATOM
      1 C           3.4641    2.0000    0.0000 C.3     1  UNL1        0.0513
      2 C           2.5981    1.5000    0.0000 C.3     1  UNL1        0.2089
      3 O           2.5981    0.5000    0.0000 O.3     1  UNL1       -0.4454
      4 C           1.7321   -0.0000    0.0000 C.2     1  UNL1        0.3437
      5 O           1.7321   -1.0000    0.0000 O.2     1  UNL1       -0.2448
      6 C           0.8660    0.5000    0.0000 C.ar    1  UNL1        0.1059
      7 C           0.8660    1.5000    0.0000 C.ar    1  UNL1        0.0669
      8 C           1.7321    2.0000    0.0000 C.3     1  UNL1        0.0524
      9 N           0.0000    2.0000    0.0000 N.ar    1  UNL1       -0.2493
     10 C          -0.8660    1.5000    0.0000 C.ar    1  UNL1        0.0844
     11 C          -1.7321    2.0000    0.0000 C.ar    1  UNL1        0.0193
     12 C          -2.5981    1.5000    0.0000 C.ar    1  UNL1        0.0039
     13 C          -2.5981    0.5000    0.0000 C.ar    1  UNL1        0.0298
     14 C          -1.7321    0.0000    0.0000 C.ar    1  UNL1        0.1428
     15 F          -1.7321   -1.0000    0.0000 F       1  UNL1       -0.2041
     16 C          -0.8660    0.5000    0.0000 C.ar    1  UNL1        0.0621
     17 C           0.0000   -0.0000    0.0000 C.ar    1  UNL1        0.1000
     18 N          -0.0000   -1.0000    0.0000 N.pl3   1  UNL1       -0.1277
@<TRIPOS>BOND
     1     1     2    1
     2     2     3    1
     3     3     4    1
     4     4     5    2
     5     4     6    1
     6     6     7   ar
     7     7     8    1
     8     7     9   ar
     9     9    10   ar
    10    10    11   ar
    11    11    12   ar
    12    12    13   ar
    13    13    14   ar
    14    14    15    1
    15    14    16   ar
    16    10    16   ar
    17    16    17   ar
    18     6    17   ar
    19    17    18    1
