REMARK  Name = cpd202.pdb
REMARK  6 active torsions:
REMARK  status: ('A' for Active; 'I' for Inactive)
REMARK    1  A    between atoms: C_1  and  C_2
REMARK    2  A    between atoms: C_2  and  O_3
REMARK    3  A    between atoms: O_3  and  C_4
REMARK    4  A    between atoms: C_4  and  C_6
REMARK    5  A    between atoms: C_7  and  C_8
REMARK    6  A    between atoms: C_17  and  N_18
REMARK                            x       y       z     vdW  Elec       q    Type
REMARK                         _______ _______ _______ _____ _____    ______ ____
ROOT
ATOM      1  C   UNL A   1       0.804   1.261  -0.426  0.00  0.00    +0.101 A 
ATOM      2  C   UNL A   1       0.284   2.533  -0.191  0.00  0.00    +0.055 A 
ATOM      3  C   UNL A   1       1.111   3.784  -0.267  0.00  0.00    -0.021 C 
ATOM      4  N   UNL A   1      -1.022   2.731   0.125  0.00  0.00    -0.251 NA
ATOM      5  C   UNL A   1      -1.846   1.678   0.208  0.00  0.00    +0.076 A 
ATOM      6  C   UNL A   1      -3.169   1.918   0.565  0.00  0.00    -0.035 A 
ATOM      7  C   UNL A   1      -4.106   0.890   0.676  0.00  0.00    -0.057 A 
ATOM      8  C   UNL A   1      -3.715  -0.414   0.419  0.00  0.00    -0.026 A 
ATOM      9  C   UNL A   1      -2.395  -0.669   0.060  0.00  0.00    +0.134 A 
ATOM     10  F   UNL A   1      -2.064  -1.943  -0.211  0.00  0.00    -0.205 F 
ATOM     11  C   UNL A   1      -1.427   0.357  -0.049  0.00  0.00    +0.057 A 
ATOM     12  C   UNL A   1      -0.068   0.153  -0.418  0.00  0.00    +0.052 A 
ENDROOT
BRANCH  12  13
ATOM     13  N   UNL A   1       0.447  -1.164  -0.540  0.00  0.00    -0.357 N 
ATOM     14  H   UNL A   1       1.388  -1.303  -0.795  0.00  0.00    +0.000 HD
ATOM     15  H   UNL A   1      -0.136  -1.938  -0.369  0.00  0.00    +0.000 HD
ENDBRANCH  12  13
BRANCH   1  16
ATOM     16  C   UNL A   1       2.231   1.052  -0.747  0.00  0.00    +0.343 C 
ATOM     17  O   UNL A   1       2.615   0.336  -1.659  0.00  0.00    -0.245 OA
BRANCH  16  18
ATOM     18  O   UNL A   1       3.007   1.689   0.162  0.00  0.00    -0.461 OA
BRANCH  18  20
ATOM     19  C   UNL A   1       4.866   0.251   0.743  0.00  0.00    -0.031 C 
ATOM     20  C   UNL A   1       4.423   1.504   0.011  0.00  0.00    +0.090 C 
ENDBRANCH  18  20
ENDBRANCH  16  18
ENDBRANCH   1  16
TORSDOF 4
