@<TRIPOS>MOLECULE
*****
 29 32 0 0 0
SMALL
GASTEIGER

@<TRIPOS>ATOM
      1 C          -0.5430   -3.1041    0.0000 C.3     1  UNL1        0.0301
      2 C           0.4570   -3.1041    0.0000 C.2     1  UNL1       -0.0319
      3 C           0.9570   -2.2380    0.0000 C.2     1  UNL1       -0.0204
      4 C           1.9570   -2.2380    0.0000 C.3     1  UNL1        0.0473
      5 C           1.4327   -2.8031    0.0000 C.2     1  UNL1       -0.0303
      6 C           0.6640   -2.7455    0.0000 C.2     1  UNL1       -0.0453
      7 C           0.1640   -3.6115    0.0000 C.3     1  UNL1        0.0261
      8 C           0.2298   -2.1086    0.0000 C.3     1  UNL1        0.0523
      9 C           0.4570   -1.3720    0.0000 C.3     1  UNL1        0.1231
     10 N          -0.0000   -1.9427    0.0000 N.2     1  UNL1       -0.2644
     11 C          -0.8412   -1.4570    0.0000 C.2     1  UNL1        0.0939
     12 C          -0.8412   -0.4857    0.0000 C.ar    1  UNL1        0.0248
     13 C          -1.6824   -0.0000    0.0000 C.ar    1  UNL1        0.0386
     14 C          -1.6824    0.9714    0.0000 C.ar    1  UNL1        0.1418
     15 O          -2.5237    1.4570    0.0000 O.3     1  UNL1       -0.4713
     16 C          -2.5237    2.4284    0.0000 C.3     1  UNL1        0.2525
     17 C          -0.8412    1.4570    0.0000 C.ar    1  UNL1        0.0737
     18 C          -0.0000    0.9714    0.0000 C.ar    1  UNL1        0.1418
     19 O           0.8412    1.4570    0.0000 O.3     1  UNL1       -0.4713
     20 C           1.1150    2.3890    0.0000 C.3     1  UNL1        0.2525
     21 C           0.0000   -0.0000    0.0000 C.ar    1  UNL1        0.0386
     22 C           0.9570   -0.5060    0.0000 C.ar    1  UNL1        0.0154
     23 C           0.4570    0.3601    0.0000 C.ar    1  UNL1        0.0040
     24 C           0.9570    1.2261    0.0000 C.ar    1  UNL1        0.0623
     25 C           1.9570    1.2261    0.0000 C.ar    1  UNL1        0.2790
     26 O           2.4570    2.0921    0.0000 O.2     1  UNL1       -0.2652
     27 N           2.4570    0.3601    0.0000 N.ar    1  UNL1       -0.2125
     28 C           1.9570   -0.5060    0.0000 C.ar    1  UNL1        0.0609
     29 C           2.4570   -1.3720    0.0000 C.3     1  UNL1        0.0541
@<TRIPOS>BOND
     1     1     2    1
     2     2     3    2
     3     3     4    1
     4     4     5    1
     5     5     6    2
     6     6     7    1
     7     6     8    1
     8     8     9    1
     9     3     9    1
    10     9    10    1
    11    10    11    2
    12    11    12    1
    13    12    13   ar
    14    13    14   ar
    15    14    15    1
    16    15    16    1
    17    14    17   ar
    18    17    18   ar
    19    18    19    1
    20    19    20    1
    21    18    21   ar
    22    12    21   ar
    23     9    22    1
    24    22    23   ar
    25    23    24   ar
    26    24    25   ar
    27    25    26    2
    28    25    27   ar
    29    27    28   ar
    30    22    28   ar
    31    28    29    1
    32     4    29    1
