REMARK  Name = cpd121.pdb
REMARK  8 active torsions:
REMARK  status: ('A' for Active; 'I' for Inactive)
REMARK    1  A    between atoms: C_1  and  C_2
REMARK    2  A    between atoms: C_6  and  C_7
REMARK    3  A    between atoms: C_9  and  N_10
REMARK    4  A    between atoms: C_11  and  C_12
REMARK    5  A    between atoms: C_14  and  O_15
REMARK    6  A    between atoms: O_15  and  C_16
REMARK    7  A    between atoms: C_18  and  O_19
REMARK    8  A    between atoms: O_19  and  C_20
REMARK                            x       y       z     vdW  Elec       q    Type
REMARK                         _______ _______ _______ _____ _____    ______ ____
ROOT
ATOM      1  C   UNL A   1      -1.145  -4.762  -1.812  0.00  0.00    -0.046 C 
ATOM      2  C   UNL A   1       0.299  -4.637  -1.453  0.00  0.00    -0.085 C 
ATOM      3  C   UNL A   1       0.964  -3.538  -1.029  0.00  0.00    -0.035 C 
ATOM      4  C   UNL A   1       2.459  -3.638  -0.743  0.00  0.00    +0.006 C 
ATOM      5  C   UNL A   1       2.803  -3.163   0.645  0.00  0.00    -0.077 C 
ATOM      6  C   UNL A   1       2.026  -2.311   1.332  0.00  0.00    -0.073 C 
ATOM      7  C   UNL A   1       2.362  -1.845   2.717  0.00  0.00    -0.044 C 
ATOM      8  C   UNL A   1       0.741  -1.781   0.733  0.00  0.00    +0.001 C 
ATOM      9  C   UNL A   1       0.454  -2.104  -0.772  0.00  0.00    +0.113 C 
ATOM     10  C   UNL A   1       1.219  -1.164  -1.710  0.00  0.00    -0.000 C 
ATOM     11  C   UNL A   1       0.733  -0.181  -2.488  0.00  0.00    -0.068 C 
ATOM     12  C   UNL A   1       1.612   0.745  -3.269  0.00  0.00    +0.045 C 
ATOM     13  C   UNL A   1       3.025   0.720  -2.704  0.00  0.00    +0.240 C 
ATOM     14  O   UNL A   1       3.697   1.746  -2.635  0.00  0.00    -0.273 OA
ATOM     15  N   UNL A   1       3.526  -0.521  -2.389  0.00  0.00    -0.185 NA
ATOM     16  C   UNL A   1       2.689  -1.401  -1.932  0.00  0.00    +0.040 C 
ATOM     17  C   UNL A   1       3.226  -2.816  -1.770  0.00  0.00    -0.002 C 
ENDROOT
BRANCH   9  18
ATOM     18  N   UNL A   1      -0.991  -2.057  -1.046  0.00  0.00    -0.275 NA
ATOM     19  C   UNL A   1      -1.908  -1.241  -0.681  0.00  0.00    +0.031 C 
BRANCH  19  20
ATOM     20  C   UNL A   1      -1.836  -0.023   0.136  0.00  0.00    -0.000 A 
ATOM     21  C   UNL A   1      -1.890   1.216  -0.499  0.00  0.00    -0.011 A 
ATOM     22  C   UNL A   1      -1.889   2.390   0.255  0.00  0.00    +0.124 A 
ATOM     23  C   UNL A   1      -1.852   2.316   1.651  0.00  0.00    +0.022 A 
ATOM     24  C   UNL A   1      -1.847   1.070   2.289  0.00  0.00    +0.124 A 
ATOM     25  C   UNL A   1      -1.872  -0.100   1.526  0.00  0.00    -0.011 A 
BRANCH  22  26
ATOM     26  O   UNL A   1      -1.933   3.536  -0.491  0.00  0.00    -0.495 OA
ATOM     27  C   UNL A   1      -1.959   4.771   0.213  0.00  0.00    +0.079 C 
ENDBRANCH  22  26
BRANCH  24  28
ATOM     28  O   UNL A   1      -1.832   0.863   3.641  0.00  0.00    -0.495 OA
ATOM     29  C   UNL A   1      -1.621   2.002   4.468  0.00  0.00    +0.079 C 
ENDBRANCH  24  28
ENDBRANCH  19  20
ENDBRANCH   9  18
TORSDOF 4
