MODEL 1
REMARK VINA RESULT:    -7.161      0.000      0.000
REMARK INTER + INTRA:          -9.667
REMARK INTER:                  -8.835
REMARK INTRA:                  -0.832
REMARK UNBOUND:                -0.832
REMARK  Name = cpd121.pdb
REMARK  8 active torsions:
REMARK  status: ('A' for Active; 'I' for Inactive)
REMARK    1  A    between atoms: C_1  and  C_2
REMARK    2  A    between atoms: C_6  and  C_7
REMARK    3  A    between atoms: C_9  and  N_10
REMARK    4  A    between atoms: C_11  and  C_12
REMARK    5  A    between atoms: C_14  and  O_15
REMARK    6  A    between atoms: O_15  and  C_16
REMARK    7  A    between atoms: C_18  and  O_19
REMARK    8  A    between atoms: O_19  and  C_20
REMARK                            x       y       z     vdW  Elec       q    Type
REMARK                         _______ _______ _______ _____ _____    ______ ____
ROOT
ATOM      1  C   UNL A   1      34.171 -37.209 -25.980  0.00  0.00    -0.046 C 
ATOM      2  C   UNL A   1      35.440 -37.734 -26.566  0.00  0.00    -0.085 C 
ATOM      3  C   UNL A   1      35.760 -37.882 -27.872  0.00  0.00    -0.035 C 
ATOM      4  C   UNL A   1      37.118 -38.471 -28.242  0.00  0.00    +0.006 C 
ATOM      5  C   UNL A   1      37.886 -37.576 -29.181  0.00  0.00    -0.077 C 
ATOM      6  C   UNL A   1      37.287 -36.674 -29.974  0.00  0.00    -0.073 C 
ATOM      7  C   UNL A   1      38.050 -35.777 -30.901  0.00  0.00    -0.044 C 
ATOM      8  C   UNL A   1      35.782 -36.509 -29.959  0.00  0.00    +0.001 C 
ATOM      9  C   UNL A   1      34.945 -37.549 -29.140  0.00  0.00    +0.113 C 
ATOM     10  C   UNL A   1      34.743 -38.854 -29.918  0.00  0.00    -0.000 C 
ATOM     11  C   UNL A   1      33.614 -39.333 -30.468  0.00  0.00    -0.068 C 
ATOM     12  C   UNL A   1      33.583 -40.571 -31.309  0.00  0.00    +0.045 C 
ATOM     13  C   UNL A   1      34.983 -40.893 -31.811  0.00  0.00    +0.240 C 
ATOM     14  O   UNL A   1      35.164 -41.328 -32.945  0.00  0.00    -0.273 OA
ATOM     15  N   UNL A   1      35.996 -40.773 -30.889  0.00  0.00    -0.185 NA
ATOM     16  C   UNL A   1      35.886 -39.830 -30.004  0.00  0.00    +0.040 C 
ATOM     17  C   UNL A   1      36.918 -39.836 -28.886  0.00  0.00    -0.002 C 
ENDROOT
BRANCH   9  18
ATOM     18  N   UNL A   1      33.653 -36.972 -28.737  0.00  0.00    -0.275 NA
ATOM     19  C   UNL A   1      32.861 -36.150 -29.318  0.00  0.00    +0.031 C 
BRANCH  19  20
ATOM     20  C   UNL A   1      32.953 -35.497 -30.630  0.00  0.00    -0.000 A 
ATOM     21  C   UNL A   1      32.403 -36.138 -31.738  0.00  0.00    -0.011 A 
ATOM     22  C   UNL A   1      32.417 -35.513 -32.986  0.00  0.00    +0.124 A 
ATOM     23  C   UNL A   1      32.969 -34.235 -33.114  0.00  0.00    +0.022 A 
ATOM     24  C   UNL A   1      33.478 -33.573 -31.991  0.00  0.00    +0.124 A 
ATOM     25  C   UNL A   1      33.438 -34.197 -30.741  0.00  0.00    -0.011 A 
BRANCH  22  26
ATOM     26  O   UNL A   1      31.856 -36.254 -33.990  0.00  0.00    -0.495 OA
ATOM     27  C   UNL A   1      31.993 -37.667 -33.912  0.00  0.00    +0.079 C 
ENDBRANCH  22  26
BRANCH  24  28
ATOM     28  O   UNL A   1      34.024 -32.319 -31.979  0.00  0.00    -0.495 OA
ATOM     29  C   UNL A   1      33.472 -31.381 -31.062  0.00  0.00    +0.079 C 
ENDBRANCH  24  28
ENDBRANCH  19  20
ENDBRANCH   9  18
TORSDOF 4
ENDMDL
MODEL 2
REMARK VINA RESULT:    -6.941      0.307      2.421
REMARK INTER + INTRA:          -9.397
REMARK INTER:                  -8.670
REMARK INTRA:                  -0.727
REMARK UNBOUND:                -0.832
REMARK  Name = cpd121.pdb
REMARK  8 active torsions:
REMARK  status: ('A' for Active; 'I' for Inactive)
REMARK    1  A    between atoms: C_1  and  C_2
REMARK    2  A    between atoms: C_6  and  C_7
REMARK    3  A    between atoms: C_9  and  N_10
REMARK    4  A    between atoms: C_11  and  C_12
REMARK    5  A    between atoms: C_14  and  O_15
REMARK    6  A    between atoms: O_15  and  C_16
REMARK    7  A    between atoms: C_18  and  O_19
REMARK    8  A    between atoms: O_19  and  C_20
REMARK                            x       y       z     vdW  Elec       q    Type
REMARK                         _______ _______ _______ _____ _____    ______ ____
ROOT
ATOM      1  C   UNL A   1      34.069 -37.263 -25.937  0.00  0.00    -0.046 C 
ATOM      2  C   UNL A   1      35.356 -37.716 -26.543  0.00  0.00    -0.085 C 
ATOM      3  C   UNL A   1      35.660 -37.857 -27.854  0.00  0.00    -0.035 C 
ATOM      4  C   UNL A   1      37.043 -38.366 -28.246  0.00  0.00    +0.006 C 
ATOM      5  C   UNL A   1      37.737 -37.435 -29.207  0.00  0.00    -0.077 C 
ATOM      6  C   UNL A   1      37.069 -36.580 -29.996  0.00  0.00    -0.073 C 
ATOM      7  C   UNL A   1      37.758 -35.646 -30.946  0.00  0.00    -0.044 C 
ATOM      8  C   UNL A   1      35.558 -36.506 -29.953  0.00  0.00    +0.001 C 
ATOM      9  C   UNL A   1      34.802 -37.587 -29.108  0.00  0.00    +0.113 C 
ATOM     10  C   UNL A   1      34.665 -38.909 -29.871  0.00  0.00    -0.000 C 
ATOM     11  C   UNL A   1      33.557 -39.462 -30.395  0.00  0.00    -0.068 C 
ATOM     12  C   UNL A   1      33.586 -40.707 -31.224  0.00  0.00    +0.045 C 
ATOM     13  C   UNL A   1      34.993 -40.949 -31.750  0.00  0.00    +0.240 C 
ATOM     14  O   UNL A   1      35.179 -41.383 -32.884  0.00  0.00    -0.273 OA
ATOM     15  N   UNL A   1      36.014 -40.758 -30.850  0.00  0.00    -0.185 NA
ATOM     16  C   UNL A   1      35.863 -39.815 -29.971  0.00  0.00    +0.040 C 
ATOM     17  C   UNL A   1      36.915 -39.747 -28.873  0.00  0.00    -0.002 C 
ENDROOT
BRANCH   9  18
ATOM     18  N   UNL A   1      33.485 -37.086 -28.685  0.00  0.00    -0.275 NA
ATOM     19  C   UNL A   1      32.660 -36.272 -29.230  0.00  0.00    +0.031 C 
BRANCH  19  20
ATOM     20  C   UNL A   1      32.727 -35.556 -30.510  0.00  0.00    -0.000 A 
ATOM     21  C   UNL A   1      33.075 -34.207 -30.507  0.00  0.00    -0.011 A 
ATOM     22  C   UNL A   1      33.209 -33.515 -31.712  0.00  0.00    +0.124 A 
ATOM     23  C   UNL A   1      33.011 -34.188 -32.922  0.00  0.00    +0.022 A 
ATOM     24  C   UNL A   1      32.709 -35.555 -32.925  0.00  0.00    +0.124 A 
ATOM     25  C   UNL A   1      32.599 -36.244 -31.714  0.00  0.00    -0.011 A 
BRANCH  22  26
ATOM     26  O   UNL A   1      33.543 -32.196 -31.568  0.00  0.00    -0.495 OA
ATOM     27  C   UNL A   1      32.629 -31.367 -30.862  0.00  0.00    +0.079 C 
ENDBRANCH  22  26
BRANCH  24  28
ATOM     28  O   UNL A   1      32.512 -36.329 -34.035  0.00  0.00    -0.495 OA
ATOM     29  C   UNL A   1      32.051 -37.659 -33.824  0.00  0.00    +0.079 C 
ENDBRANCH  24  28
ENDBRANCH  19  20
ENDBRANCH   9  18
TORSDOF 4
ENDMDL
MODEL 3
REMARK VINA RESULT:    -6.821     19.379     22.838
REMARK INTER + INTRA:          -9.248
REMARK INTER:                  -8.493
REMARK INTRA:                  -0.756
REMARK UNBOUND:                -0.832
REMARK  Name = cpd121.pdb
REMARK  8 active torsions:
REMARK  status: ('A' for Active; 'I' for Inactive)
REMARK    1  A    between atoms: C_1  and  C_2
REMARK    2  A    between atoms: C_6  and  C_7
REMARK    3  A    between atoms: C_9  and  N_10
REMARK    4  A    between atoms: C_11  and  C_12
REMARK    5  A    between atoms: C_14  and  O_15
REMARK    6  A    between atoms: O_15  and  C_16
REMARK    7  A    between atoms: C_18  and  O_19
REMARK    8  A    between atoms: O_19  and  C_20
REMARK                            x       y       z     vdW  Elec       q    Type
REMARK                         _______ _______ _______ _____ _____    ______ ____
ROOT
ATOM      1  C   UNL A   1      47.775 -22.028 -40.263  0.00  0.00    -0.046 C 
ATOM      2  C   UNL A   1      46.644 -21.561 -41.118  0.00  0.00    -0.085 C 
ATOM      3  C   UNL A   1      45.631 -20.729 -40.786  0.00  0.00    -0.035 C 
ATOM      4  C   UNL A   1      44.560 -20.409 -41.824  0.00  0.00    +0.006 C 
ATOM      5  C   UNL A   1      44.391 -18.925 -42.024  0.00  0.00    -0.077 C 
ATOM      6  C   UNL A   1      44.736 -18.025 -41.091  0.00  0.00    -0.073 C 
ATOM      7  C   UNL A   1      44.577 -16.547 -41.292  0.00  0.00    -0.044 C 
ATOM      8  C   UNL A   1      45.326 -18.468 -39.769  0.00  0.00    +0.001 C 
ATOM      9  C   UNL A   1      45.337 -20.002 -39.456  0.00  0.00    +0.113 C 
ATOM     10  C   UNL A   1      43.973 -20.488 -38.953  0.00  0.00    -0.000 C 
ATOM     11  C   UNL A   1      43.632 -20.885 -37.714  0.00  0.00    -0.068 C 
ATOM     12  C   UNL A   1      42.226 -21.224 -37.330  0.00  0.00    +0.045 C 
ATOM     13  C   UNL A   1      41.253 -20.622 -38.334  0.00  0.00    +0.240 C 
ATOM     14  O   UNL A   1      40.181 -20.146 -37.969  0.00  0.00    -0.273 OA
ATOM     15  N   UNL A   1      41.600 -20.748 -39.658  0.00  0.00    -0.185 NA
ATOM     16  C   UNL A   1      42.864 -20.692 -39.949  0.00  0.00    +0.040 C 
ATOM     17  C   UNL A   1      43.235 -21.021 -41.388  0.00  0.00    -0.002 C 
ENDROOT
BRANCH   9  18
ATOM     18  N   UNL A   1      46.399 -20.327 -38.491  0.00  0.00    -0.275 NA
ATOM     19  C   UNL A   1      46.816 -19.727 -37.439  0.00  0.00    +0.031 C 
BRANCH  19  20
ATOM     20  C   UNL A   1      46.355 -18.491 -36.795  0.00  0.00    -0.000 A 
ATOM     21  C   UNL A   1      45.367 -18.572 -35.816  0.00  0.00    -0.011 A 
ATOM     22  C   UNL A   1      44.955 -17.422 -35.141  0.00  0.00    +0.124 A 
ATOM     23  C   UNL A   1      45.550 -16.193 -35.440  0.00  0.00    +0.022 A 
ATOM     24  C   UNL A   1      46.576 -16.121 -36.389  0.00  0.00    +0.124 A 
ATOM     25  C   UNL A   1      46.999 -17.281 -37.043  0.00  0.00    -0.011 A 
BRANCH  22  26
ATOM     26  O   UNL A   1      43.972 -17.638 -34.214  0.00  0.00    -0.495 OA
ATOM     27  C   UNL A   1      44.359 -18.228 -32.979  0.00  0.00    +0.079 C 
ENDBRANCH  22  26
BRANCH  24  28
ATOM     28  O   UNL A   1      47.250 -14.989 -36.756  0.00  0.00    -0.495 OA
ATOM     29  C   UNL A   1      47.982 -15.037 -37.976  0.00  0.00    +0.079 C 
ENDBRANCH  24  28
ENDBRANCH  19  20
ENDBRANCH   9  18
TORSDOF 4
ENDMDL
MODEL 4
REMARK VINA RESULT:    -6.598     18.349     22.314
REMARK INTER + INTRA:          -8.974
REMARK INTER:                  -8.124
REMARK INTRA:                  -0.849
REMARK UNBOUND:                -0.832
REMARK  Name = cpd121.pdb
REMARK  8 active torsions:
REMARK  status: ('A' for Active; 'I' for Inactive)
REMARK    1  A    between atoms: C_1  and  C_2
REMARK    2  A    between atoms: C_6  and  C_7
REMARK    3  A    between atoms: C_9  and  N_10
REMARK    4  A    between atoms: C_11  and  C_12
REMARK    5  A    between atoms: C_14  and  O_15
REMARK    6  A    between atoms: O_15  and  C_16
REMARK    7  A    between atoms: C_18  and  O_19
REMARK    8  A    between atoms: O_19  and  C_20
REMARK                            x       y       z     vdW  Elec       q    Type
REMARK                         _______ _______ _______ _____ _____    ______ ____
ROOT
ATOM      1  C   UNL A   1      45.223 -22.042 -42.688  0.00  0.00    -0.046 C 
ATOM      2  C   UNL A   1      46.199 -21.212 -41.921  0.00  0.00    -0.085 C 
ATOM      3  C   UNL A   1      45.952 -20.357 -40.903  0.00  0.00    -0.035 C 
ATOM      4  C   UNL A   1      47.112 -19.587 -40.281  0.00  0.00    +0.006 C 
ATOM      5  C   UNL A   1      47.183 -19.778 -38.788  0.00  0.00    -0.077 C 
ATOM      6  C   UNL A   1      46.117 -20.131 -38.052  0.00  0.00    -0.073 C 
ATOM      7  C   UNL A   1      46.188 -20.331 -36.568  0.00  0.00    -0.044 C 
ATOM      8  C   UNL A   1      44.770 -20.361 -38.702  0.00  0.00    +0.001 C 
ATOM      9  C   UNL A   1      44.620 -19.987 -40.215  0.00  0.00    +0.113 C 
ATOM     10  C   UNL A   1      44.400 -18.483 -40.409  0.00  0.00    -0.000 C 
ATOM     11  C   UNL A   1      43.282 -17.844 -40.797  0.00  0.00    -0.068 C 
ATOM     12  C   UNL A   1      43.170 -16.352 -40.829  0.00  0.00    +0.045 C 
ATOM     13  C   UNL A   1      44.252 -15.731 -39.958  0.00  0.00    +0.240 C 
ATOM     14  O   UNL A   1      44.020 -14.737 -39.274  0.00  0.00    -0.273 OA
ATOM     15  N   UNL A   1      45.507 -16.279 -40.074  0.00  0.00    -0.185 NA
ATOM     16  C   UNL A   1      45.580 -17.556 -40.289  0.00  0.00    +0.040 C 
ATOM     17  C   UNL A   1      46.965 -18.105 -40.600  0.00  0.00    -0.002 C 
ENDROOT
BRANCH   9  18
ATOM     18  N   UNL A   1      43.533 -20.761 -40.836  0.00  0.00    -0.275 NA
ATOM     19  C   UNL A   1      42.410 -21.178 -40.384  0.00  0.00    +0.031 C 
BRANCH  19  20
ATOM     20  C   UNL A   1      41.785 -21.007 -39.067  0.00  0.00    -0.000 A 
ATOM     21  C   UNL A   1      41.203 -19.780 -38.754  0.00  0.00    -0.011 A 
ATOM     22  C   UNL A   1      40.545 -19.607 -37.535  0.00  0.00    +0.124 A 
ATOM     23  C   UNL A   1      40.457 -20.677 -36.639  0.00  0.00    +0.022 A 
ATOM     24  C   UNL A   1      40.999 -21.923 -36.976  0.00  0.00    +0.124 A 
ATOM     25  C   UNL A   1      41.635 -22.093 -38.208  0.00  0.00    -0.011 A 
BRANCH  22  26
ATOM     26  O   UNL A   1      40.030 -18.354 -37.348  0.00  0.00    -0.495 OA
ATOM     27  C   UNL A   1      40.772 -17.260 -37.873  0.00  0.00    +0.079 C 
ENDBRANCH  22  26
BRANCH  24  28
ATOM     28  O   UNL A   1      40.961 -23.049 -36.199  0.00  0.00    -0.495 OA
ATOM     29  C   UNL A   1      40.218 -22.975 -34.987  0.00  0.00    +0.079 C 
ENDBRANCH  24  28
ENDBRANCH  19  20
ENDBRANCH   9  18
TORSDOF 4
ENDMDL
MODEL 5
REMARK VINA RESULT:    -6.535     18.840     22.027
REMARK INTER + INTRA:          -8.895
REMARK INTER:                  -8.147
REMARK INTRA:                  -0.749
REMARK UNBOUND:                -0.832
REMARK  Name = cpd121.pdb
REMARK  8 active torsions:
REMARK  status: ('A' for Active; 'I' for Inactive)
REMARK    1  A    between atoms: C_1  and  C_2
REMARK    2  A    between atoms: C_6  and  C_7
REMARK    3  A    between atoms: C_9  and  N_10
REMARK    4  A    between atoms: C_11  and  C_12
REMARK    5  A    between atoms: C_14  and  O_15
REMARK    6  A    between atoms: O_15  and  C_16
REMARK    7  A    between atoms: C_18  and  O_19
REMARK    8  A    between atoms: O_19  and  C_20
REMARK                            x       y       z     vdW  Elec       q    Type
REMARK                         _______ _______ _______ _____ _____    ______ ____
ROOT
ATOM      1  C   UNL A   1      47.271 -17.453 -35.959  0.00  0.00    -0.046 C 
ATOM      2  C   UNL A   1      47.138 -17.055 -37.392  0.00  0.00    -0.085 C 
ATOM      3  C   UNL A   1      46.384 -17.633 -38.354  0.00  0.00    -0.035 C 
ATOM      4  C   UNL A   1      46.425 -17.067 -39.770  0.00  0.00    +0.006 C 
ATOM      5  C   UNL A   1      45.049 -16.731 -40.286  0.00  0.00    -0.077 C 
ATOM      6  C   UNL A   1      43.936 -17.307 -39.806  0.00  0.00    -0.073 C 
ATOM      7  C   UNL A   1      42.566 -16.967 -40.311  0.00  0.00    -0.044 C 
ATOM      8  C   UNL A   1      44.013 -18.339 -38.701  0.00  0.00    +0.001 C 
ATOM      9  C   UNL A   1      45.433 -18.846 -38.279  0.00  0.00    +0.113 C 
ATOM     10  C   UNL A   1      45.964 -19.913 -39.242  0.00  0.00    -0.000 C 
ATOM     11  C   UNL A   1      46.128 -21.230 -39.024  0.00  0.00    -0.068 C 
ATOM     12  C   UNL A   1      46.546 -22.184 -40.098  0.00  0.00    +0.045 C 
ATOM     13  C   UNL A   1      46.294 -21.568 -41.467  0.00  0.00    +0.240 C 
ATOM     14  O   UNL A   1      45.886 -22.251 -42.403  0.00  0.00    -0.273 OA
ATOM     15  N   UNL A   1      46.655 -20.249 -41.610  0.00  0.00    -0.185 NA
ATOM     16  C   UNL A   1      46.508 -19.478 -40.577  0.00  0.00    +0.040 C 
ATOM     17  C   UNL A   1      47.087 -18.076 -40.699  0.00  0.00    -0.002 C 
ENDROOT
BRANCH   9  18
ATOM     18  N   UNL A   1      45.414 -19.350 -36.896  0.00  0.00    -0.275 NA
ATOM     19  C   UNL A   1      44.480 -19.853 -36.179  0.00  0.00    +0.031 C 
BRANCH  19  20
ATOM     20  C   UNL A   1      43.075 -20.136 -36.497  0.00  0.00    -0.000 A 
ATOM     21  C   UNL A   1      42.771 -21.271 -37.246  0.00  0.00    -0.011 A 
ATOM     22  C   UNL A   1      41.441 -21.601 -37.509  0.00  0.00    +0.124 A 
ATOM     23  C   UNL A   1      40.415 -20.797 -37.002  0.00  0.00    +0.022 A 
ATOM     24  C   UNL A   1      40.720 -19.684 -36.210  0.00  0.00    +0.124 A 
ATOM     25  C   UNL A   1      42.054 -19.376 -35.932  0.00  0.00    -0.011 A 
BRANCH  22  26
ATOM     26  O   UNL A   1      41.282 -22.731 -38.263  0.00  0.00    -0.495 OA
ATOM     27  C   UNL A   1      41.052 -22.559 -39.656  0.00  0.00    +0.079 C 
ENDBRANCH  22  26
BRANCH  24  28
ATOM     28  O   UNL A   1      39.813 -18.834 -35.641  0.00  0.00    -0.495 OA
ATOM     29  C   UNL A   1      40.321 -17.843 -34.754  0.00  0.00    +0.079 C 
ENDBRANCH  24  28
ENDBRANCH  19  20
ENDBRANCH   9  18
TORSDOF 4
ENDMDL
MODEL 6
REMARK VINA RESULT:    -6.436     19.619     22.748
REMARK INTER + INTRA:          -8.773
REMARK INTER:                  -8.411
REMARK INTRA:                  -0.362
REMARK UNBOUND:                -0.832
REMARK  Name = cpd121.pdb
REMARK  8 active torsions:
REMARK  status: ('A' for Active; 'I' for Inactive)
REMARK    1  A    between atoms: C_1  and  C_2
REMARK    2  A    between atoms: C_6  and  C_7
REMARK    3  A    between atoms: C_9  and  N_10
REMARK    4  A    between atoms: C_11  and  C_12
REMARK    5  A    between atoms: C_14  and  O_15
REMARK    6  A    between atoms: O_15  and  C_16
REMARK    7  A    between atoms: C_18  and  O_19
REMARK    8  A    between atoms: O_19  and  C_20
REMARK                            x       y       z     vdW  Elec       q    Type
REMARK                         _______ _______ _______ _____ _____    ______ ____
ROOT
ATOM      1  C   UNL A   1      41.078 -22.185 -39.817  0.00  0.00    -0.046 C 
ATOM      2  C   UNL A   1      42.154 -21.933 -40.821  0.00  0.00    -0.085 C 
ATOM      3  C   UNL A   1      43.264 -21.172 -40.685  0.00  0.00    -0.035 C 
ATOM      4  C   UNL A   1      44.221 -21.036 -41.865  0.00  0.00    +0.006 C 
ATOM      5  C   UNL A   1      45.634 -21.403 -41.492  0.00  0.00    -0.077 C 
ATOM      6  C   UNL A   1      46.086 -21.354 -40.230  0.00  0.00    -0.073 C 
ATOM      7  C   UNL A   1      47.489 -21.728 -39.856  0.00  0.00    -0.044 C 
ATOM      8  C   UNL A   1      45.178 -20.922 -39.099  0.00  0.00    +0.001 C 
ATOM      9  C   UNL A   1      43.768 -20.355 -39.476  0.00  0.00    +0.113 C 
ATOM     10  C   UNL A   1      43.844 -18.886 -39.908  0.00  0.00    -0.000 C 
ATOM     11  C   UNL A   1      43.402 -17.798 -39.253  0.00  0.00    -0.068 C 
ATOM     12  C   UNL A   1      43.650 -16.404 -39.738  0.00  0.00    +0.045 C 
ATOM     13  C   UNL A   1      44.804 -16.396 -40.730  0.00  0.00    +0.240 C 
ATOM     14  O   UNL A   1      45.622 -15.479 -40.742  0.00  0.00    -0.273 OA
ATOM     15  N   UNL A   1      44.803 -17.405 -41.664  0.00  0.00    -0.185 NA
ATOM     16  C   UNL A   1      44.352 -18.562 -41.288  0.00  0.00    +0.040 C 
ATOM     17  C   UNL A   1      44.184 -19.605 -42.384  0.00  0.00    -0.002 C 
ENDROOT
BRANCH   9  18
ATOM     18  N   UNL A   1      42.824 -20.526 -38.360  0.00  0.00    -0.275 NA
ATOM     19  C   UNL A   1      42.884 -20.188 -37.126  0.00  0.00    +0.031 C 
BRANCH  19  20
ATOM     20  C   UNL A   1      43.926 -19.474 -36.378  0.00  0.00    -0.000 A 
ATOM     21  C   UNL A   1      43.641 -18.207 -35.873  0.00  0.00    -0.011 A 
ATOM     22  C   UNL A   1      44.588 -17.531 -35.104  0.00  0.00    +0.124 A 
ATOM     23  C   UNL A   1      45.817 -18.138 -34.827  0.00  0.00    +0.022 A 
ATOM     24  C   UNL A   1      46.083 -19.430 -35.295  0.00  0.00    +0.124 A 
ATOM     25  C   UNL A   1      45.119 -20.109 -36.045  0.00  0.00    -0.011 A 
BRANCH  22  26
ATOM     26  O   UNL A   1      44.187 -16.293 -34.680  0.00  0.00    -0.495 OA
ATOM     27  C   UNL A   1      43.364 -16.236 -33.522  0.00  0.00    +0.079 C 
ENDBRANCH  22  26
BRANCH  24  28
ATOM     28  O   UNL A   1      47.233 -20.139 -35.077  0.00  0.00    -0.495 OA
ATOM     29  C   UNL A   1      48.415 -19.392 -34.817  0.00  0.00    +0.079 C 
ENDBRANCH  24  28
ENDBRANCH  19  20
ENDBRANCH   9  18
TORSDOF 4
ENDMDL
MODEL 7
REMARK VINA RESULT:    -6.408      2.421      3.970
REMARK INTER + INTRA:          -8.739
REMARK INTER:                  -8.466
REMARK INTRA:                  -0.273
REMARK UNBOUND:                -0.832
REMARK  Name = cpd121.pdb
REMARK  8 active torsions:
REMARK  status: ('A' for Active; 'I' for Inactive)
REMARK    1  A    between atoms: C_1  and  C_2
REMARK    2  A    between atoms: C_6  and  C_7
REMARK    3  A    between atoms: C_9  and  N_10
REMARK    4  A    between atoms: C_11  and  C_12
REMARK    5  A    between atoms: C_14  and  O_15
REMARK    6  A    between atoms: O_15  and  C_16
REMARK    7  A    between atoms: C_18  and  O_19
REMARK    8  A    between atoms: O_19  and  C_20
REMARK                            x       y       z     vdW  Elec       q    Type
REMARK                         _______ _______ _______ _____ _____    ______ ____
ROOT
ATOM      1  C   UNL A   1      37.794 -38.236 -27.870  0.00  0.00    -0.046 C 
ATOM      2  C   UNL A   1      37.414 -39.185 -28.959  0.00  0.00    -0.085 C 
ATOM      3  C   UNL A   1      36.175 -39.492 -29.406  0.00  0.00    -0.035 C 
ATOM      4  C   UNL A   1      36.023 -40.520 -30.523  0.00  0.00    +0.006 C 
ATOM      5  C   UNL A   1      35.227 -39.980 -31.684  0.00  0.00    -0.077 C 
ATOM      6  C   UNL A   1      34.356 -38.967 -31.556  0.00  0.00    -0.073 C 
ATOM      7  C   UNL A   1      33.571 -38.423 -32.712  0.00  0.00    -0.044 C 
ATOM      8  C   UNL A   1      34.131 -38.305 -30.214  0.00  0.00    +0.001 C 
ATOM      9  C   UNL A   1      34.796 -38.963 -28.959  0.00  0.00    +0.113 C 
ATOM     10  C   UNL A   1      33.984 -40.158 -28.448  0.00  0.00    -0.000 C 
ATOM     11  C   UNL A   1      33.256 -40.255 -27.322  0.00  0.00    -0.068 C 
ATOM     12  C   UNL A   1      32.410 -41.448 -27.002  0.00  0.00    +0.045 C 
ATOM     13  C   UNL A   1      32.137 -42.245 -28.269  0.00  0.00    +0.240 C 
ATOM     14  O   UNL A   1      31.042 -42.767 -28.464  0.00  0.00    -0.273 OA
ATOM     15  N   UNL A   1      33.210 -42.430 -29.108  0.00  0.00    -0.185 NA
ATOM     16  C   UNL A   1      34.074 -41.465 -29.190  0.00  0.00    +0.040 C 
ATOM     17  C   UNL A   1      35.343 -41.766 -29.973  0.00  0.00    -0.002 C 
ENDROOT
BRANCH   9  18
ATOM     18  N   UNL A   1      34.992 -37.967 -27.893  0.00  0.00    -0.275 NA
ATOM     19  C   UNL A   1      35.190 -36.703 -27.926  0.00  0.00    +0.031 C 
BRANCH  19  20
ATOM     20  C   UNL A   1      35.269 -35.775 -29.061  0.00  0.00    -0.000 A 
ATOM     21  C   UNL A   1      34.279 -34.805 -29.206  0.00  0.00    -0.011 A 
ATOM     22  C   UNL A   1      34.362 -33.869 -30.238  0.00  0.00    +0.124 A 
ATOM     23  C   UNL A   1      35.452 -33.898 -31.113  0.00  0.00    +0.022 A 
ATOM     24  C   UNL A   1      36.470 -34.842 -30.937  0.00  0.00    +0.124 A 
ATOM     25  C   UNL A   1      36.390 -35.760 -29.887  0.00  0.00    -0.011 A 
BRANCH  22  26
ATOM     26  O   UNL A   1      33.321 -32.981 -30.274  0.00  0.00    -0.495 OA
ATOM     27  C   UNL A   1      32.285 -33.152 -29.316  0.00  0.00    +0.079 C 
ENDBRANCH  22  26
BRANCH  24  28
ATOM     28  O   UNL A   1      37.593 -34.962 -31.708  0.00  0.00    -0.495 OA
ATOM     29  C   UNL A   1      38.671 -35.719 -31.170  0.00  0.00    +0.079 C 
ENDBRANCH  24  28
ENDBRANCH  19  20
ENDBRANCH   9  18
TORSDOF 4
ENDMDL
MODEL 8
REMARK VINA RESULT:    -6.387     19.012     22.143
REMARK INTER + INTRA:          -8.713
REMARK INTER:                  -8.031
REMARK INTRA:                  -0.681
REMARK UNBOUND:                -0.832
REMARK  Name = cpd121.pdb
REMARK  8 active torsions:
REMARK  status: ('A' for Active; 'I' for Inactive)
REMARK    1  A    between atoms: C_1  and  C_2
REMARK    2  A    between atoms: C_6  and  C_7
REMARK    3  A    between atoms: C_9  and  N_10
REMARK    4  A    between atoms: C_11  and  C_12
REMARK    5  A    between atoms: C_14  and  O_15
REMARK    6  A    between atoms: O_15  and  C_16
REMARK    7  A    between atoms: C_18  and  O_19
REMARK    8  A    between atoms: O_19  and  C_20
REMARK                            x       y       z     vdW  Elec       q    Type
REMARK                         _______ _______ _______ _____ _____    ______ ____
ROOT
ATOM      1  C   UNL A   1      47.271 -17.362 -35.984  0.00  0.00    -0.046 C 
ATOM      2  C   UNL A   1      47.156 -16.990 -37.426  0.00  0.00    -0.085 C 
ATOM      3  C   UNL A   1      46.384 -17.560 -38.378  0.00  0.00    -0.035 C 
ATOM      4  C   UNL A   1      46.448 -17.026 -39.806  0.00  0.00    +0.006 C 
ATOM      5  C   UNL A   1      45.087 -16.652 -40.332  0.00  0.00    -0.077 C 
ATOM      6  C   UNL A   1      43.952 -17.176 -39.844  0.00  0.00    -0.073 C 
ATOM      7  C   UNL A   1      42.596 -16.797 -40.360  0.00  0.00    -0.044 C 
ATOM      8  C   UNL A   1      43.989 -18.186 -38.717  0.00  0.00    +0.001 C 
ATOM      9  C   UNL A   1      45.388 -18.736 -38.280  0.00  0.00    +0.113 C 
ATOM     10  C   UNL A   1      45.882 -19.842 -39.219  0.00  0.00    -0.000 C 
ATOM     11  C   UNL A   1      45.997 -21.159 -38.972  0.00  0.00    -0.068 C 
ATOM     12  C   UNL A   1      46.382 -22.150 -40.025  0.00  0.00    +0.045 C 
ATOM     13  C   UNL A   1      46.156 -21.555 -41.407  0.00  0.00    +0.240 C 
ATOM     14  O   UNL A   1      45.725 -22.243 -42.329  0.00  0.00    -0.273 OA
ATOM     15  N   UNL A   1      46.565 -20.254 -41.577  0.00  0.00    -0.185 NA
ATOM     16  C   UNL A   1      46.445 -19.456 -40.560  0.00  0.00    +0.040 C 
ATOM     17  C   UNL A   1      47.075 -18.078 -40.711  0.00  0.00    -0.002 C 
ENDROOT
BRANCH   9  18
ATOM     18  N   UNL A   1      45.348 -19.209 -36.887  0.00  0.00    -0.275 NA
ATOM     19  C   UNL A   1      44.425 -19.767 -36.197  0.00  0.00    +0.031 C 
BRANCH  19  20
ATOM     20  C   UNL A   1      43.060 -20.164 -36.566  0.00  0.00    -0.000 A 
ATOM     21  C   UNL A   1      41.997 -19.347 -36.188  0.00  0.00    -0.011 A 
ATOM     22  C   UNL A   1      40.696 -19.664 -36.579  0.00  0.00    +0.124 A 
ATOM     23  C   UNL A   1      40.467 -20.796 -37.368  0.00  0.00    +0.022 A 
ATOM     24  C   UNL A   1      41.542 -21.589 -37.788  0.00  0.00    +0.124 A 
ATOM     25  C   UNL A   1      42.843 -21.250 -37.410  0.00  0.00    -0.011 A 
BRANCH  22  26
ATOM     26  O   UNL A   1      39.746 -18.787 -36.132  0.00  0.00    -0.495 OA
ATOM     27  C   UNL A   1      39.405 -18.844 -34.753  0.00  0.00    +0.079 C 
ENDBRANCH  22  26
BRANCH  24  28
ATOM     28  O   UNL A   1      41.454 -22.705 -38.574  0.00  0.00    -0.495 OA
ATOM     29  C   UNL A   1      41.166 -22.504 -39.954  0.00  0.00    +0.079 C 
ENDBRANCH  24  28
ENDBRANCH  19  20
ENDBRANCH   9  18
TORSDOF 4
ENDMDL
MODEL 9
REMARK VINA RESULT:    -6.330      2.569      5.218
REMARK INTER + INTRA:          -8.642
REMARK INTER:                  -8.338
REMARK INTRA:                  -0.304
REMARK UNBOUND:                -0.832
REMARK  Name = cpd121.pdb
REMARK  8 active torsions:
REMARK  status: ('A' for Active; 'I' for Inactive)
REMARK    1  A    between atoms: C_1  and  C_2
REMARK    2  A    between atoms: C_6  and  C_7
REMARK    3  A    between atoms: C_9  and  N_10
REMARK    4  A    between atoms: C_11  and  C_12
REMARK    5  A    between atoms: C_14  and  O_15
REMARK    6  A    between atoms: O_15  and  C_16
REMARK    7  A    between atoms: C_18  and  O_19
REMARK    8  A    between atoms: O_19  and  C_20
REMARK                            x       y       z     vdW  Elec       q    Type
REMARK                         _______ _______ _______ _____ _____    ______ ____
ROOT
ATOM      1  C   UNL A   1      37.036 -41.796 -28.307  0.00  0.00    -0.046 C 
ATOM      2  C   UNL A   1      35.620 -41.681 -28.767  0.00  0.00    -0.085 C 
ATOM      3  C   UNL A   1      34.941 -40.563 -29.112  0.00  0.00    -0.035 C 
ATOM      4  C   UNL A   1      33.479 -40.682 -29.531  0.00  0.00    +0.006 C 
ATOM      5  C   UNL A   1      33.223 -40.055 -30.878  0.00  0.00    -0.077 C 
ATOM      6  C   UNL A   1      34.011 -39.099 -31.393  0.00  0.00    -0.073 C 
ATOM      7  C   UNL A   1      33.763 -38.481 -32.736  0.00  0.00    -0.044 C 
ATOM      8  C   UNL A   1      35.219 -38.599 -30.631  0.00  0.00    +0.001 C 
ATOM      9  C   UNL A   1      35.403 -39.091 -29.156  0.00  0.00    +0.113 C 
ATOM     10  C   UNL A   1      34.524 -38.300 -28.180  0.00  0.00    -0.000 C 
ATOM     11  C   UNL A   1      34.902 -37.401 -27.254  0.00  0.00    -0.068 C 
ATOM     12  C   UNL A   1      33.923 -36.609 -26.445  0.00  0.00    +0.045 C 
ATOM     13  C   UNL A   1      32.561 -36.617 -27.125  0.00  0.00    +0.240 C 
ATOM     14  O   UNL A   1      31.850 -35.615 -27.128  0.00  0.00    -0.273 OA
ATOM     15  N   UNL A   1      32.144 -37.828 -27.624  0.00  0.00    -0.185 NA
ATOM     16  C   UNL A   1      33.054 -38.615 -28.111  0.00  0.00    +0.040 C 
ATOM     17  C   UNL A   1      32.597 -40.019 -28.482  0.00  0.00    -0.002 C 
ENDROOT
BRANCH   9  18
ATOM     18  N   UNL A   1      36.818 -39.025 -28.759  0.00  0.00    -0.275 NA
ATOM     19  C   UNL A   1      37.761 -38.217 -29.072  0.00  0.00    +0.031 C 
BRANCH  19  20
ATOM     20  C   UNL A   1      37.756 -37.029 -29.935  0.00  0.00    -0.000 A 
ATOM     21  C   UNL A   1      38.676 -36.953 -30.978  0.00  0.00    -0.011 A 
ATOM     22  C   UNL A   1      38.654 -35.867 -31.854  0.00  0.00    +0.124 A 
ATOM     23  C   UNL A   1      37.691 -34.865 -31.690  0.00  0.00    +0.022 A 
ATOM     24  C   UNL A   1      36.737 -34.967 -30.671  0.00  0.00    +0.124 A 
ATOM     25  C   UNL A   1      36.753 -36.070 -29.814  0.00  0.00    -0.011 A 
BRANCH  22  26
ATOM     26  O   UNL A   1      39.616 -35.909 -32.825  0.00  0.00    -0.495 OA
ATOM     27  C   UNL A   1      40.930 -36.279 -32.424  0.00  0.00    +0.079 C 
ENDBRANCH  22  26
BRANCH  24  28
ATOM     28  O   UNL A   1      35.736 -34.070 -30.419  0.00  0.00    -0.495 OA
ATOM     29  C   UNL A   1      34.547 -34.577 -29.824  0.00  0.00    +0.079 C 
ENDBRANCH  24  28
ENDBRANCH  19  20
ENDBRANCH   9  18
TORSDOF 4
ENDMDL
MODEL 10
REMARK VINA RESULT:    -6.309      2.893      6.553
REMARK INTER + INTRA:          -8.616
REMARK INTER:                  -7.774
REMARK INTRA:                  -0.842
REMARK UNBOUND:                -0.832
REMARK  Name = cpd121.pdb
REMARK  8 active torsions:
REMARK  status: ('A' for Active; 'I' for Inactive)
REMARK    1  A    between atoms: C_1  and  C_2
REMARK    2  A    between atoms: C_6  and  C_7
REMARK    3  A    between atoms: C_9  and  N_10
REMARK    4  A    between atoms: C_11  and  C_12
REMARK    5  A    between atoms: C_14  and  O_15
REMARK    6  A    between atoms: O_15  and  C_16
REMARK    7  A    between atoms: C_18  and  O_19
REMARK    8  A    between atoms: O_19  and  C_20
REMARK                            x       y       z     vdW  Elec       q    Type
REMARK                         _______ _______ _______ _____ _____    ______ ____
ROOT
ATOM      1  C   UNL A   1      38.575 -37.896 -29.040  0.00  0.00    -0.046 C 
ATOM      2  C   UNL A   1      37.429 -36.974 -28.785  0.00  0.00    -0.085 C 
ATOM      3  C   UNL A   1      36.106 -37.239 -28.872  0.00  0.00    -0.035 C 
ATOM      4  C   UNL A   1      35.104 -36.124 -28.589  0.00  0.00    +0.006 C 
ATOM      5  C   UNL A   1      34.101 -36.518 -27.536  0.00  0.00    -0.077 C 
ATOM      6  C   UNL A   1      33.802 -37.798 -27.263  0.00  0.00    -0.073 C 
ATOM      7  C   UNL A   1      32.812 -38.191 -26.208  0.00  0.00    -0.044 C 
ATOM      8  C   UNL A   1      34.476 -38.926 -28.014  0.00  0.00    +0.001 C 
ATOM      9  C   UNL A   1      35.375 -38.549 -29.238  0.00  0.00    +0.113 C 
ATOM     10  C   UNL A   1      34.540 -38.280 -30.494  0.00  0.00    -0.000 C 
ATOM     11  C   UNL A   1      34.441 -39.026 -31.609  0.00  0.00    -0.068 C 
ATOM     12  C   UNL A   1      33.489 -38.704 -32.718  0.00  0.00    +0.045 C 
ATOM     13  C   UNL A   1      32.398 -37.770 -32.213  0.00  0.00    +0.240 C 
ATOM     14  O   UNL A   1      31.236 -37.892 -32.591  0.00  0.00    -0.273 OA
ATOM     15  N   UNL A   1      32.816 -36.735 -31.410  0.00  0.00    -0.185 NA
ATOM     16  C   UNL A   1      33.814 -36.966 -30.614  0.00  0.00    +0.040 C 
ATOM     17  C   UNL A   1      34.377 -35.759 -29.877  0.00  0.00    -0.002 C 
ENDROOT
BRANCH   9  18
ATOM     18  N   UNL A   1      36.377 -39.598 -29.488  0.00  0.00    -0.275 NA
ATOM     19  C   UNL A   1      36.338 -40.871 -29.358  0.00  0.00    +0.031 C 
BRANCH  19  20
ATOM     20  C   UNL A   1      35.248 -41.756 -28.928  0.00  0.00    -0.000 A 
ATOM     21  C   UNL A   1      34.196 -42.002 -29.807  0.00  0.00    -0.011 A 
ATOM     22  C   UNL A   1      33.179 -42.889 -29.452  0.00  0.00    +0.124 A 
ATOM     23  C   UNL A   1      33.232 -43.544 -28.217  0.00  0.00    +0.022 A 
ATOM     24  C   UNL A   1      34.314 -43.333 -27.355  0.00  0.00    +0.124 A 
ATOM     25  C   UNL A   1      35.339 -42.461 -27.730  0.00  0.00    -0.011 A 
BRANCH  22  26
ATOM     26  O   UNL A   1      32.202 -43.031 -30.399  0.00  0.00    -0.495 OA
ATOM     27  C   UNL A   1      31.957 -41.922 -31.254  0.00  0.00    +0.079 C 
ENDBRANCH  22  26
BRANCH  24  28
ATOM     28  O   UNL A   1      34.493 -43.924 -26.135  0.00  0.00    -0.495 OA
ATOM     29  C   UNL A   1      33.376 -44.608 -25.577  0.00  0.00    +0.079 C 
ENDBRANCH  24  28
ENDBRANCH  19  20
ENDBRANCH   9  18
TORSDOF 4
ENDMDL
MODEL 11
REMARK VINA RESULT:    -6.303     21.165     23.806
REMARK INTER + INTRA:          -8.609
REMARK INTER:                  -7.835
REMARK INTRA:                  -0.774
REMARK UNBOUND:                -0.832
REMARK  Name = cpd121.pdb
REMARK  8 active torsions:
REMARK  status: ('A' for Active; 'I' for Inactive)
REMARK    1  A    between atoms: C_1  and  C_2
REMARK    2  A    between atoms: C_6  and  C_7
REMARK    3  A    between atoms: C_9  and  N_10
REMARK    4  A    between atoms: C_11  and  C_12
REMARK    5  A    between atoms: C_14  and  O_15
REMARK    6  A    between atoms: O_15  and  C_16
REMARK    7  A    between atoms: C_18  and  O_19
REMARK    8  A    between atoms: O_19  and  C_20
REMARK                            x       y       z     vdW  Elec       q    Type
REMARK                         _______ _______ _______ _____ _____    ______ ____
ROOT
ATOM      1  C   UNL A   1      47.981 -14.677 -39.224  0.00  0.00    -0.046 C 
ATOM      2  C   UNL A   1      47.396 -15.107 -37.919  0.00  0.00    -0.085 C 
ATOM      3  C   UNL A   1      46.596 -16.170 -37.671  0.00  0.00    -0.035 C 
ATOM      4  C   UNL A   1      46.090 -16.403 -36.251  0.00  0.00    +0.006 C 
ATOM      5  C   UNL A   1      46.411 -17.789 -35.755  0.00  0.00    -0.077 C 
ATOM      6  C   UNL A   1      46.635 -18.820 -36.584  0.00  0.00    -0.073 C 
ATOM      7  C   UNL A   1      46.965 -20.198 -36.093  0.00  0.00    -0.044 C 
ATOM      8  C   UNL A   1      46.577 -18.633 -38.085  0.00  0.00    +0.001 C 
ATOM      9  C   UNL A   1      46.061 -17.258 -38.626  0.00  0.00    +0.113 C 
ATOM     10  C   UNL A   1      44.531 -17.179 -38.608  0.00  0.00    -0.000 C 
ATOM     11  C   UNL A   1      43.681 -17.186 -39.650  0.00  0.00    -0.068 C 
ATOM     12  C   UNL A   1      42.194 -17.225 -39.484  0.00  0.00    +0.045 C 
ATOM     13  C   UNL A   1      41.840 -17.715 -38.087  0.00  0.00    +0.240 C 
ATOM     14  O   UNL A   1      40.880 -18.459 -37.902  0.00  0.00    -0.273 OA
ATOM     15  N   UNL A   1      42.584 -17.189 -37.057  0.00  0.00    -0.185 NA
ATOM     16  C   UNL A   1      43.833 -16.933 -37.297  0.00  0.00    +0.040 C 
ATOM     17  C   UNL A   1      44.584 -16.180 -36.208  0.00  0.00    -0.002 C 
ENDROOT
BRANCH   9  18
ATOM     18  N   UNL A   1      46.584 -17.003 -39.977  0.00  0.00    -0.275 NA
ATOM     19  C   UNL A   1      46.769 -17.771 -40.985  0.00  0.00    +0.031 C 
BRANCH  19  20
ATOM     20  C   UNL A   1      46.495 -19.202 -41.161  0.00  0.00    -0.000 A 
ATOM     21  C   UNL A   1      45.176 -19.618 -41.331  0.00  0.00    -0.011 A 
ATOM     22  C   UNL A   1      44.890 -20.963 -41.565  0.00  0.00    +0.124 A 
ATOM     23  C   UNL A   1      45.935 -21.889 -41.647  0.00  0.00    +0.022 A 
ATOM     24  C   UNL A   1      47.262 -21.463 -41.525  0.00  0.00    +0.124 A 
ATOM     25  C   UNL A   1      47.540 -20.110 -41.314  0.00  0.00    -0.011 A 
BRANCH  22  26
ATOM     26  O   UNL A   1      43.556 -21.238 -41.701  0.00  0.00    -0.495 OA
ATOM     27  C   UNL A   1      42.726 -21.013 -40.569  0.00  0.00    +0.079 C 
ENDBRANCH  22  26
BRANCH  24  28
ATOM     28  O   UNL A   1      48.370 -22.261 -41.606  0.00  0.00    -0.495 OA
ATOM     29  C   UNL A   1      48.156 -23.638 -41.896  0.00  0.00    +0.079 C 
ENDBRANCH  24  28
ENDBRANCH  19  20
ENDBRANCH   9  18
TORSDOF 4
ENDMDL
MODEL 12
REMARK VINA RESULT:    -6.236     18.348     22.241
REMARK INTER + INTRA:          -8.526
REMARK INTER:                  -7.868
REMARK INTRA:                  -0.658
REMARK UNBOUND:                -0.832
REMARK  Name = cpd121.pdb
REMARK  8 active torsions:
REMARK  status: ('A' for Active; 'I' for Inactive)
REMARK    1  A    between atoms: C_1  and  C_2
REMARK    2  A    between atoms: C_6  and  C_7
REMARK    3  A    between atoms: C_9  and  N_10
REMARK    4  A    between atoms: C_11  and  C_12
REMARK    5  A    between atoms: C_14  and  O_15
REMARK    6  A    between atoms: O_15  and  C_16
REMARK    7  A    between atoms: C_18  and  O_19
REMARK    8  A    between atoms: O_19  and  C_20
REMARK                            x       y       z     vdW  Elec       q    Type
REMARK                         _______ _______ _______ _____ _____    ______ ____
ROOT
ATOM      1  C   UNL A   1      45.247 -21.991 -42.623  0.00  0.00    -0.046 C 
ATOM      2  C   UNL A   1      46.197 -21.186 -41.798  0.00  0.00    -0.085 C 
ATOM      3  C   UNL A   1      45.913 -20.326 -40.794  0.00  0.00    -0.035 C 
ATOM      4  C   UNL A   1      47.054 -19.587 -40.103  0.00  0.00    +0.006 C 
ATOM      5  C   UNL A   1      47.032 -19.781 -38.609  0.00  0.00    -0.077 C 
ATOM      6  C   UNL A   1      45.917 -20.107 -37.937  0.00  0.00    -0.073 C 
ATOM      7  C   UNL A   1      45.896 -20.311 -36.452  0.00  0.00    -0.044 C 
ATOM      8  C   UNL A   1      44.605 -20.302 -38.666  0.00  0.00    +0.001 C 
ATOM      9  C   UNL A   1      44.553 -19.923 -40.184  0.00  0.00    +0.113 C 
ATOM     10  C   UNL A   1      44.383 -18.414 -40.387  0.00  0.00    -0.000 C 
ATOM     11  C   UNL A   1      43.306 -17.747 -40.838  0.00  0.00    -0.068 C 
ATOM     12  C   UNL A   1      43.234 -16.252 -40.873  0.00  0.00    +0.045 C 
ATOM     13  C   UNL A   1      44.278 -15.659 -39.938  0.00  0.00    +0.240 C 
ATOM     14  O   UNL A   1      44.032 -14.660 -39.267  0.00  0.00    -0.273 OA
ATOM     15  N   UNL A   1      45.524 -16.239 -39.982  0.00  0.00    -0.185 NA
ATOM     16  C   UNL A   1      45.577 -17.518 -40.196  0.00  0.00    +0.040 C 
ATOM     17  C   UNL A   1      46.964 -18.102 -40.427  0.00  0.00    -0.002 C 
ENDROOT
BRANCH   9  18
ATOM     18  N   UNL A   1      43.486 -20.669 -40.869  0.00  0.00    -0.275 NA
ATOM     19  C   UNL A   1      42.332 -21.068 -40.481  0.00  0.00    +0.031 C 
BRANCH  19  20
ATOM     20  C   UNL A   1      41.642 -20.897 -39.196  0.00  0.00    -0.000 A 
ATOM     21  C   UNL A   1      41.491 -22.003 -38.363  0.00  0.00    -0.011 A 
ATOM     22  C   UNL A   1      40.897 -21.858 -37.108  0.00  0.00    +0.124 A 
ATOM     23  C   UNL A   1      40.472 -20.594 -36.685  0.00  0.00    +0.022 A 
ATOM     24  C   UNL A   1      40.669 -19.476 -37.504  0.00  0.00    +0.124 A 
ATOM     25  C   UNL A   1      41.286 -19.627 -38.748  0.00  0.00    -0.011 A 
BRANCH  22  26
ATOM     26  O   UNL A   1      40.799 -23.022 -36.396  0.00  0.00    -0.495 OA
ATOM     27  C   UNL A   1      39.604 -23.233 -35.655  0.00  0.00    +0.079 C 
ENDBRANCH  22  26
BRANCH  24  28
ATOM     28  O   UNL A   1      40.319 -18.189 -37.199  0.00  0.00    -0.495 OA
ATOM     29  C   UNL A   1      40.285 -17.256 -38.273  0.00  0.00    +0.079 C 
ENDBRANCH  24  28
ENDBRANCH  19  20
ENDBRANCH   9  18
TORSDOF 4
ENDMDL
MODEL 13
REMARK VINA RESULT:    -6.148     18.370     22.205
REMARK INTER + INTRA:          -8.418
REMARK INTER:                  -7.745
REMARK INTRA:                  -0.673
REMARK UNBOUND:                -0.832
REMARK  Name = cpd121.pdb
REMARK  8 active torsions:
REMARK  status: ('A' for Active; 'I' for Inactive)
REMARK    1  A    between atoms: C_1  and  C_2
REMARK    2  A    between atoms: C_6  and  C_7
REMARK    3  A    between atoms: C_9  and  N_10
REMARK    4  A    between atoms: C_11  and  C_12
REMARK    5  A    between atoms: C_14  and  O_15
REMARK    6  A    between atoms: O_15  and  C_16
REMARK    7  A    between atoms: C_18  and  O_19
REMARK    8  A    between atoms: O_19  and  C_20
REMARK                            x       y       z     vdW  Elec       q    Type
REMARK                         _______ _______ _______ _____ _____    ______ ____
ROOT
ATOM      1  C   UNL A   1      43.132 -15.858 -41.018  0.00  0.00    -0.046 C 
ATOM      2  C   UNL A   1      44.479 -16.502 -41.037  0.00  0.00    -0.085 C 
ATOM      3  C   UNL A   1      44.944 -17.494 -40.243  0.00  0.00    -0.035 C 
ATOM      4  C   UNL A   1      46.378 -17.982 -40.427  0.00  0.00    +0.006 C 
ATOM      5  C   UNL A   1      46.445 -19.473 -40.640  0.00  0.00    -0.077 C 
ATOM      6  C   UNL A   1      45.481 -20.308 -40.222  0.00  0.00    -0.073 C 
ATOM      7  C   UNL A   1      45.542 -21.790 -40.442  0.00  0.00    -0.044 C 
ATOM      8  C   UNL A   1      44.256 -19.780 -39.507  0.00  0.00    +0.001 C 
ATOM      9  C   UNL A   1      44.246 -18.267 -39.104  0.00  0.00    +0.113 C 
ATOM     10  C   UNL A   1      45.042 -18.017 -37.818  0.00  0.00    -0.000 C 
ATOM     11  C   UNL A   1      44.579 -17.689 -36.599  0.00  0.00    -0.068 C 
ATOM     12  C   UNL A   1      45.464 -17.591 -35.395  0.00  0.00    +0.045 C 
ATOM     13  C   UNL A   1      46.764 -18.342 -35.644  0.00  0.00    +0.240 C 
ATOM     14  O   UNL A   1      47.300 -18.992 -34.750  0.00  0.00    -0.273 OA
ATOM     15  N   UNL A   1      47.342 -18.153 -36.877  0.00  0.00    -0.185 NA
ATOM     16  C   UNL A   1      46.545 -17.996 -37.889  0.00  0.00    +0.040 C 
ATOM     17  C   UNL A   1      47.202 -17.602 -39.205  0.00  0.00    -0.002 C 
ENDROOT
BRANCH   9  18
ATOM     18  N   UNL A   1      42.866 -17.774 -38.971  0.00  0.00    -0.275 NA
ATOM     19  C   UNL A   1      41.820 -18.284 -38.437  0.00  0.00    +0.031 C 
BRANCH  19  20
ATOM     20  C   UNL A   1      41.630 -19.557 -37.731  0.00  0.00    -0.000 A 
ATOM     21  C   UNL A   1      41.412 -20.714 -38.477  0.00  0.00    -0.011 A 
ATOM     22  C   UNL A   1      41.292 -21.948 -37.837  0.00  0.00    +0.124 A 
ATOM     23  C   UNL A   1      41.410 -22.020 -36.445  0.00  0.00    +0.022 A 
ATOM     24  C   UNL A   1      41.678 -20.865 -35.701  0.00  0.00    +0.124 A 
ATOM     25  C   UNL A   1      41.819 -19.638 -36.354  0.00  0.00    -0.011 A 
BRANCH  22  26
ATOM     26  O   UNL A   1      41.068 -22.999 -38.683  0.00  0.00    -0.495 OA
ATOM     27  C   UNL A   1      41.015 -22.715 -40.075  0.00  0.00    +0.079 C 
ENDBRANCH  22  26
BRANCH  24  28
ATOM     28  O   UNL A   1      41.835 -20.805 -34.344  0.00  0.00    -0.495 OA
ATOM     29  C   UNL A   1      42.826 -19.913 -33.846  0.00  0.00    +0.079 C 
ENDBRANCH  24  28
ENDBRANCH  19  20
ENDBRANCH   9  18
TORSDOF 4
ENDMDL
MODEL 14
REMARK VINA RESULT:    -6.090      2.454      6.894
REMARK INTER + INTRA:          -8.346
REMARK INTER:                  -7.578
REMARK INTRA:                  -0.768
REMARK UNBOUND:                -0.832
REMARK  Name = cpd121.pdb
REMARK  8 active torsions:
REMARK  status: ('A' for Active; 'I' for Inactive)
REMARK    1  A    between atoms: C_1  and  C_2
REMARK    2  A    between atoms: C_6  and  C_7
REMARK    3  A    between atoms: C_9  and  N_10
REMARK    4  A    between atoms: C_11  and  C_12
REMARK    5  A    between atoms: C_14  and  O_15
REMARK    6  A    between atoms: O_15  and  C_16
REMARK    7  A    between atoms: C_18  and  O_19
REMARK    8  A    between atoms: O_19  and  C_20
REMARK                            x       y       z     vdW  Elec       q    Type
REMARK                         _______ _______ _______ _____ _____    ______ ____
ROOT
ATOM      1  C   UNL A   1      29.105 -35.578 -28.051  0.00  0.00    -0.046 C 
ATOM      2  C   UNL A   1      29.201 -35.215 -29.496  0.00  0.00    -0.085 C 
ATOM      3  C   UNL A   1      30.310 -35.138 -30.268  0.00  0.00    -0.035 C 
ATOM      4  C   UNL A   1      30.172 -34.717 -31.727  0.00  0.00    +0.006 C 
ATOM      5  C   UNL A   1      30.795 -35.717 -32.666  0.00  0.00    -0.077 C 
ATOM      6  C   UNL A   1      31.762 -36.565 -32.283  0.00  0.00    -0.073 C 
ATOM      7  C   UNL A   1      32.376 -37.567 -33.214  0.00  0.00    -0.044 C 
ATOM      8  C   UNL A   1      32.278 -36.559 -30.860  0.00  0.00    +0.001 C 
ATOM      9  C   UNL A   1      31.788 -35.411 -29.915  0.00  0.00    +0.113 C 
ATOM     10  C   UNL A   1      32.568 -34.112 -30.149  0.00  0.00    -0.000 C 
ATOM     11  C   UNL A   1      33.471 -33.523 -29.347  0.00  0.00    -0.068 C 
ATOM     12  C   UNL A   1      34.251 -32.312 -29.754  0.00  0.00    +0.045 C 
ATOM     13  C   UNL A   1      34.225 -32.163 -31.269  0.00  0.00    +0.240 C 
ATOM     14  O   UNL A   1      35.218 -31.781 -31.884  0.00  0.00    -0.273 OA
ATOM     15  N   UNL A   1      33.009 -32.373 -31.874  0.00  0.00    -0.185 NA
ATOM     16  C   UNL A   1      32.233 -33.274 -31.354  0.00  0.00    +0.040 C 
ATOM     17  C   UNL A   1      30.824 -33.355 -31.923  0.00  0.00    -0.002 C 
ENDROOT
BRANCH   9  18
ATOM     18  N   UNL A   1      31.872 -35.827 -28.506  0.00  0.00    -0.275 NA
ATOM     19  C   UNL A   1      32.666 -36.621 -27.892  0.00  0.00    +0.031 C 
BRANCH  19  20
ATOM     20  C   UNL A   1      33.814 -37.395 -28.381  0.00  0.00    -0.000 A 
ATOM     21  C   UNL A   1      35.073 -36.798 -28.387  0.00  0.00    -0.011 A 
ATOM     22  C   UNL A   1      36.193 -37.529 -28.785  0.00  0.00    +0.124 A 
ATOM     23  C   UNL A   1      36.048 -38.868 -29.160  0.00  0.00    +0.022 A 
ATOM     24  C   UNL A   1      34.790 -39.481 -29.107  0.00  0.00    +0.124 A 
ATOM     25  C   UNL A   1      33.679 -38.747 -28.685  0.00  0.00    -0.011 A 
BRANCH  22  26
ATOM     26  O   UNL A   1      37.364 -36.822 -28.756  0.00  0.00    -0.495 OA
ATOM     27  C   UNL A   1      38.282 -37.038 -29.820  0.00  0.00    +0.079 C 
ENDBRANCH  22  26
BRANCH  24  28
ATOM     28  O   UNL A   1      34.520 -40.783 -29.427  0.00  0.00    -0.495 OA
ATOM     29  C   UNL A   1      33.670 -41.012 -30.545  0.00  0.00    +0.079 C 
ENDBRANCH  24  28
ENDBRANCH  19  20
ENDBRANCH   9  18
TORSDOF 4
ENDMDL
MODEL 15
REMARK VINA RESULT:    -6.045     18.013     22.099
REMARK INTER + INTRA:          -8.291
REMARK INTER:                  -7.566
REMARK INTRA:                  -0.724
REMARK UNBOUND:                -0.832
REMARK  Name = cpd121.pdb
REMARK  8 active torsions:
REMARK  status: ('A' for Active; 'I' for Inactive)
REMARK    1  A    between atoms: C_1  and  C_2
REMARK    2  A    between atoms: C_6  and  C_7
REMARK    3  A    between atoms: C_9  and  N_10
REMARK    4  A    between atoms: C_11  and  C_12
REMARK    5  A    between atoms: C_14  and  O_15
REMARK    6  A    between atoms: O_15  and  C_16
REMARK    7  A    between atoms: C_18  and  O_19
REMARK    8  A    between atoms: O_19  and  C_20
REMARK                            x       y       z     vdW  Elec       q    Type
REMARK                         _______ _______ _______ _____ _____    ______ ____
ROOT
ATOM      1  C   UNL A   1      42.911 -15.772 -40.661  0.00  0.00    -0.046 C 
ATOM      2  C   UNL A   1      44.233 -16.458 -40.769  0.00  0.00    -0.085 C 
ATOM      3  C   UNL A   1      44.716 -17.466 -40.008  0.00  0.00    -0.035 C 
ATOM      4  C   UNL A   1      46.119 -17.999 -40.285  0.00  0.00    +0.006 C 
ATOM      5  C   UNL A   1      46.125 -19.490 -40.506  0.00  0.00    -0.077 C 
ATOM      6  C   UNL A   1      45.164 -20.296 -40.029  0.00  0.00    -0.073 C 
ATOM      7  C   UNL A   1      45.164 -21.778 -40.256  0.00  0.00    -0.044 C 
ATOM      8  C   UNL A   1      44.005 -19.733 -39.235  0.00  0.00    +0.001 C 
ATOM      9  C   UNL A   1      44.069 -18.222 -38.829  0.00  0.00    +0.113 C 
ATOM     10  C   UNL A   1      44.952 -18.003 -37.596  0.00  0.00    -0.000 C 
ATOM     11  C   UNL A   1      44.580 -17.666 -36.349  0.00  0.00    -0.068 C 
ATOM     12  C   UNL A   1      45.542 -17.602 -35.204  0.00  0.00    +0.045 C 
ATOM     13  C   UNL A   1      46.800 -18.392 -35.538  0.00  0.00    +0.240 C 
ATOM     14  O   UNL A   1      47.371 -19.062 -34.682  0.00  0.00    -0.273 OA
ATOM     15  N   UNL A   1      47.303 -18.216 -36.805  0.00  0.00    -0.185 NA
ATOM     16  C   UNL A   1      46.448 -18.029 -37.763  0.00  0.00    +0.040 C 
ATOM     17  C   UNL A   1      47.031 -17.651 -39.117  0.00  0.00    -0.002 C 
ENDROOT
BRANCH   9  18
ATOM     18  N   UNL A   1      42.716 -17.687 -38.606  0.00  0.00    -0.275 NA
ATOM     19  C   UNL A   1      41.686 -18.174 -38.022  0.00  0.00    +0.031 C 
BRANCH  19  20
ATOM     20  C   UNL A   1      41.493 -19.454 -37.329  0.00  0.00    -0.000 A 
ATOM     21  C   UNL A   1      41.612 -19.491 -35.941  0.00  0.00    -0.011 A 
ATOM     22  C   UNL A   1      41.371 -20.679 -35.250  0.00  0.00    +0.124 A 
ATOM     23  C   UNL A   1      40.992 -21.826 -35.955  0.00  0.00    +0.022 A 
ATOM     24  C   UNL A   1      40.826 -21.775 -37.344  0.00  0.00    +0.124 A 
ATOM     25  C   UNL A   1      41.047 -20.575 -38.025  0.00  0.00    -0.011 A 
BRANCH  22  26
ATOM     26  O   UNL A   1      41.533 -20.582 -33.895  0.00  0.00    -0.495 OA
ATOM     27  C   UNL A   1      41.327 -21.761 -33.128  0.00  0.00    +0.079 C 
ENDBRANCH  22  26
BRANCH  24  28
ATOM     28  O   UNL A   1      40.442 -22.816 -38.143  0.00  0.00    -0.495 OA
ATOM     29  C   UNL A   1      40.876 -22.786 -39.498  0.00  0.00    +0.079 C 
ENDBRANCH  24  28
ENDBRANCH  19  20
ENDBRANCH   9  18
TORSDOF 4
ENDMDL
MODEL 16
REMARK VINA RESULT:    -6.020     19.117     22.343
REMARK INTER + INTRA:          -8.260
REMARK INTER:                  -7.498
REMARK INTRA:                  -0.763
REMARK UNBOUND:                -0.832
REMARK  Name = cpd121.pdb
REMARK  8 active torsions:
REMARK  status: ('A' for Active; 'I' for Inactive)
REMARK    1  A    between atoms: C_1  and  C_2
REMARK    2  A    between atoms: C_6  and  C_7
REMARK    3  A    between atoms: C_9  and  N_10
REMARK    4  A    between atoms: C_11  and  C_12
REMARK    5  A    between atoms: C_14  and  O_15
REMARK    6  A    between atoms: O_15  and  C_16
REMARK    7  A    between atoms: C_18  and  O_19
REMARK    8  A    between atoms: O_19  and  C_20
REMARK                            x       y       z     vdW  Elec       q    Type
REMARK                         _______ _______ _______ _____ _____    ______ ____
ROOT
ATOM      1  C   UNL A   1      42.162 -20.991 -34.867  0.00  0.00    -0.046 C 
ATOM      2  C   UNL A   1      41.097 -20.834 -35.902  0.00  0.00    -0.085 C 
ATOM      3  C   UNL A   1      41.220 -20.371 -37.167  0.00  0.00    -0.035 C 
ATOM      4  C   UNL A   1      39.978 -20.273 -38.047  0.00  0.00    +0.006 C 
ATOM      5  C   UNL A   1      40.152 -21.000 -39.355  0.00  0.00    -0.077 C 
ATOM      6  C   UNL A   1      41.357 -21.249 -39.890  0.00  0.00    -0.073 C 
ATOM      7  C   UNL A   1      41.532 -21.981 -41.187  0.00  0.00    -0.044 C 
ATOM      8  C   UNL A   1      42.622 -20.804 -39.188  0.00  0.00    +0.001 C 
ATOM      9  C   UNL A   1      42.470 -19.885 -37.931  0.00  0.00    +0.113 C 
ATOM     10  C   UNL A   1      42.234 -18.422 -38.322  0.00  0.00    -0.000 C 
ATOM     11  C   UNL A   1      43.071 -17.377 -38.196  0.00  0.00    -0.068 C 
ATOM     12  C   UNL A   1      42.756 -16.016 -38.733  0.00  0.00    +0.045 C 
ATOM     13  C   UNL A   1      41.661 -16.114 -39.786  0.00  0.00    +0.240 C 
ATOM     14  O   UNL A   1      41.689 -15.413 -40.794  0.00  0.00    -0.273 OA
ATOM     15  N   UNL A   1      40.605 -16.940 -39.482  0.00  0.00    -0.185 NA
ATOM     16  C   UNL A   1      40.867 -18.011 -38.798  0.00  0.00    +0.040 C 
ATOM     17  C   UNL A   1      39.663 -18.807 -38.314  0.00  0.00    -0.002 C 
ENDROOT
BRANCH   9  18
ATOM     18  N   UNL A   1      43.643 -20.010 -37.051  0.00  0.00    -0.275 NA
ATOM     19  C   UNL A   1      44.893 -20.137 -37.300  0.00  0.00    +0.031 C 
BRANCH  19  20
ATOM     20  C   UNL A   1      45.616 -20.177 -38.578  0.00  0.00    -0.000 A 
ATOM     21  C   UNL A   1      46.091 -18.984 -39.119  0.00  0.00    -0.011 A 
ATOM     22  C   UNL A   1      46.837 -18.998 -40.298  0.00  0.00    +0.124 A 
ATOM     23  C   UNL A   1      47.120 -20.216 -40.924  0.00  0.00    +0.022 A 
ATOM     24  C   UNL A   1      46.683 -21.417 -40.354  0.00  0.00    +0.124 A 
ATOM     25  C   UNL A   1      45.957 -21.395 -39.160  0.00  0.00    -0.011 A 
BRANCH  22  26
ATOM     26  O   UNL A   1      47.232 -17.760 -40.726  0.00  0.00    -0.495 OA
ATOM     27  C   UNL A   1      47.114 -16.683 -39.805  0.00  0.00    +0.079 C 
ENDBRANCH  22  26
BRANCH  24  28
ATOM     28  O   UNL A   1      46.910 -22.670 -40.854  0.00  0.00    -0.495 OA
ATOM     29  C   UNL A   1      48.267 -23.065 -41.018  0.00  0.00    +0.079 C 
ENDBRANCH  24  28
ENDBRANCH  19  20
ENDBRANCH   9  18
TORSDOF 4
ENDMDL
MODEL 17
REMARK VINA RESULT:    -5.933     16.343     20.267
REMARK INTER + INTRA:          -8.152
REMARK INTER:                  -7.817
REMARK INTRA:                  -0.335
REMARK UNBOUND:                -0.832
REMARK  Name = cpd121.pdb
REMARK  8 active torsions:
REMARK  status: ('A' for Active; 'I' for Inactive)
REMARK    1  A    between atoms: C_1  and  C_2
REMARK    2  A    between atoms: C_6  and  C_7
REMARK    3  A    between atoms: C_9  and  N_10
REMARK    4  A    between atoms: C_11  and  C_12
REMARK    5  A    between atoms: C_14  and  O_15
REMARK    6  A    between atoms: O_15  and  C_16
REMARK    7  A    between atoms: C_18  and  O_19
REMARK    8  A    between atoms: O_19  and  C_20
REMARK                            x       y       z     vdW  Elec       q    Type
REMARK                         _______ _______ _______ _____ _____    ______ ____
ROOT
ATOM      1  C   UNL A   1      40.143 -17.904 -38.776  0.00  0.00    -0.046 C 
ATOM      2  C   UNL A   1      40.633 -17.892 -37.366  0.00  0.00    -0.085 C 
ATOM      3  C   UNL A   1      41.153 -18.916 -36.651  0.00  0.00    -0.035 C 
ATOM      4  C   UNL A   1      41.567 -18.677 -35.203  0.00  0.00    +0.006 C 
ATOM      5  C   UNL A   1      42.996 -19.081 -34.948  0.00  0.00    -0.077 C 
ATOM      6  C   UNL A   1      43.641 -19.978 -35.709  0.00  0.00    -0.073 C 
ATOM      7  C   UNL A   1      45.067 -20.374 -35.463  0.00  0.00    -0.044 C 
ATOM      8  C   UNL A   1      42.951 -20.635 -36.885  0.00  0.00    +0.001 C 
ATOM      9  C   UNL A   1      41.415 -20.381 -37.059  0.00  0.00    +0.113 C 
ATOM     10  C   UNL A   1      40.583 -21.277 -36.135  0.00  0.00    -0.000 C 
ATOM     11  C   UNL A   1      39.801 -22.320 -36.463  0.00  0.00    -0.068 C 
ATOM     12  C   UNL A   1      39.135 -23.187 -35.441  0.00  0.00    +0.045 C 
ATOM     13  C   UNL A   1      39.821 -23.023 -34.093  0.00  0.00    +0.240 C 
ATOM     14  O   UNL A   1      39.986 -23.984 -33.346  0.00  0.00    -0.273 OA
ATOM     15  N   UNL A   1      40.135 -21.734 -33.730  0.00  0.00    -0.185 NA
ATOM     16  C   UNL A   1      40.484 -20.918 -34.676  0.00  0.00    +0.040 C 
ATOM     17  C   UNL A   1      40.642 -19.458 -34.278  0.00  0.00    -0.002 C 
ENDROOT
BRANCH   9  18
ATOM     18  N   UNL A   1      41.016 -20.562 -38.464  0.00  0.00    -0.275 NA
ATOM     19  C   UNL A   1      41.693 -20.604 -39.550  0.00  0.00    +0.031 C 
BRANCH  19  20
ATOM     20  C   UNL A   1      43.141 -20.511 -39.781  0.00  0.00    -0.000 A 
ATOM     21  C   UNL A   1      43.855 -21.677 -40.049  0.00  0.00    -0.011 A 
ATOM     22  C   UNL A   1      45.219 -21.612 -40.336  0.00  0.00    +0.124 A 
ATOM     23  C   UNL A   1      45.861 -20.370 -40.371  0.00  0.00    +0.022 A 
ATOM     24  C   UNL A   1      45.132 -19.196 -40.149  0.00  0.00    +0.124 A 
ATOM     25  C   UNL A   1      43.762 -19.269 -39.886  0.00  0.00    -0.011 A 
BRANCH  22  26
ATOM     26  O   UNL A   1      45.802 -22.828 -40.568  0.00  0.00    -0.495 OA
ATOM     27  C   UNL A   1      47.152 -22.829 -41.012  0.00  0.00    +0.079 C 
ENDBRANCH  22  26
BRANCH  24  28
ATOM     28  O   UNL A   1      45.635 -17.924 -40.176  0.00  0.00    -0.495 OA
ATOM     29  C   UNL A   1      44.735 -16.865 -39.870  0.00  0.00    +0.079 C 
ENDBRANCH  24  28
ENDBRANCH  19  20
ENDBRANCH   9  18
TORSDOF 4
ENDMDL
MODEL 18
REMARK VINA RESULT:    -5.792     17.064     20.960
REMARK INTER + INTRA:          -7.978
REMARK INTER:                  -7.221
REMARK INTRA:                  -0.757
REMARK UNBOUND:                -0.832
REMARK  Name = cpd121.pdb
REMARK  8 active torsions:
REMARK  status: ('A' for Active; 'I' for Inactive)
REMARK    1  A    between atoms: C_1  and  C_2
REMARK    2  A    between atoms: C_6  and  C_7
REMARK    3  A    between atoms: C_9  and  N_10
REMARK    4  A    between atoms: C_11  and  C_12
REMARK    5  A    between atoms: C_14  and  O_15
REMARK    6  A    between atoms: O_15  and  C_16
REMARK    7  A    between atoms: C_18  and  O_19
REMARK    8  A    between atoms: O_19  and  C_20
REMARK                            x       y       z     vdW  Elec       q    Type
REMARK                         _______ _______ _______ _____ _____    ______ ____
ROOT
ATOM      1  C   UNL A   1      40.221 -22.972 -34.360  0.00  0.00    -0.046 C 
ATOM      2  C   UNL A   1      40.111 -22.903 -35.848  0.00  0.00    -0.085 C 
ATOM      3  C   UNL A   1      40.584 -21.946 -36.678  0.00  0.00    -0.035 C 
ATOM      4  C   UNL A   1      40.329 -22.070 -38.177  0.00  0.00    +0.006 C 
ATOM      5  C   UNL A   1      41.604 -21.995 -38.977  0.00  0.00    -0.077 C 
ATOM      6  C   UNL A   1      42.714 -21.400 -38.515  0.00  0.00    -0.073 C 
ATOM      7  C   UNL A   1      43.987 -21.333 -39.305  0.00  0.00    -0.044 C 
ATOM      8  C   UNL A   1      42.738 -20.768 -37.140  0.00  0.00    +0.001 C 
ATOM      9  C   UNL A   1      41.381 -20.662 -36.365  0.00  0.00    +0.113 C 
ATOM     10  C   UNL A   1      40.547 -19.469 -36.843  0.00  0.00    -0.000 C 
ATOM     11  C   UNL A   1      40.275 -18.324 -36.193  0.00  0.00    -0.068 C 
ATOM     12  C   UNL A   1      39.541 -17.185 -36.829  0.00  0.00    +0.045 C 
ATOM     13  C   UNL A   1      39.586 -17.319 -38.344  0.00  0.00    +0.240 C 
ATOM     14  O   UNL A   1      39.715 -16.331 -39.063  0.00  0.00    -0.273 OA
ATOM     15  N   UNL A   1      39.362 -18.580 -38.844  0.00  0.00    -0.185 NA
ATOM     16  C   UNL A   1      39.802 -19.582 -38.147  0.00  0.00    +0.040 C 
ATOM     17  C   UNL A   1      39.380 -20.965 -38.622  0.00  0.00    -0.002 C 
ENDROOT
BRANCH   9  18
ATOM     18  N   UNL A   1      41.616 -20.590 -34.915  0.00  0.00    -0.275 NA
ATOM     19  C   UNL A   1      42.569 -20.085 -34.223  0.00  0.00    +0.031 C 
BRANCH  19  20
ATOM     20  C   UNL A   1      43.775 -19.360 -34.641  0.00  0.00    -0.000 A 
ATOM     21  C   UNL A   1      43.661 -18.021 -35.009  0.00  0.00    -0.011 A 
ATOM     22  C   UNL A   1      44.799 -17.289 -35.348  0.00  0.00    +0.124 A 
ATOM     23  C   UNL A   1      46.056 -17.900 -35.300  0.00  0.00    +0.022 A 
ATOM     24  C   UNL A   1      46.174 -19.232 -34.883  0.00  0.00    +0.124 A 
ATOM     25  C   UNL A   1      45.032 -19.950 -34.523  0.00  0.00    -0.011 A 
BRANCH  22  26
ATOM     26  O   UNL A   1      44.547 -15.991 -35.701  0.00  0.00    -0.495 OA
ATOM     27  C   UNL A   1      44.366 -15.053 -34.648  0.00  0.00    +0.079 C 
ENDBRANCH  22  26
BRANCH  24  28
ATOM     28  O   UNL A   1      47.342 -19.935 -34.774  0.00  0.00    -0.495 OA
ATOM     29  C   UNL A   1      48.549 -19.183 -34.718  0.00  0.00    +0.079 C 
ENDBRANCH  24  28
ENDBRANCH  19  20
ENDBRANCH   9  18
TORSDOF 4
ENDMDL
MODEL 19
REMARK VINA RESULT:    -5.785     18.515     22.387
REMARK INTER + INTRA:          -7.970
REMARK INTER:                  -7.813
REMARK INTRA:                  -0.158
REMARK UNBOUND:                -0.832
REMARK  Name = cpd121.pdb
REMARK  8 active torsions:
REMARK  status: ('A' for Active; 'I' for Inactive)
REMARK    1  A    between atoms: C_1  and  C_2
REMARK    2  A    between atoms: C_6  and  C_7
REMARK    3  A    between atoms: C_9  and  N_10
REMARK    4  A    between atoms: C_11  and  C_12
REMARK    5  A    between atoms: C_14  and  O_15
REMARK    6  A    between atoms: O_15  and  C_16
REMARK    7  A    between atoms: C_18  and  O_19
REMARK    8  A    between atoms: O_19  and  C_20
REMARK                            x       y       z     vdW  Elec       q    Type
REMARK                         _______ _______ _______ _____ _____    ______ ____
ROOT
ATOM      1  C   UNL A   1      47.270 -16.642 -36.954  0.00  0.00    -0.046 C 
ATOM      2  C   UNL A   1      46.325 -16.736 -38.107  0.00  0.00    -0.085 C 
ATOM      3  C   UNL A   1      45.684 -17.831 -38.577  0.00  0.00    -0.035 C 
ATOM      4  C   UNL A   1      44.778 -17.695 -39.796  0.00  0.00    +0.006 C 
ATOM      5  C   UNL A   1      43.390 -18.220 -39.531  0.00  0.00    -0.077 C 
ATOM      6  C   UNL A   1      43.129 -19.126 -38.576  0.00  0.00    -0.073 C 
ATOM      7  C   UNL A   1      41.748 -19.642 -38.304  0.00  0.00    -0.044 C 
ATOM      8  C   UNL A   1      44.238 -19.670 -37.701  0.00  0.00    +0.001 C 
ATOM      9  C   UNL A   1      45.711 -19.290 -38.075  0.00  0.00    +0.113 C 
ATOM     10  C   UNL A   1      46.250 -20.163 -39.214  0.00  0.00    -0.000 C 
ATOM     11  C   UNL A   1      47.187 -21.126 -39.159  0.00  0.00    -0.068 C 
ATOM     12  C   UNL A   1      47.535 -21.987 -40.332  0.00  0.00    +0.045 C 
ATOM     13  C   UNL A   1      46.414 -21.942 -41.361  0.00  0.00    +0.240 C 
ATOM     14  O   UNL A   1      46.088 -22.948 -41.986  0.00  0.00    -0.273 OA
ATOM     15  N   UNL A   1      45.881 -20.700 -41.617  0.00  0.00    -0.185 NA
ATOM     16  C   UNL A   1      45.808 -19.869 -40.623  0.00  0.00    +0.040 C 
ATOM     17  C   UNL A   1      45.393 -18.446 -40.969  0.00  0.00    -0.002 C 
ENDROOT
BRANCH   9  18
ATOM     18  N   UNL A   1      46.583 -19.372 -36.894  0.00  0.00    -0.275 NA
ATOM     19  C   UNL A   1      46.341 -19.284 -35.639  0.00  0.00    +0.031 C 
BRANCH  19  20
ATOM     20  C   UNL A   1      45.075 -19.092 -34.920  0.00  0.00    -0.000 A 
ATOM     21  C   UNL A   1      44.624 -17.795 -34.687  0.00  0.00    -0.011 A 
ATOM     22  C   UNL A   1      43.394 -17.582 -34.063  0.00  0.00    +0.124 A 
ATOM     23  C   UNL A   1      42.608 -18.677 -33.691  0.00  0.00    +0.022 A 
ATOM     24  C   UNL A   1      43.040 -19.979 -33.971  0.00  0.00    +0.124 A 
ATOM     25  C   UNL A   1      44.262 -20.182 -34.616  0.00  0.00    -0.011 A 
BRANCH  22  26
ATOM     26  O   UNL A   1      43.077 -16.263 -33.884  0.00  0.00    -0.495 OA
ATOM     27  C   UNL A   1      43.684 -15.591 -32.788  0.00  0.00    +0.079 C 
ENDBRANCH  22  26
BRANCH  24  28
ATOM     28  O   UNL A   1      42.358 -21.129 -33.678  0.00  0.00    -0.495 OA
ATOM     29  C   UNL A   1      41.234 -21.012 -32.813  0.00  0.00    +0.079 C 
ENDBRANCH  24  28
ENDBRANCH  19  20
ENDBRANCH   9  18
TORSDOF 4
ENDMDL
MODEL 20
REMARK VINA RESULT:    -5.770      2.809      6.383
REMARK INTER + INTRA:          -7.951
REMARK INTER:                  -7.336
REMARK INTRA:                  -0.615
REMARK UNBOUND:                -0.832
REMARK  Name = cpd121.pdb
REMARK  8 active torsions:
REMARK  status: ('A' for Active; 'I' for Inactive)
REMARK    1  A    between atoms: C_1  and  C_2
REMARK    2  A    between atoms: C_6  and  C_7
REMARK    3  A    between atoms: C_9  and  N_10
REMARK    4  A    between atoms: C_11  and  C_12
REMARK    5  A    between atoms: C_14  and  O_15
REMARK    6  A    between atoms: O_15  and  C_16
REMARK    7  A    between atoms: C_18  and  O_19
REMARK    8  A    between atoms: O_19  and  C_20
REMARK                            x       y       z     vdW  Elec       q    Type
REMARK                         _______ _______ _______ _____ _____    ______ ____
ROOT
ATOM      1  C   UNL A   1      30.453 -35.983 -33.307  0.00  0.00    -0.046 C 
ATOM      2  C   UNL A   1      30.213 -34.846 -32.371  0.00  0.00    -0.085 C 
ATOM      3  C   UNL A   1      30.915 -34.509 -31.265  0.00  0.00    -0.035 C 
ATOM      4  C   UNL A   1      30.467 -33.309 -30.436  0.00  0.00    +0.006 C 
ATOM      5  C   UNL A   1      31.579 -32.313 -30.235  0.00  0.00    -0.077 C 
ATOM      6  C   UNL A   1      32.876 -32.651 -30.312  0.00  0.00    -0.073 C 
ATOM      7  C   UNL A   1      33.984 -31.659 -30.122  0.00  0.00    -0.044 C 
ATOM      8  C   UNL A   1      33.288 -34.075 -30.616  0.00  0.00    +0.001 C 
ATOM      9  C   UNL A   1      32.165 -35.166 -30.642  0.00  0.00    +0.113 C 
ATOM     10  C   UNL A   1      31.791 -35.629 -29.230  0.00  0.00    -0.000 C 
ATOM     11  C   UNL A   1      32.043 -36.813 -28.643  0.00  0.00    -0.068 C 
ATOM     12  C   UNL A   1      31.725 -37.091 -27.208  0.00  0.00    +0.045 C 
ATOM     13  C   UNL A   1      31.547 -35.782 -26.452  0.00  0.00    +0.240 C 
ATOM     14  O   UNL A   1      31.957 -35.655 -25.301  0.00  0.00    -0.273 OA
ATOM     15  N   UNL A   1      30.813 -34.811 -27.092  0.00  0.00    -0.185 NA
ATOM     16  C   UNL A   1      30.919 -34.741 -28.383  0.00  0.00    +0.040 C 
ATOM     17  C   UNL A   1      29.959 -33.790 -29.084  0.00  0.00    -0.002 C 
ENDROOT
BRANCH   9  18
ATOM     18  N   UNL A   1      32.569 -36.307 -31.478  0.00  0.00    -0.275 NA
ATOM     19  C   UNL A   1      33.697 -36.890 -31.648  0.00  0.00    +0.031 C 
BRANCH  19  20
ATOM     20  C   UNL A   1      35.007 -36.638 -31.035  0.00  0.00    -0.000 A 
ATOM     21  C   UNL A   1      35.453 -37.493 -30.029  0.00  0.00    -0.011 A 
ATOM     22  C   UNL A   1      36.721 -37.317 -29.473  0.00  0.00    +0.124 A 
ATOM     23  C   UNL A   1      37.547 -36.292 -29.943  0.00  0.00    +0.022 A 
ATOM     24  C   UNL A   1      37.117 -35.465 -30.987  0.00  0.00    +0.124 A 
ATOM     25  C   UNL A   1      35.855 -35.663 -31.553  0.00  0.00    -0.011 A 
BRANCH  22  26
ATOM     26  O   UNL A   1      37.030 -38.215 -28.488  0.00  0.00    -0.495 OA
ATOM     27  C   UNL A   1      36.542 -39.542 -28.639  0.00  0.00    +0.079 C 
ENDBRANCH  22  26
BRANCH  24  28
ATOM     28  O   UNL A   1      37.834 -34.444 -31.547  0.00  0.00    -0.495 OA
ATOM     29  C   UNL A   1      39.088 -34.779 -32.132  0.00  0.00    +0.079 C 
ENDBRANCH  24  28
ENDBRANCH  19  20
ENDBRANCH   9  18
TORSDOF 4
ENDMDL
