REMARK  Name = cpd261.pdb
REMARK  8 active torsions:
REMARK  status: ('A' for Active; 'I' for Inactive)
REMARK    1  A    between atoms: C_1  and  C_2
REMARK    2  A    between atoms: C_2  and  C_3
REMARK    3  A    between atoms: C_7  and  N_8
REMARK    4  A    between atoms: C_9  and  O_11
REMARK    5  A    between atoms: O_11  and  C_12
REMARK    6  A    between atoms: C_18  and  C_19
REMARK    7  A    between atoms: N_22  and  C_23
REMARK    8  A    between atoms: N_26  and  C_27
REMARK                            x       y       z     vdW  Elec       q    Type
REMARK                         _______ _______ _______ _____ _____    ______ ____
ROOT
ATOM      1  C   UNL A   1      -2.255   1.058  -0.995  0.00  0.00    +0.134 A 
ATOM      2  C   UNL A   1      -2.138  -0.310  -0.719  0.00  0.00    -0.017 A 
ATOM      3  C   UNL A   1      -3.214  -0.994  -0.158  0.00  0.00    -0.037 A 
ATOM      4  C   UNL A   1      -4.409  -0.322   0.045  0.00  0.00    +0.032 A 
ATOM      5  C   UNL A   1      -4.533   1.022  -0.299  0.00  0.00    -0.017 A 
ATOM      6  C   UNL A   1      -3.458   1.740  -0.807  0.00  0.00    -0.014 A 
ATOM      7  C   UNL A   1      -5.950   1.450   0.000  0.00  0.00    +0.002 C 
ATOM      8  C   UNL A   1      -6.483   2.358  -1.116  0.00  0.00    -0.055 C 
ATOM      9  C   UNL A   1      -6.066   2.053   1.386  0.00  0.00    -0.054 C 
ATOM     10  C   UNL A   1      -7.498   1.798   1.740  0.00  0.00    -0.048 C 
ATOM     11  N   UNL A   1      -7.858   0.454   1.154  0.00  0.00    +0.433 N 
ATOM     12  C   UNL A   1      -9.209   0.542   0.492  0.00  0.00    -0.060 C 
ATOM     13  O   UNL A   1      -7.988  -0.456   2.188  0.00  0.00    -0.289 OA
ATOM     14  C   UNL A   1      -6.763   0.041   0.000  0.00  0.00    +0.039 C 
ATOM     15  N   UNL A   1      -5.581  -0.798   0.622  0.00  0.00    -0.341 N 
ATOM     16  C   UNL A   1      -5.737  -2.228   0.860  0.00  0.00    -0.001 C 
ENDROOT
BRANCH   1  17
ATOM     17  O   UNL A   1      -1.175   1.799  -1.537  0.00  0.00    -0.411 OA
BRANCH  17  19
ATOM     18  N   UNL A   1       0.404   1.079   0.023  0.00  0.00    -0.251 N 
ATOM     19  C   UNL A   1       0.183   1.548  -1.253  0.00  0.00    +0.410 C 
ATOM     20  O   UNL A   1       1.032   1.791  -2.102  0.00  0.00    -0.226 OA
ATOM     21  H   UNL A   1      -0.359   1.136   0.642  0.00  0.00    +0.000 HD
BRANCH  18  26
ATOM     22  C   UNL A   1       3.891  -0.277   0.382  0.00  0.00    -0.046 A 
ATOM     23  C   UNL A   1       3.838  -0.667   1.725  0.00  0.00    -0.058 A 
ATOM     24  C   UNL A   1       2.674  -0.481   2.470  0.00  0.00    -0.060 A 
ATOM     25  C   UNL A   1       1.554   0.109   1.885  0.00  0.00    -0.040 A 
ATOM     26  C   UNL A   1       1.587   0.528   0.551  0.00  0.00    +0.037 A 
ATOM     27  C   UNL A   1       2.758   0.337  -0.188  0.00  0.00    -0.037 A 
BRANCH  22  29
ATOM     28  C   UNL A   1       5.989  -1.660  -0.155  0.00  0.00    -0.061 C 
ATOM     29  C   UNL A   1       5.137  -0.434  -0.461  0.00  0.00    -0.030 C 
ENDBRANCH  22  29
ENDBRANCH  18  26
ENDBRANCH  17  19
ENDBRANCH   1  17
TORSDOF 4
