MODEL 1
REMARK VINA RESULT:    -8.884      0.000      0.000
REMARK INTER + INTRA:         -11.376
REMARK INTER:                 -10.962
REMARK INTRA:                  -0.414
REMARK UNBOUND:                -0.414
REMARK  Name = cpd261.pdb
REMARK  8 active torsions:
REMARK  status: ('A' for Active; 'I' for Inactive)
REMARK    1  A    between atoms: C_1  and  C_2
REMARK    2  A    between atoms: C_2  and  C_3
REMARK    3  A    between atoms: C_7  and  N_8
REMARK    4  A    between atoms: C_9  and  O_11
REMARK    5  A    between atoms: O_11  and  C_12
REMARK    6  A    between atoms: C_18  and  C_19
REMARK    7  A    between atoms: N_22  and  C_23
REMARK    8  A    between atoms: N_26  and  C_27
REMARK                            x       y       z     vdW  Elec       q    Type
REMARK                         _______ _______ _______ _____ _____    ______ ____
ROOT
ATOM      1  C   UNL A   1      36.862 -35.295 -31.008  0.00  0.00    +0.134 A 
ATOM      2  C   UNL A   1      36.666 -36.160 -29.924  0.00  0.00    -0.017 A 
ATOM      3  C   UNL A   1      37.713 -36.970 -29.492  0.00  0.00    -0.037 A 
ATOM      4  C   UNL A   1      38.955 -36.848 -30.097  0.00  0.00    +0.032 A 
ATOM      5  C   UNL A   1      39.154 -35.933 -31.128  0.00  0.00    -0.017 A 
ATOM      6  C   UNL A   1      38.111 -35.155 -31.614  0.00  0.00    -0.014 A 
ATOM      7  C   UNL A   1      40.604 -36.007 -31.542  0.00  0.00    +0.002 C 
ATOM      8  C   UNL A   1      41.158 -34.602 -31.808  0.00  0.00    -0.055 C 
ATOM      9  C   UNL A   1      40.802 -36.970 -32.696  0.00  0.00    -0.054 C 
ATOM     10  C   UNL A   1      42.225 -37.403 -32.527  0.00  0.00    -0.048 C 
ATOM     11  N   UNL A   1      42.480 -37.488 -31.041  0.00  0.00    +0.433 N 
ATOM     12  C   UNL A   1      43.812 -36.859 -30.724  0.00  0.00    -0.060 C 
ATOM     13  O   UNL A   1      42.584 -38.822 -30.690  0.00  0.00    -0.289 OA
ATOM     14  C   UNL A   1      41.325 -36.646 -30.231  0.00  0.00    +0.039 C 
ATOM     15  N   UNL A   1      40.112 -37.579 -29.850  0.00  0.00    -0.341 N 
ATOM     16  C   UNL A   1      40.183 -38.439 -28.674  0.00  0.00    -0.001 C 
ENDROOT
BRANCH   1  17
ATOM     17  O   UNL A   1      35.815 -34.475 -31.500  0.00  0.00    -0.411 OA
BRANCH  17  19
ATOM     18  N   UNL A   1      34.303 -33.441 -30.053  0.00  0.00    -0.251 N 
ATOM     19  C   UNL A   1      34.509 -34.450 -30.968  0.00  0.00    +0.410 C 
ATOM     20  O   UNL A   1      33.702 -35.307 -31.308  0.00  0.00    -0.226 OA
ATOM     21  H   UNL A   1      35.109 -32.971 -29.741  0.00  0.00    +0.000 HD
BRANCH  18  26
ATOM     22  C   UNL A   1      31.209 -31.438 -29.320  0.00  0.00    -0.046 A 
ATOM     23  C   UNL A   1      30.699 -32.200 -28.263  0.00  0.00    -0.058 A 
ATOM     24  C   UNL A   1      31.375 -33.336 -27.819  0.00  0.00    -0.060 A 
ATOM     25  C   UNL A   1      32.562 -33.731 -28.436  0.00  0.00    -0.040 A 
ATOM     26  C   UNL A   1      33.082 -33.000 -29.510  0.00  0.00    +0.037 A 
ATOM     27  C   UNL A   1      32.397 -31.863 -29.947  0.00  0.00    -0.037 A 
BRANCH  22  29
ATOM     28  C   UNL A   1      29.864 -30.368 -31.230  0.00  0.00    -0.061 C 
ATOM     29  C   UNL A   1      30.500 -30.213 -29.854  0.00  0.00    -0.030 C 
ENDBRANCH  22  29
ENDBRANCH  18  26
ENDBRANCH  17  19
ENDBRANCH   1  17
TORSDOF 4
ENDMDL
MODEL 2
REMARK VINA RESULT:    -8.283      2.713      9.446
REMARK INTER + INTRA:         -10.634
REMARK INTER:                 -10.248
REMARK INTRA:                  -0.386
REMARK UNBOUND:                -0.414
REMARK  Name = cpd261.pdb
REMARK  8 active torsions:
REMARK  status: ('A' for Active; 'I' for Inactive)
REMARK    1  A    between atoms: C_1  and  C_2
REMARK    2  A    between atoms: C_2  and  C_3
REMARK    3  A    between atoms: C_7  and  N_8
REMARK    4  A    between atoms: C_9  and  O_11
REMARK    5  A    between atoms: O_11  and  C_12
REMARK    6  A    between atoms: C_18  and  C_19
REMARK    7  A    between atoms: N_22  and  C_23
REMARK    8  A    between atoms: N_26  and  C_27
REMARK                            x       y       z     vdW  Elec       q    Type
REMARK                         _______ _______ _______ _____ _____    ______ ____
ROOT
ATOM      1  C   UNL A   1      37.338 -35.638 -31.147  0.00  0.00    +0.134 A 
ATOM      2  C   UNL A   1      37.535 -36.959 -30.727  0.00  0.00    -0.017 A 
ATOM      3  C   UNL A   1      36.519 -37.624 -30.046  0.00  0.00    -0.037 A 
ATOM      4  C   UNL A   1      35.300 -36.989 -29.864  0.00  0.00    +0.032 A 
ATOM      5  C   UNL A   1      35.095 -35.700 -30.349  0.00  0.00    -0.017 A 
ATOM      6  C   UNL A   1      36.111 -34.995 -30.981  0.00  0.00    -0.014 A 
ATOM      7  C   UNL A   1      33.671 -35.306 -30.035  0.00  0.00    +0.002 C 
ATOM      8  C   UNL A   1      33.048 -34.555 -31.219  0.00  0.00    -0.055 C 
ATOM      9  C   UNL A   1      33.580 -34.557 -28.720  0.00  0.00    -0.054 C 
ATOM     10  C   UNL A   1      32.178 -34.836 -28.275  0.00  0.00    -0.048 C 
ATOM     11  N   UNL A   1      31.864 -36.253 -28.692  0.00  0.00    +0.433 N 
ATOM     12  C   UNL A   1      30.485 -36.302 -29.298  0.00  0.00    -0.060 C 
ATOM     13  O   UNL A   1      31.822 -37.046 -27.559  0.00  0.00    -0.289 OA
ATOM     14  C   UNL A   1      32.931 -36.742 -29.842  0.00  0.00    +0.039 C 
ATOM     15  N   UNL A   1      34.178 -37.451 -29.185  0.00  0.00    -0.341 N 
ATOM     16  C   UNL A   1      34.105 -38.850 -28.784  0.00  0.00    -0.001 C 
ENDROOT
BRANCH   1  17
ATOM     17  O   UNL A   1      38.357 -34.914 -31.816  0.00  0.00    -0.411 OA
BRANCH  17  19
ATOM     18  N   UNL A   1      40.447 -35.551 -30.999  0.00  0.00    -0.251 N 
ATOM     19  C   UNL A   1      39.638 -35.427 -32.106  0.00  0.00    +0.410 C 
ATOM     20  O   UNL A   1      39.940 -35.674 -33.267  0.00  0.00    -0.226 OA
ATOM     21  H   UNL A   1      40.124 -35.117 -30.177  0.00  0.00    +0.000 HD
BRANCH  18  26
ATOM     22  C   UNL A   1      44.121 -36.308 -30.755  0.00  0.00    -0.046 A 
ATOM     23  C   UNL A   1      44.061 -37.705 -30.794  0.00  0.00    -0.058 A 
ATOM     24  C   UNL A   1      42.833 -38.357 -30.901  0.00  0.00    -0.060 A 
ATOM     25  C   UNL A   1      41.650 -37.621 -30.957  0.00  0.00    -0.040 A 
ATOM     26  C   UNL A   1      41.680 -36.224 -30.898  0.00  0.00    +0.037 A 
ATOM     27  C   UNL A   1      42.915 -35.579 -30.791  0.00  0.00    -0.037 A 
BRANCH  22  29
ATOM     28  C   UNL A   1      46.383 -36.088 -29.556  0.00  0.00    -0.061 C 
ATOM     29  C   UNL A   1      45.425 -35.554 -30.614  0.00  0.00    -0.030 C 
ENDBRANCH  22  29
ENDBRANCH  18  26
ENDBRANCH  17  19
ENDBRANCH   1  17
TORSDOF 4
ENDMDL
MODEL 3
REMARK VINA RESULT:    -8.184     32.474     35.395
REMARK INTER + INTRA:         -10.511
REMARK INTER:                 -10.049
REMARK INTRA:                  -0.463
REMARK UNBOUND:                -0.414
REMARK  Name = cpd261.pdb
REMARK  8 active torsions:
REMARK  status: ('A' for Active; 'I' for Inactive)
REMARK    1  A    between atoms: C_1  and  C_2
REMARK    2  A    between atoms: C_2  and  C_3
REMARK    3  A    between atoms: C_7  and  N_8
REMARK    4  A    between atoms: C_9  and  O_11
REMARK    5  A    between atoms: O_11  and  C_12
REMARK    6  A    between atoms: C_18  and  C_19
REMARK    7  A    between atoms: N_22  and  C_23
REMARK    8  A    between atoms: N_26  and  C_27
REMARK                            x       y       z     vdW  Elec       q    Type
REMARK                         _______ _______ _______ _____ _____    ______ ____
ROOT
ATOM      1  C   UNL A   1      62.888 -20.249  -9.445  0.00  0.00    +0.134 A 
ATOM      2  C   UNL A   1      63.030 -19.706  -8.162  0.00  0.00    -0.017 A 
ATOM      3  C   UNL A   1      63.242 -20.551  -7.075  0.00  0.00    -0.037 A 
ATOM      4  C   UNL A   1      63.386 -21.912  -7.297  0.00  0.00    +0.032 A 
ATOM      5  C   UNL A   1      63.312 -22.431  -8.587  0.00  0.00    -0.017 A 
ATOM      6  C   UNL A   1      63.045 -21.616  -9.680  0.00  0.00    -0.014 A 
ATOM      7  C   UNL A   1      63.548 -23.920  -8.504  0.00  0.00    +0.002 C 
ATOM      8  C   UNL A   1      64.440 -24.388  -9.661  0.00  0.00    -0.055 C 
ATOM      9  C   UNL A   1      62.242 -24.683  -8.391  0.00  0.00    -0.054 C 
ATOM     10  C   UNL A   1      62.651 -25.939  -7.687  0.00  0.00    -0.048 C 
ATOM     11  N   UNL A   1      63.722 -25.552  -6.695  0.00  0.00    +0.433 N 
ATOM     12  C   UNL A   1      64.845 -26.555  -6.754  0.00  0.00    -0.060 C 
ATOM     13  O   UNL A   1      63.191 -25.635  -5.420  0.00  0.00    -0.289 OA
ATOM     14  C   UNL A   1      64.343 -24.084  -7.094  0.00  0.00    +0.039 C 
ATOM     15  N   UNL A   1      63.562 -22.926  -6.362  0.00  0.00    -0.341 N 
ATOM     16  C   UNL A   1      63.875 -22.584  -4.979  0.00  0.00    -0.001 C 
ENDROOT
BRANCH   1  17
ATOM     17  O   UNL A   1      62.641 -19.428 -10.574  0.00  0.00    -0.411 OA
BRANCH  17  19
ATOM     18  N   UNL A   1      60.333 -19.489 -10.911  0.00  0.00    -0.251 N 
ATOM     19  C   UNL A   1      61.452 -18.698 -10.780  0.00  0.00    +0.410 C 
ATOM     20  O   UNL A   1      61.502 -17.477 -10.866  0.00  0.00    -0.226 OA
ATOM     21  H   UNL A   1      60.496 -20.453 -11.024  0.00  0.00    +0.000 HD
BRANCH  18  26
ATOM     22  C   UNL A   1      56.756 -18.885 -11.897  0.00  0.00    -0.046 A 
ATOM     23  C   UNL A   1      56.344 -18.142 -10.785  0.00  0.00    -0.058 A 
ATOM     24  C   UNL A   1      57.238 -17.859  -9.753  0.00  0.00    -0.060 A 
ATOM     25  C   UNL A   1      58.551 -18.325  -9.815  0.00  0.00    -0.040 A 
ATOM     26  C   UNL A   1      58.983 -19.088 -10.905  0.00  0.00    +0.037 A 
ATOM     27  C   UNL A   1      58.080 -19.367 -11.934  0.00  0.00    -0.037 A 
BRANCH  22  29
ATOM     28  C   UNL A   1      56.396 -20.161 -14.098  0.00  0.00    -0.061 C 
ATOM     29  C   UNL A   1      55.819 -19.240 -13.030  0.00  0.00    -0.030 C 
ENDBRANCH  22  29
ENDBRANCH  18  26
ENDBRANCH  17  19
ENDBRANCH   1  17
TORSDOF 4
ENDMDL
MODEL 4
REMARK VINA RESULT:    -7.920      2.567     10.200
REMARK INTER + INTRA:         -10.186
REMARK INTER:                  -9.735
REMARK INTRA:                  -0.450
REMARK UNBOUND:                -0.414
REMARK  Name = cpd261.pdb
REMARK  8 active torsions:
REMARK  status: ('A' for Active; 'I' for Inactive)
REMARK    1  A    between atoms: C_1  and  C_2
REMARK    2  A    between atoms: C_2  and  C_3
REMARK    3  A    between atoms: C_7  and  N_8
REMARK    4  A    between atoms: C_9  and  O_11
REMARK    5  A    between atoms: O_11  and  C_12
REMARK    6  A    between atoms: C_18  and  C_19
REMARK    7  A    between atoms: N_22  and  C_23
REMARK    8  A    between atoms: N_26  and  C_27
REMARK                            x       y       z     vdW  Elec       q    Type
REMARK                         _______ _______ _______ _____ _____    ______ ____
ROOT
ATOM      1  C   UNL A   1      33.917 -35.019 -30.277  0.00  0.00    +0.134 A 
ATOM      2  C   UNL A   1      34.486 -33.742 -30.206  0.00  0.00    -0.017 A 
ATOM      3  C   UNL A   1      33.662 -32.627 -30.074  0.00  0.00    -0.037 A 
ATOM      4  C   UNL A   1      32.295 -32.810 -29.937  0.00  0.00    +0.032 A 
ATOM      5  C   UNL A   1      31.749 -34.091 -29.939  0.00  0.00    -0.017 A 
ATOM      6  C   UNL A   1      32.543 -35.215 -30.127  0.00  0.00    -0.014 A 
ATOM      7  C   UNL A   1      30.259 -33.962 -29.730  0.00  0.00    +0.002 C 
ATOM      8  C   UNL A   1      29.754 -35.053 -28.776  0.00  0.00    -0.055 C 
ATOM      9  C   UNL A   1      29.516 -33.915 -31.051  0.00  0.00    -0.054 C 
ATOM     10  C   UNL A   1      28.271 -33.160 -30.705  0.00  0.00    -0.048 C 
ATOM     11  N   UNL A   1      28.665 -32.112 -29.691  0.00  0.00    +0.433 N 
ATOM     12  C   UNL A   1      27.646 -32.081 -28.582  0.00  0.00    -0.060 C 
ATOM     13  O   UNL A   1      28.617 -30.871 -30.301  0.00  0.00    -0.289 OA
ATOM     14  C   UNL A   1      30.116 -32.503 -29.026  0.00  0.00    +0.039 C 
ATOM     15  N   UNL A   1      31.300 -31.845 -29.833  0.00  0.00    -0.341 N 
ATOM     16  C   UNL A   1      31.668 -30.454 -29.601  0.00  0.00    -0.001 C 
ENDROOT
BRANCH   1  17
ATOM     17  O   UNL A   1      34.716 -36.178 -30.443  0.00  0.00    -0.411 OA
BRANCH  17  19
ATOM     18  N   UNL A   1      36.869 -36.059 -31.333  0.00  0.00    -0.251 N 
ATOM     19  C   UNL A   1      36.104 -36.228 -30.201  0.00  0.00    +0.410 C 
ATOM     20  O   UNL A   1      36.511 -36.448 -29.067  0.00  0.00    -0.226 OA
ATOM     21  H   UNL A   1      36.387 -36.100 -32.190  0.00  0.00    +0.000 HD
BRANCH  18  26
ATOM     22  C   UNL A   1      40.599 -36.498 -31.166  0.00  0.00    -0.046 A 
ATOM     23  C   UNL A   1      40.989 -35.208 -31.542  0.00  0.00    -0.058 A 
ATOM     24  C   UNL A   1      40.032 -34.237 -31.835  0.00  0.00    -0.060 A 
ATOM     25  C   UNL A   1      38.674 -34.548 -31.768  0.00  0.00    -0.040 A 
ATOM     26  C   UNL A   1      38.257 -35.835 -31.416  0.00  0.00    +0.037 A 
ATOM     27  C   UNL A   1      39.223 -36.802 -31.123  0.00  0.00    -0.037 A 
BRANCH  22  29
ATOM     28  C   UNL A   1      42.661 -37.828 -31.928  0.00  0.00    -0.061 C 
ATOM     29  C   UNL A   1      41.597 -37.593 -30.862  0.00  0.00    -0.030 C 
ENDBRANCH  22  29
ENDBRANCH  18  26
ENDBRANCH  17  19
ENDBRANCH   1  17
TORSDOF 4
ENDMDL
MODEL 5
REMARK VINA RESULT:    -7.708      3.113     10.318
REMARK INTER + INTRA:          -9.924
REMARK INTER:                  -9.504
REMARK INTRA:                  -0.420
REMARK UNBOUND:                -0.414
REMARK  Name = cpd261.pdb
REMARK  8 active torsions:
REMARK  status: ('A' for Active; 'I' for Inactive)
REMARK    1  A    between atoms: C_1  and  C_2
REMARK    2  A    between atoms: C_2  and  C_3
REMARK    3  A    between atoms: C_7  and  N_8
REMARK    4  A    between atoms: C_9  and  O_11
REMARK    5  A    between atoms: O_11  and  C_12
REMARK    6  A    between atoms: C_18  and  C_19
REMARK    7  A    between atoms: N_22  and  C_23
REMARK    8  A    between atoms: N_26  and  C_27
REMARK                            x       y       z     vdW  Elec       q    Type
REMARK                         _______ _______ _______ _____ _____    ______ ____
ROOT
ATOM      1  C   UNL A   1      32.992 -33.348 -31.819  0.00  0.00    +0.134 A 
ATOM      2  C   UNL A   1      33.466 -32.346 -30.963  0.00  0.00    -0.017 A 
ATOM      3  C   UNL A   1      32.560 -31.559 -30.256  0.00  0.00    -0.037 A 
ATOM      4  C   UNL A   1      31.205 -31.835 -30.355  0.00  0.00    +0.032 A 
ATOM      5  C   UNL A   1      30.752 -32.880 -31.157  0.00  0.00    -0.017 A 
ATOM      6  C   UNL A   1      31.631 -33.642 -31.915  0.00  0.00    -0.014 A 
ATOM      7  C   UNL A   1      29.250 -32.952 -31.022  0.00  0.00    +0.002 C 
ATOM      8  C   UNL A   1      28.788 -34.413 -30.940  0.00  0.00    -0.055 C 
ATOM      9  C   UNL A   1      28.557 -32.152 -32.108  0.00  0.00    -0.054 C 
ATOM     10  C   UNL A   1      27.248 -31.797 -31.474  0.00  0.00    -0.048 C 
ATOM     11  N   UNL A   1      27.527 -31.546 -30.011  0.00  0.00    +0.433 N 
ATOM     12  C   UNL A   1      26.467 -32.218 -29.177  0.00  0.00    -0.060 C 
ATOM     13  O   UNL A   1      27.415 -30.189 -29.768  0.00  0.00    -0.289 OA
ATOM     14  C   UNL A   1      28.976 -32.207 -29.602  0.00  0.00    +0.039 C 
ATOM     15  N   UNL A   1      30.140 -31.156 -29.773  0.00  0.00    -0.341 N 
ATOM     16  C   UNL A   1      30.398 -30.166 -28.735  0.00  0.00    -0.001 C 
ENDROOT
BRANCH   1  17
ATOM     17  O   UNL A   1      33.878 -34.151 -32.580  0.00  0.00    -0.411 OA
BRANCH  17  19
ATOM     18  N   UNL A   1      35.924 -34.981 -31.826  0.00  0.00    -0.251 N 
ATOM     19  C   UNL A   1      34.595 -35.251 -32.066  0.00  0.00    +0.410 C 
ATOM     20  O   UNL A   1      34.026 -36.325 -31.914  0.00  0.00    -0.226 OA
ATOM     21  H   UNL A   1      36.266 -34.135 -32.194  0.00  0.00    +0.000 HD
BRANCH  18  26
ATOM     22  C   UNL A   1      37.604 -37.057 -29.181  0.00  0.00    -0.046 A 
ATOM     23  C   UNL A   1      38.846 -37.238 -29.799  0.00  0.00    -0.058 A 
ATOM     24  C   UNL A   1      39.100 -36.680 -31.052  0.00  0.00    -0.060 A 
ATOM     25  C   UNL A   1      38.112 -35.945 -31.706  0.00  0.00    -0.040 A 
ATOM     26  C   UNL A   1      36.854 -35.767 -31.120  0.00  0.00    +0.037 A 
ATOM     27  C   UNL A   1      36.609 -36.330 -29.864  0.00  0.00    -0.037 A 
BRANCH  22  29
ATOM     28  C   UNL A   1      35.847 -37.426 -27.342  0.00  0.00    -0.061 C 
ATOM     29  C   UNL A   1      37.270 -37.662 -27.835  0.00  0.00    -0.030 C 
ENDBRANCH  22  29
ENDBRANCH  18  26
ENDBRANCH  17  19
ENDBRANCH   1  17
TORSDOF 4
ENDMDL
MODEL 6
REMARK VINA RESULT:    -7.609      3.511      9.556
REMARK INTER + INTRA:          -9.802
REMARK INTER:                  -9.790
REMARK INTRA:                  -0.012
REMARK UNBOUND:                -0.414
REMARK  Name = cpd261.pdb
REMARK  8 active torsions:
REMARK  status: ('A' for Active; 'I' for Inactive)
REMARK    1  A    between atoms: C_1  and  C_2
REMARK    2  A    between atoms: C_2  and  C_3
REMARK    3  A    between atoms: C_7  and  N_8
REMARK    4  A    between atoms: C_9  and  O_11
REMARK    5  A    between atoms: O_11  and  C_12
REMARK    6  A    between atoms: C_18  and  C_19
REMARK    7  A    between atoms: N_22  and  C_23
REMARK    8  A    between atoms: N_26  and  C_27
REMARK                            x       y       z     vdW  Elec       q    Type
REMARK                         _______ _______ _______ _____ _____    ______ ____
ROOT
ATOM      1  C   UNL A   1      34.296 -34.070 -31.273  0.00  0.00    +0.134 A 
ATOM      2  C   UNL A   1      33.392 -33.017 -31.079  0.00  0.00    -0.017 A 
ATOM      3  C   UNL A   1      32.094 -33.125 -31.573  0.00  0.00    -0.037 A 
ATOM      4  C   UNL A   1      31.698 -34.306 -32.181  0.00  0.00    +0.032 A 
ATOM      5  C   UNL A   1      32.587 -35.371 -32.305  0.00  0.00    -0.017 A 
ATOM      6  C   UNL A   1      33.903 -35.268 -31.871  0.00  0.00    -0.014 A 
ATOM      7  C   UNL A   1      31.854 -36.515 -32.963  0.00  0.00    +0.002 C 
ATOM      8  C   UNL A   1      32.230 -37.846 -32.300  0.00  0.00    -0.055 C 
ATOM      9  C   UNL A   1      32.048 -36.505 -34.467  0.00  0.00    -0.054 C 
ATOM     10  C   UNL A   1      30.820 -37.203 -34.964  0.00  0.00    -0.048 C 
ATOM     11  N   UNL A   1      29.687 -36.789 -34.056  0.00  0.00    +0.433 N 
ATOM     12  C   UNL A   1      28.864 -38.000 -33.699  0.00  0.00    -0.060 C 
ATOM     13  O   UNL A   1      28.850 -35.940 -34.757  0.00  0.00    -0.289 OA
ATOM     14  C   UNL A   1      30.294 -36.169 -32.660  0.00  0.00    +0.039 C 
ATOM     15  N   UNL A   1      30.476 -34.607 -32.772  0.00  0.00    -0.341 N 
ATOM     16  C   UNL A   1      29.340 -33.715 -32.570  0.00  0.00    -0.001 C 
ENDROOT
BRANCH   1  17
ATOM     17  O   UNL A   1      35.634 -33.990 -30.814  0.00  0.00    -0.411 OA
BRANCH  17  19
ATOM     18  N   UNL A   1      37.601 -34.880 -31.700  0.00  0.00    -0.251 N 
ATOM     19  C   UNL A   1      36.547 -35.065 -30.833  0.00  0.00    +0.410 C 
ATOM     20  O   UNL A   1      36.328 -36.054 -30.145  0.00  0.00    -0.226 OA
ATOM     21  H   UNL A   1      37.518 -34.126 -32.326  0.00  0.00    +0.000 HD
BRANCH  18  26
ATOM     22  C   UNL A   1      40.538 -37.084 -30.898  0.00  0.00    -0.046 A 
ATOM     23  C   UNL A   1      41.201 -37.024 -32.129  0.00  0.00    -0.058 A 
ATOM     24  C   UNL A   1      40.677 -36.269 -33.178  0.00  0.00    -0.060 A 
ATOM     25  C   UNL A   1      39.478 -35.577 -33.013  0.00  0.00    -0.040 A 
ATOM     26  C   UNL A   1      38.784 -35.637 -31.800  0.00  0.00    +0.037 A 
ATOM     27  C   UNL A   1      39.317 -36.396 -30.754  0.00  0.00    -0.037 A 
BRANCH  22  29
ATOM     28  C   UNL A   1      40.053 -38.159 -28.614  0.00  0.00    -0.061 C 
ATOM     29  C   UNL A   1      41.052 -37.908 -29.738  0.00  0.00    -0.030 C 
ENDBRANCH  22  29
ENDBRANCH  18  26
ENDBRANCH  17  19
ENDBRANCH   1  17
TORSDOF 4
ENDMDL
MODEL 7
REMARK VINA RESULT:    -7.577      2.647     10.091
REMARK INTER + INTRA:          -9.763
REMARK INTER:                  -9.648
REMARK INTRA:                  -0.115
REMARK UNBOUND:                -0.414
REMARK  Name = cpd261.pdb
REMARK  8 active torsions:
REMARK  status: ('A' for Active; 'I' for Inactive)
REMARK    1  A    between atoms: C_1  and  C_2
REMARK    2  A    between atoms: C_2  and  C_3
REMARK    3  A    between atoms: C_7  and  N_8
REMARK    4  A    between atoms: C_9  and  O_11
REMARK    5  A    between atoms: O_11  and  C_12
REMARK    6  A    between atoms: C_18  and  C_19
REMARK    7  A    between atoms: N_22  and  C_23
REMARK    8  A    between atoms: N_26  and  C_27
REMARK                            x       y       z     vdW  Elec       q    Type
REMARK                         _______ _______ _______ _____ _____    ______ ____
ROOT
ATOM      1  C   UNL A   1      33.485 -35.026 -31.587  0.00  0.00    +0.134 A 
ATOM      2  C   UNL A   1      32.451 -35.884 -31.980  0.00  0.00    -0.017 A 
ATOM      3  C   UNL A   1      31.132 -35.563 -31.667  0.00  0.00    -0.037 A 
ATOM      4  C   UNL A   1      30.862 -34.358 -31.038  0.00  0.00    +0.032 A 
ATOM      5  C   UNL A   1      31.894 -33.481 -30.715  0.00  0.00    -0.017 A 
ATOM      6  C   UNL A   1      33.222 -33.804 -30.965  0.00  0.00    -0.014 A 
ATOM      7  C   UNL A   1      31.282 -32.253 -30.085  0.00  0.00    +0.002 C 
ATOM      8  C   UNL A   1      31.981 -30.985 -30.592  0.00  0.00    -0.055 C 
ATOM      9  C   UNL A   1      31.241 -32.366 -28.574  0.00  0.00    -0.054 C 
ATOM     10  C   UNL A   1      30.094 -31.478 -28.205  0.00  0.00    -0.048 C 
ATOM     11  N   UNL A   1      29.056 -31.635 -29.291  0.00  0.00    +0.433 N 
ATOM     12  C   UNL A   1      28.521 -30.279 -29.672  0.00  0.00    -0.060 C 
ATOM     13  O   UNL A   1      27.987 -32.347 -28.777  0.00  0.00    -0.289 OA
ATOM     14  C   UNL A   1      29.749 -32.292 -30.629  0.00  0.00    +0.039 C 
ATOM     15  N   UNL A   1      29.636 -33.865 -30.605  0.00  0.00    -0.341 N 
ATOM     16  C   UNL A   1      28.406 -34.523 -31.027  0.00  0.00    -0.001 C 
ENDROOT
BRANCH   1  17
ATOM     17  O   UNL A   1      34.842 -35.329 -31.858  0.00  0.00    -0.411 OA
BRANCH  17  19
ATOM     18  N   UNL A   1      36.750 -36.553 -31.302  0.00  0.00    -0.251 N 
ATOM     19  C   UNL A   1      35.796 -35.658 -30.872  0.00  0.00    +0.410 C 
ATOM     20  O   UNL A   1      35.690 -35.182 -29.748  0.00  0.00    -0.226 OA
ATOM     21  H   UNL A   1      36.572 -36.993 -32.164  0.00  0.00    +0.000 HD
BRANCH  18  26
ATOM     22  C   UNL A   1      40.387 -37.041 -30.487  0.00  0.00    -0.046 A 
ATOM     23  C   UNL A   1      40.250 -37.787 -29.311  0.00  0.00    -0.058 A 
ATOM     24  C   UNL A   1      38.985 -38.111 -28.822  0.00  0.00    -0.060 A 
ATOM     25  C   UNL A   1      37.842 -37.681 -29.495  0.00  0.00    -0.040 A 
ATOM     26  C   UNL A   1      37.950 -36.915 -30.660  0.00  0.00    +0.037 A 
ATOM     27  C   UNL A   1      39.222 -36.596 -31.143  0.00  0.00    -0.037 A 
BRANCH  22  29
ATOM     28  C   UNL A   1      42.401 -37.668 -31.954  0.00  0.00    -0.061 C 
ATOM     29  C   UNL A   1      41.735 -36.643 -31.044  0.00  0.00    -0.030 C 
ENDBRANCH  22  29
ENDBRANCH  18  26
ENDBRANCH  17  19
ENDBRANCH   1  17
TORSDOF 4
ENDMDL
MODEL 8
REMARK VINA RESULT:    -7.532      3.001     10.514
REMARK INTER + INTRA:          -9.707
REMARK INTER:                  -9.646
REMARK INTRA:                  -0.061
REMARK UNBOUND:                -0.414
REMARK  Name = cpd261.pdb
REMARK  8 active torsions:
REMARK  status: ('A' for Active; 'I' for Inactive)
REMARK    1  A    between atoms: C_1  and  C_2
REMARK    2  A    between atoms: C_2  and  C_3
REMARK    3  A    between atoms: C_7  and  N_8
REMARK    4  A    between atoms: C_9  and  O_11
REMARK    5  A    between atoms: O_11  and  C_12
REMARK    6  A    between atoms: C_18  and  C_19
REMARK    7  A    between atoms: N_22  and  C_23
REMARK    8  A    between atoms: N_26  and  C_27
REMARK                            x       y       z     vdW  Elec       q    Type
REMARK                         _______ _______ _______ _____ _____    ______ ____
ROOT
ATOM      1  C   UNL A   1      33.420 -33.040 -31.320  0.00  0.00    +0.134 A 
ATOM      2  C   UNL A   1      33.505 -31.778 -30.718  0.00  0.00    -0.017 A 
ATOM      3  C   UNL A   1      32.339 -31.076 -30.423  0.00  0.00    -0.037 A 
ATOM      4  C   UNL A   1      31.112 -31.675 -30.661  0.00  0.00    +0.032 A 
ATOM      5  C   UNL A   1      31.042 -32.959 -31.195  0.00  0.00    -0.017 A 
ATOM      6  C   UNL A   1      32.189 -33.657 -31.550  0.00  0.00    -0.014 A 
ATOM      7  C   UNL A   1      29.585 -33.343 -31.294  0.00  0.00    +0.002 C 
ATOM      8  C   UNL A   1      29.387 -34.806 -30.877  0.00  0.00    -0.055 C 
ATOM      9  C   UNL A   1      29.017 -33.015 -32.660  0.00  0.00    -0.054 C 
ATOM     10  C   UNL A   1      27.559 -32.830 -32.377  0.00  0.00    -0.048 C 
ATOM     11  N   UNL A   1      27.459 -32.174 -31.021  0.00  0.00    +0.433 N 
ATOM     12  C   UNL A   1      26.378 -32.850 -30.217  0.00  0.00    -0.060 C 
ATOM     13  O   UNL A   1      27.053 -30.863 -31.195  0.00  0.00    -0.289 OA
ATOM     14  C   UNL A   1      28.876 -32.360 -30.210  0.00  0.00    +0.039 C 
ATOM     15  N   UNL A   1      29.841 -31.142 -30.478  0.00  0.00    -0.341 N 
ATOM     16  C   UNL A   1      29.681 -29.897 -29.736  0.00  0.00    -0.001 C 
ENDROOT
BRANCH   1  17
ATOM     17  O   UNL A   1      34.581 -33.776 -31.666  0.00  0.00    -0.411 OA
BRANCH  17  19
ATOM     18  N   UNL A   1      36.274 -35.351 -31.353  0.00  0.00    -0.251 N 
ATOM     19  C   UNL A   1      35.344 -34.531 -30.752  0.00  0.00    +0.410 C 
ATOM     20  O   UNL A   1      35.112 -34.443 -29.553  0.00  0.00    -0.226 OA
ATOM     21  H   UNL A   1      36.191 -35.456 -32.328  0.00  0.00    +0.000 HD
BRANCH  18  26
ATOM     22  C   UNL A   1      39.622 -36.902 -30.639  0.00  0.00    -0.046 A 
ATOM     23  C   UNL A   1      39.302 -37.582 -29.458  0.00  0.00    -0.058 A 
ATOM     24  C   UNL A   1      38.012 -37.518 -28.933  0.00  0.00    -0.060 A 
ATOM     25  C   UNL A   1      37.030 -36.764 -29.575  0.00  0.00    -0.040 A 
ATOM     26  C   UNL A   1      37.329 -36.057 -30.744  0.00  0.00    +0.037 A 
ATOM     27  C   UNL A   1      38.625 -36.127 -31.264  0.00  0.00    -0.037 A 
BRANCH  22  29
ATOM     28  C   UNL A   1      41.987 -35.898 -30.661  0.00  0.00    -0.061 C 
ATOM     29  C   UNL A   1      41.012 -36.919 -31.235  0.00  0.00    -0.030 C 
ENDBRANCH  22  29
ENDBRANCH  18  26
ENDBRANCH  17  19
ENDBRANCH   1  17
TORSDOF 4
ENDMDL
MODEL 9
REMARK VINA RESULT:    -7.348      2.958     10.468
REMARK INTER + INTRA:          -9.480
REMARK INTER:                  -9.055
REMARK INTRA:                  -0.425
REMARK UNBOUND:                -0.414
REMARK  Name = cpd261.pdb
REMARK  8 active torsions:
REMARK  status: ('A' for Active; 'I' for Inactive)
REMARK    1  A    between atoms: C_1  and  C_2
REMARK    2  A    between atoms: C_2  and  C_3
REMARK    3  A    between atoms: C_7  and  N_8
REMARK    4  A    between atoms: C_9  and  O_11
REMARK    5  A    between atoms: O_11  and  C_12
REMARK    6  A    between atoms: C_18  and  C_19
REMARK    7  A    between atoms: N_22  and  C_23
REMARK    8  A    between atoms: N_26  and  C_27
REMARK                            x       y       z     vdW  Elec       q    Type
REMARK                         _______ _______ _______ _____ _____    ______ ____
ROOT
ATOM      1  C   UNL A   1      32.191 -33.831 -31.476  0.00  0.00    +0.134 A 
ATOM      2  C   UNL A   1      31.690 -34.848 -30.654  0.00  0.00    -0.017 A 
ATOM      3  C   UNL A   1      30.665 -34.564 -29.754  0.00  0.00    -0.037 A 
ATOM      4  C   UNL A   1      30.108 -33.295 -29.744  0.00  0.00    +0.032 A 
ATOM      5  C   UNL A   1      30.569 -32.312 -30.616  0.00  0.00    -0.017 A 
ATOM      6  C   UNL A   1      31.627 -32.554 -31.483  0.00  0.00    -0.014 A 
ATOM      7  C   UNL A   1      29.743 -31.068 -30.395  0.00  0.00    +0.002 C 
ATOM      8  C   UNL A   1      29.408 -30.401 -31.735  0.00  0.00    -0.055 C 
ATOM      9  C   UNL A   1      30.400 -30.137 -29.396  0.00  0.00    -0.054 C 
ATOM     10  C   UNL A   1      29.237 -29.382 -28.831  0.00  0.00    -0.048 C 
ATOM     11  N   UNL A   1      28.086 -30.355 -28.748  0.00  0.00    +0.433 N 
ATOM     12  C   UNL A   1      26.831 -29.689 -29.252  0.00  0.00    -0.060 C 
ATOM     13  O   UNL A   1      27.861 -30.658 -27.417  0.00  0.00    -0.289 OA
ATOM     14  C   UNL A   1      28.385 -31.651 -29.714  0.00  0.00    +0.039 C 
ATOM     15  N   UNL A   1      29.115 -32.794 -28.910  0.00  0.00    -0.341 N 
ATOM     16  C   UNL A   1      28.352 -33.708 -28.069  0.00  0.00    -0.001 C 
ENDROOT
BRANCH   1  17
ATOM     17  O   UNL A   1      33.254 -34.068 -32.383  0.00  0.00    -0.411 OA
BRANCH  17  19
ATOM     18  N   UNL A   1      35.417 -34.522 -31.634  0.00  0.00    -0.251 N 
ATOM     19  C   UNL A   1      34.264 -35.032 -32.189  0.00  0.00    +0.410 C 
ATOM     20  O   UNL A   1      34.073 -36.188 -32.548  0.00  0.00    -0.226 OA
ATOM     21  H   UNL A   1      35.480 -33.540 -31.597  0.00  0.00    +0.000 HD
BRANCH  18  26
ATOM     22  C   UNL A   1      38.816 -36.059 -31.178  0.00  0.00    -0.046 A 
ATOM     23  C   UNL A   1      38.581 -36.764 -29.992  0.00  0.00    -0.058 A 
ATOM     24  C   UNL A   1      37.329 -36.721 -29.380  0.00  0.00    -0.060 A 
ATOM     25  C   UNL A   1      36.301 -35.963 -29.939  0.00  0.00    -0.040 A 
ATOM     26  C   UNL A   1      36.515 -35.231 -31.112  0.00  0.00    +0.037 A 
ATOM     27  C   UNL A   1      37.773 -35.281 -31.718  0.00  0.00    -0.037 A 
BRANCH  22  29
ATOM     28  C   UNL A   1      41.106 -37.185 -31.477  0.00  0.00    -0.061 C 
ATOM     29  C   UNL A   1      40.163 -36.054 -31.867  0.00  0.00    -0.030 C 
ENDBRANCH  22  29
ENDBRANCH  18  26
ENDBRANCH  17  19
ENDBRANCH   1  17
TORSDOF 4
ENDMDL
MODEL 10
REMARK VINA RESULT:    -7.278     16.787     18.652
REMARK INTER + INTRA:          -9.393
REMARK INTER:                  -8.774
REMARK INTRA:                  -0.619
REMARK UNBOUND:                -0.414
REMARK  Name = cpd261.pdb
REMARK  8 active torsions:
REMARK  status: ('A' for Active; 'I' for Inactive)
REMARK    1  A    between atoms: C_1  and  C_2
REMARK    2  A    between atoms: C_2  and  C_3
REMARK    3  A    between atoms: C_7  and  N_8
REMARK    4  A    between atoms: C_9  and  O_11
REMARK    5  A    between atoms: O_11  and  C_12
REMARK    6  A    between atoms: C_18  and  C_19
REMARK    7  A    between atoms: N_22  and  C_23
REMARK    8  A    between atoms: N_26  and  C_27
REMARK                            x       y       z     vdW  Elec       q    Type
REMARK                         _______ _______ _______ _____ _____    ______ ____
ROOT
ATOM      1  C   UNL A   1      45.664 -18.629 -35.992  0.00  0.00    +0.134 A 
ATOM      2  C   UNL A   1      46.303 -17.473 -36.457  0.00  0.00    -0.017 A 
ATOM      3  C   UNL A   1      46.703 -17.396 -37.790  0.00  0.00    -0.037 A 
ATOM      4  C   UNL A   1      46.390 -18.437 -38.649  0.00  0.00    +0.032 A 
ATOM      5  C   UNL A   1      45.692 -19.551 -38.188  0.00  0.00    -0.017 A 
ATOM      6  C   UNL A   1      45.333 -19.676 -36.852  0.00  0.00    -0.014 A 
ATOM      7  C   UNL A   1      45.470 -20.478 -39.359  0.00  0.00    +0.002 C 
ATOM      8  C   UNL A   1      44.056 -21.073 -39.311  0.00  0.00    -0.055 C 
ATOM      9  C   UNL A   1      46.567 -21.520 -39.457  0.00  0.00    -0.054 C 
ATOM     10  C   UNL A   1      46.567 -21.865 -40.914  0.00  0.00    -0.048 C 
ATOM     11  N   UNL A   1      46.270 -20.589 -41.663  0.00  0.00    +0.433 N 
ATOM     12  C   UNL A   1      45.263 -20.868 -42.749  0.00  0.00    -0.060 C 
ATOM     13  O   UNL A   1      47.427 -20.174 -42.300  0.00  0.00    -0.289 OA
ATOM     14  C   UNL A   1      45.608 -19.486 -40.640  0.00  0.00    +0.039 C 
ATOM     15  N   UNL A   1      46.725 -18.581 -39.991  0.00  0.00    -0.341 N 
ATOM     16  C   UNL A   1      47.270 -17.443 -40.722  0.00  0.00    -0.001 C 
ENDROOT
BRANCH   1  17
ATOM     17  O   UNL A   1      45.269 -18.761 -34.637  0.00  0.00    -0.411 OA
BRANCH  17  19
ATOM     18  N   UNL A   1      43.139 -19.606 -34.192  0.00  0.00    -0.251 N 
ATOM     19  C   UNL A   1      44.497 -19.829 -34.135  0.00  0.00    +0.410 C 
ATOM     20  O   UNL A   1      45.059 -20.813 -33.669  0.00  0.00    -0.226 OA
ATOM     21  H   UNL A   1      42.862 -18.685 -34.402  0.00  0.00    +0.000 HD
BRANCH  18  26
ATOM     22  C   UNL A   1      40.344 -22.056 -34.749  0.00  0.00    -0.046 A 
ATOM     23  C   UNL A   1      39.985 -22.287 -33.417  0.00  0.00    -0.058 A 
ATOM     24  C   UNL A   1      40.657 -21.639 -32.381  0.00  0.00    -0.060 A 
ATOM     25  C   UNL A   1      41.705 -20.764 -32.664  0.00  0.00    -0.040 A 
ATOM     26  C   UNL A   1      42.099 -20.532 -33.986  0.00  0.00    +0.037 A 
ATOM     27  C   UNL A   1      41.419 -21.185 -35.018  0.00  0.00    -0.037 A 
BRANCH  22  29
ATOM     28  C   UNL A   1      40.193 -22.399 -37.291  0.00  0.00    -0.061 C 
ATOM     29  C   UNL A   1      39.663 -22.752 -35.906  0.00  0.00    -0.030 C 
ENDBRANCH  22  29
ENDBRANCH  18  26
ENDBRANCH  17  19
ENDBRANCH   1  17
TORSDOF 4
ENDMDL
MODEL 11
REMARK VINA RESULT:    -7.169     17.061     20.322
REMARK INTER + INTRA:          -9.259
REMARK INTER:                  -8.786
REMARK INTRA:                  -0.474
REMARK UNBOUND:                -0.414
REMARK  Name = cpd261.pdb
REMARK  8 active torsions:
REMARK  status: ('A' for Active; 'I' for Inactive)
REMARK    1  A    between atoms: C_1  and  C_2
REMARK    2  A    between atoms: C_2  and  C_3
REMARK    3  A    between atoms: C_7  and  N_8
REMARK    4  A    between atoms: C_9  and  O_11
REMARK    5  A    between atoms: O_11  and  C_12
REMARK    6  A    between atoms: C_18  and  C_19
REMARK    7  A    between atoms: N_22  and  C_23
REMARK    8  A    between atoms: N_26  and  C_27
REMARK                            x       y       z     vdW  Elec       q    Type
REMARK                         _______ _______ _______ _____ _____    ______ ____
ROOT
ATOM      1  C   UNL A   1      45.577 -18.965 -35.275  0.00  0.00    +0.134 A 
ATOM      2  C   UNL A   1      45.289 -20.155 -34.595  0.00  0.00    -0.017 A 
ATOM      3  C   UNL A   1      44.120 -20.255 -33.845  0.00  0.00    -0.037 A 
ATOM      4  C   UNL A   1      43.223 -19.198 -33.849  0.00  0.00    +0.032 A 
ATOM      5  C   UNL A   1      43.489 -18.047 -34.587  0.00  0.00    -0.017 A 
ATOM      6  C   UNL A   1      44.674 -17.901 -35.297  0.00  0.00    -0.014 A 
ATOM      7  C   UNL A   1      42.317 -17.109 -34.424  0.00  0.00    +0.002 C 
ATOM      8  C   UNL A   1      41.978 -16.436 -35.761  0.00  0.00    -0.055 C 
ATOM      9  C   UNL A   1      42.543 -16.131 -33.288  0.00  0.00    -0.054 C 
ATOM     10  C   UNL A   1      41.150 -15.787 -32.864  0.00  0.00    -0.048 C 
ATOM     11  N   UNL A   1      40.328 -17.045 -33.008  0.00  0.00    +0.433 N 
ATOM     12  C   UNL A   1      39.009 -16.710 -33.657  0.00  0.00    -0.060 C 
ATOM     13  O   UNL A   1      40.031 -17.524 -31.745  0.00  0.00    -0.289 OA
ATOM     14  C   UNL A   1      41.110 -18.108 -33.988  0.00  0.00    +0.039 C 
ATOM     15  N   UNL A   1      42.030 -19.074 -33.147  0.00  0.00    -0.341 N 
ATOM     16  C   UNL A   1      41.462 -20.241 -32.482  0.00  0.00    -0.001 C 
ENDROOT
BRANCH   1  17
ATOM     17  O   UNL A   1      46.770 -18.810 -36.025  0.00  0.00    -0.411 OA
BRANCH  17  19
ATOM     18  N   UNL A   1      46.658 -20.511 -37.619  0.00  0.00    -0.251 N 
ATOM     19  C   UNL A   1      46.911 -19.179 -37.378  0.00  0.00    +0.410 C 
ATOM     20  O   UNL A   1      47.271 -18.341 -38.197  0.00  0.00    -0.226 OA
ATOM     21  H   UNL A   1      46.583 -21.086 -36.824  0.00  0.00    +0.000 HD
BRANCH  18  26
ATOM     22  C   UNL A   1      47.305 -22.390 -40.809  0.00  0.00    -0.046 A 
ATOM     23  C   UNL A   1      46.029 -22.302 -41.378  0.00  0.00    -0.058 A 
ATOM     24  C   UNL A   1      45.002 -21.635 -40.712  0.00  0.00    -0.060 A 
ATOM     25  C   UNL A   1      45.234 -21.059 -39.463  0.00  0.00    -0.040 A 
ATOM     26  C   UNL A   1      46.494 -21.151 -38.862  0.00  0.00    +0.037 A 
ATOM     27  C   UNL A   1      47.517 -21.821 -39.538  0.00  0.00    -0.037 A 
BRANCH  22  29
ATOM     28  C   UNL A   1      48.041 -24.121 -42.559  0.00  0.00    -0.061 C 
ATOM     29  C   UNL A   1      48.445 -23.124 -41.480  0.00  0.00    -0.030 C 
ENDBRANCH  22  29
ENDBRANCH  18  26
ENDBRANCH  17  19
ENDBRANCH   1  17
TORSDOF 4
ENDMDL
MODEL 12
REMARK VINA RESULT:    -7.114     24.952     28.006
REMARK INTER + INTRA:          -9.192
REMARK INTER:                  -8.552
REMARK INTRA:                  -0.640
REMARK UNBOUND:                -0.414
REMARK  Name = cpd261.pdb
REMARK  8 active torsions:
REMARK  status: ('A' for Active; 'I' for Inactive)
REMARK    1  A    between atoms: C_1  and  C_2
REMARK    2  A    between atoms: C_2  and  C_3
REMARK    3  A    between atoms: C_7  and  N_8
REMARK    4  A    between atoms: C_9  and  O_11
REMARK    5  A    between atoms: O_11  and  C_12
REMARK    6  A    between atoms: C_18  and  C_19
REMARK    7  A    between atoms: N_22  and  C_23
REMARK    8  A    between atoms: N_26  and  C_27
REMARK                            x       y       z     vdW  Elec       q    Type
REMARK                         _______ _______ _______ _____ _____    ______ ____
ROOT
ATOM      1  C   UNL A   1      47.070 -31.539 -53.158  0.00  0.00    +0.134 A 
ATOM      2  C   UNL A   1      46.909 -30.262 -52.605  0.00  0.00    -0.017 A 
ATOM      3  C   UNL A   1      47.202 -29.138 -53.373  0.00  0.00    -0.037 A 
ATOM      4  C   UNL A   1      47.573 -29.303 -54.698  0.00  0.00    +0.032 A 
ATOM      5  C   UNL A   1      47.661 -30.577 -55.255  0.00  0.00    -0.017 A 
ATOM      6  C   UNL A   1      47.430 -31.716 -54.494  0.00  0.00    -0.014 A 
ATOM      7  C   UNL A   1      48.043 -30.424 -56.708  0.00  0.00    +0.002 C 
ATOM      8  C   UNL A   1      47.251 -31.411 -57.577  0.00  0.00    -0.055 C 
ATOM      9  C   UNL A   1      49.544 -30.510 -56.899  0.00  0.00    -0.054 C 
ATOM     10  C   UNL A   1      49.764 -29.722 -58.153  0.00  0.00    -0.048 C 
ATOM     11  N   UNL A   1      48.780 -28.577 -58.125  0.00  0.00    +0.433 N 
ATOM     12  C   UNL A   1      48.144 -28.430 -59.483  0.00  0.00    -0.060 C 
ATOM     13  O   UNL A   1      49.476 -27.404 -57.890  0.00  0.00    -0.289 OA
ATOM     14  C   UNL A   1      47.584 -28.901 -57.046  0.00  0.00    +0.039 C 
ATOM     15  N   UNL A   1      47.944 -28.331 -55.620  0.00  0.00    -0.341 N 
ATOM     16  C   UNL A   1      47.721 -26.924 -55.310  0.00  0.00    -0.001 C 
ENDROOT
BRANCH   1  17
ATOM     17  O   UNL A   1      46.813 -32.711 -52.402  0.00  0.00    -0.411 OA
BRANCH  17  19
ATOM     18  N   UNL A   1      45.503 -34.329 -53.456  0.00  0.00    -0.251 N 
ATOM     19  C   UNL A   1      46.742 -34.009 -52.947  0.00  0.00    +0.410 C 
ATOM     20  O   UNL A   1      47.724 -34.739 -52.895  0.00  0.00    -0.226 OA
ATOM     21  H   UNL A   1      44.772 -33.709 -53.234  0.00  0.00    +0.000 HD
BRANCH  18  26
ATOM     22  C   UNL A   1      45.181 -36.727 -56.333  0.00  0.00    -0.046 A 
ATOM     23  C   UNL A   1      44.294 -37.643 -55.756  0.00  0.00    -0.058 A 
ATOM     24  C   UNL A   1      43.827 -37.453 -54.456  0.00  0.00    -0.060 A 
ATOM     25  C   UNL A   1      44.251 -36.353 -53.713  0.00  0.00    -0.040 A 
ATOM     26  C   UNL A   1      45.154 -35.433 -54.256  0.00  0.00    +0.037 A 
ATOM     27  C   UNL A   1      45.616 -35.631 -55.560  0.00  0.00    -0.037 A 
BRANCH  22  29
ATOM     28  C   UNL A   1      46.047 -35.612 -58.479  0.00  0.00    -0.061 C 
ATOM     29  C   UNL A   1      45.736 -36.901 -57.729  0.00  0.00    -0.030 C 
ENDBRANCH  22  29
ENDBRANCH  18  26
ENDBRANCH  17  19
ENDBRANCH   1  17
TORSDOF 4
ENDMDL
MODEL 13
REMARK VINA RESULT:    -7.095     15.728     19.005
REMARK INTER + INTRA:          -9.168
REMARK INTER:                  -8.622
REMARK INTRA:                  -0.546
REMARK UNBOUND:                -0.414
REMARK  Name = cpd261.pdb
REMARK  8 active torsions:
REMARK  status: ('A' for Active; 'I' for Inactive)
REMARK    1  A    between atoms: C_1  and  C_2
REMARK    2  A    between atoms: C_2  and  C_3
REMARK    3  A    between atoms: C_7  and  N_8
REMARK    4  A    between atoms: C_9  and  O_11
REMARK    5  A    between atoms: O_11  and  C_12
REMARK    6  A    between atoms: C_18  and  C_19
REMARK    7  A    between atoms: N_22  and  C_23
REMARK    8  A    between atoms: N_26  and  C_27
REMARK                            x       y       z     vdW  Elec       q    Type
REMARK                         _______ _______ _______ _____ _____    ______ ____
ROOT
ATOM      1  C   UNL A   1      40.650 -21.554 -38.529  0.00  0.00    +0.134 A 
ATOM      2  C   UNL A   1      39.730 -20.601 -38.985  0.00  0.00    -0.017 A 
ATOM      3  C   UNL A   1      39.020 -19.834 -38.065  0.00  0.00    -0.037 A 
ATOM      4  C   UNL A   1      39.295 -19.975 -36.714  0.00  0.00    +0.032 A 
ATOM      5  C   UNL A   1      40.262 -20.877 -36.278  0.00  0.00    -0.017 A 
ATOM      6  C   UNL A   1      40.943 -21.694 -37.172  0.00  0.00    -0.014 A 
ATOM      7  C   UNL A   1      40.357 -20.768 -34.775  0.00  0.00    +0.002 C 
ATOM      8  C   UNL A   1      41.823 -20.830 -34.324  0.00  0.00    -0.055 C 
ATOM      9  C   UNL A   1      39.463 -21.781 -34.088  0.00  0.00    -0.054 C 
ATOM     10  C   UNL A   1      39.178 -21.131 -32.769  0.00  0.00    -0.048 C 
ATOM     11  N   UNL A   1      39.066 -19.649 -33.030  0.00  0.00    +0.433 N 
ATOM     12  C   UNL A   1      39.821 -18.895 -31.966  0.00  0.00    -0.060 C 
ATOM     13  O   UNL A   1      37.739 -19.279 -32.904  0.00  0.00    -0.289 OA
ATOM     14  C   UNL A   1      39.752 -19.287 -34.479  0.00  0.00    +0.039 C 
ATOM     15  N   UNL A   1      38.682 -19.344 -35.637  0.00  0.00    -0.341 N 
ATOM     16  C   UNL A   1      37.793 -18.213 -35.875  0.00  0.00    -0.001 C 
ENDROOT
BRANCH   1  17
ATOM     17  O   UNL A   1      41.371 -22.378 -39.429  0.00  0.00    -0.411 OA
BRANCH  17  19
ATOM     18  N   UNL A   1      43.469 -21.416 -39.775  0.00  0.00    -0.251 N 
ATOM     19  C   UNL A   1      42.319 -21.900 -40.358  0.00  0.00    +0.410 C 
ATOM     20  O   UNL A   1      42.051 -21.910 -41.553  0.00  0.00    -0.226 OA
ATOM     21  H   UNL A   1      43.439 -21.291 -38.799  0.00  0.00    +0.000 HD
BRANCH  18  26
ATOM     22  C   UNL A   1      46.933 -21.575 -41.226  0.00  0.00    -0.046 A 
ATOM     23  C   UNL A   1      47.082 -20.230 -41.586  0.00  0.00    -0.058 A 
ATOM     24  C   UNL A   1      46.057 -19.316 -41.344  0.00  0.00    -0.060 A 
ATOM     25  C   UNL A   1      44.867 -19.737 -40.752  0.00  0.00    -0.040 A 
ATOM     26  C   UNL A   1      44.683 -21.078 -40.403  0.00  0.00    +0.037 A 
ATOM     27  C   UNL A   1      45.716 -21.988 -40.648  0.00  0.00    -0.037 A 
BRANCH  22  29
ATOM     28  C   UNL A   1      47.584 -23.782 -42.369  0.00  0.00    -0.061 C 
ATOM     29  C   UNL A   1      48.003 -22.610 -41.490  0.00  0.00    -0.030 C 
ENDBRANCH  22  29
ENDBRANCH  18  26
ENDBRANCH  17  19
ENDBRANCH   1  17
TORSDOF 4
ENDMDL
MODEL 14
REMARK VINA RESULT:    -7.045     35.858     37.554
REMARK INTER + INTRA:          -9.107
REMARK INTER:                  -8.547
REMARK INTRA:                  -0.559
REMARK UNBOUND:                -0.414
REMARK  Name = cpd261.pdb
REMARK  8 active torsions:
REMARK  status: ('A' for Active; 'I' for Inactive)
REMARK    1  A    between atoms: C_1  and  C_2
REMARK    2  A    between atoms: C_2  and  C_3
REMARK    3  A    between atoms: C_7  and  N_8
REMARK    4  A    between atoms: C_9  and  O_11
REMARK    5  A    between atoms: O_11  and  C_12
REMARK    6  A    between atoms: C_18  and  C_19
REMARK    7  A    between atoms: N_22  and  C_23
REMARK    8  A    between atoms: N_26  and  C_27
REMARK                            x       y       z     vdW  Elec       q    Type
REMARK                         _______ _______ _______ _____ _____    ______ ____
ROOT
ATOM      1  C   UNL A   1      62.840 -20.285  -9.517  0.00  0.00    +0.134 A 
ATOM      2  C   UNL A   1      63.086 -19.688  -8.274  0.00  0.00    -0.017 A 
ATOM      3  C   UNL A   1      63.375 -20.487  -7.171  0.00  0.00    -0.037 A 
ATOM      4  C   UNL A   1      63.488 -21.858  -7.342  0.00  0.00    +0.032 A 
ATOM      5  C   UNL A   1      63.309 -22.432  -8.598  0.00  0.00    -0.017 A 
ATOM      6  C   UNL A   1      62.965 -21.663  -9.702  0.00  0.00    -0.014 A 
ATOM      7  C   UNL A   1      63.537 -23.919  -8.467  0.00  0.00    +0.002 C 
ATOM      8  C   UNL A   1      64.331 -24.448  -9.668  0.00  0.00    -0.055 C 
ATOM      9  C   UNL A   1      62.237 -24.660  -8.220  0.00  0.00    -0.054 C 
ATOM     10  C   UNL A   1      62.689 -25.889  -7.494  0.00  0.00    -0.048 C 
ATOM     11  N   UNL A   1      63.837 -25.473  -6.606  0.00  0.00    +0.433 N 
ATOM     12  C   UNL A   1      64.943 -26.491  -6.707  0.00  0.00    -0.060 C 
ATOM     13  O   UNL A   1      63.406 -25.493  -5.291  0.00  0.00    -0.289 OA
ATOM     14  C   UNL A   1      64.438 -24.031  -7.117  0.00  0.00    +0.039 C 
ATOM     15  N   UNL A   1      63.727 -22.832  -6.379  0.00  0.00    -0.341 N 
ATOM     16  C   UNL A   1      64.150 -22.434  -5.042  0.00  0.00    -0.001 C 
ENDROOT
BRANCH   1  17
ATOM     17  O   UNL A   1      62.512 -19.511 -10.658  0.00  0.00    -0.411 OA
BRANCH  17  19
ATOM     18  N   UNL A   1      64.450 -19.051 -11.874  0.00  0.00    -0.251 N 
ATOM     19  C   UNL A   1      63.354 -18.531 -11.222  0.00  0.00    +0.410 C 
ATOM     20  O   UNL A   1      63.089 -17.345 -11.065  0.00  0.00    -0.226 OA
ATOM     21  H   UNL A   1      64.623 -20.009 -11.731  0.00  0.00    +0.000 HD
BRANCH  18  26
ATOM     22  C   UNL A   1      66.171 -17.649 -14.907  0.00  0.00    -0.046 A 
ATOM     23  C   UNL A   1      67.290 -17.085 -14.284  0.00  0.00    -0.058 A 
ATOM     24  C   UNL A   1      67.453 -17.179 -12.902  0.00  0.00    -0.060 A 
ATOM     25  C   UNL A   1      66.492 -17.827 -12.126  0.00  0.00    -0.040 A 
ATOM     26  C   UNL A   1      65.353 -18.380 -12.721  0.00  0.00    +0.037 A 
ATOM     27  C   UNL A   1      65.200 -18.281 -14.106  0.00  0.00    -0.037 A 
BRANCH  22  29
ATOM     28  C   UNL A   1      66.465 -16.289 -17.067  0.00  0.00    -0.061 C 
ATOM     29  C   UNL A   1      65.937 -17.552 -16.398  0.00  0.00    -0.030 C 
ENDBRANCH  22  29
ENDBRANCH  18  26
ENDBRANCH  17  19
ENDBRANCH   1  17
TORSDOF 4
ENDMDL
MODEL 15
REMARK VINA RESULT:    -6.940     17.585     19.397
REMARK INTER + INTRA:          -8.976
REMARK INTER:                  -8.629
REMARK INTRA:                  -0.347
REMARK UNBOUND:                -0.414
REMARK  Name = cpd261.pdb
REMARK  8 active torsions:
REMARK  status: ('A' for Active; 'I' for Inactive)
REMARK    1  A    between atoms: C_1  and  C_2
REMARK    2  A    between atoms: C_2  and  C_3
REMARK    3  A    between atoms: C_7  and  N_8
REMARK    4  A    between atoms: C_9  and  O_11
REMARK    5  A    between atoms: O_11  and  C_12
REMARK    6  A    between atoms: C_18  and  C_19
REMARK    7  A    between atoms: N_22  and  C_23
REMARK    8  A    between atoms: N_26  and  C_27
REMARK                            x       y       z     vdW  Elec       q    Type
REMARK                         _______ _______ _______ _____ _____    ______ ____
ROOT
ATOM      1  C   UNL A   1      46.360 -18.192 -35.190  0.00  0.00    +0.134 A 
ATOM      2  C   UNL A   1      46.837 -16.995 -35.737  0.00  0.00    -0.017 A 
ATOM      3  C   UNL A   1      46.971 -16.874 -37.119  0.00  0.00    -0.037 A 
ATOM      4  C   UNL A   1      46.555 -17.917 -37.931  0.00  0.00    +0.032 A 
ATOM      5  C   UNL A   1      46.017 -19.075 -37.376  0.00  0.00    -0.017 A 
ATOM      6  C   UNL A   1      45.926 -19.243 -36.000  0.00  0.00    -0.014 A 
ATOM      7  C   UNL A   1      45.625 -19.995 -38.508  0.00  0.00    +0.002 C 
ATOM      8  C   UNL A   1      44.279 -20.669 -38.210  0.00  0.00    -0.055 C 
ATOM      9  C   UNL A   1      46.736 -20.970 -38.840  0.00  0.00    -0.054 C 
ATOM     10  C   UNL A   1      46.477 -21.291 -40.279  0.00  0.00    -0.048 C 
ATOM     11  N   UNL A   1      45.976 -20.022 -40.925  0.00  0.00    +0.433 N 
ATOM     12  C   UNL A   1      44.796 -20.340 -41.807  0.00  0.00    -0.060 C 
ATOM     13  O   UNL A   1      46.966 -19.532 -41.757  0.00  0.00    -0.289 OA
ATOM     14  C   UNL A   1      45.464 -18.975 -39.765  0.00  0.00    +0.039 C 
ATOM     15  N   UNL A   1      46.635 -18.019 -39.315  0.00  0.00    -0.341 N 
ATOM     16  C   UNL A   1      46.970 -16.841 -40.106  0.00  0.00    -0.001 C 
ENDROOT
BRANCH   1  17
ATOM     17  O   UNL A   1      46.237 -18.369 -33.789  0.00  0.00    -0.411 OA
BRANCH  17  19
ATOM     18  N   UNL A   1      43.904 -18.327 -33.783  0.00  0.00    -0.251 N 
ATOM     19  C   UNL A   1      45.057 -18.124 -33.057  0.00  0.00    +0.410 C 
ATOM     20  O   UNL A   1      45.136 -17.728 -31.901  0.00  0.00    -0.226 OA
ATOM     21  H   UNL A   1      44.019 -18.444 -34.753  0.00  0.00    +0.000 HD
BRANCH  18  26
ATOM     22  C   UNL A   1      40.546 -19.576 -32.645  0.00  0.00    -0.046 A 
ATOM     23  C   UNL A   1      39.911 -18.346 -32.443  0.00  0.00    -0.058 A 
ATOM     24  C   UNL A   1      40.590 -17.151 -32.683  0.00  0.00    -0.060 A 
ATOM     25  C   UNL A   1      41.915 -17.173 -33.117  0.00  0.00    -0.040 A 
ATOM     26  C   UNL A   1      42.580 -18.389 -33.307  0.00  0.00    +0.037 A 
ATOM     27  C   UNL A   1      41.892 -19.581 -33.063  0.00  0.00    -0.037 A 
BRANCH  22  29
ATOM     28  C   UNL A   1      40.773 -22.120 -32.359  0.00  0.00    -0.061 C 
ATOM     29  C   UNL A   1      39.863 -20.898 -32.374  0.00  0.00    -0.030 C 
ENDBRANCH  22  29
ENDBRANCH  18  26
ENDBRANCH  17  19
ENDBRANCH   1  17
TORSDOF 4
ENDMDL
MODEL 16
REMARK VINA RESULT:    -6.885     15.621     18.983
REMARK INTER + INTRA:          -8.909
REMARK INTER:                  -9.342
REMARK INTRA:                   0.434
REMARK UNBOUND:                -0.414
REMARK  Name = cpd261.pdb
REMARK  8 active torsions:
REMARK  status: ('A' for Active; 'I' for Inactive)
REMARK    1  A    between atoms: C_1  and  C_2
REMARK    2  A    between atoms: C_2  and  C_3
REMARK    3  A    between atoms: C_7  and  N_8
REMARK    4  A    between atoms: C_9  and  O_11
REMARK    5  A    between atoms: O_11  and  C_12
REMARK    6  A    between atoms: C_18  and  C_19
REMARK    7  A    between atoms: N_22  and  C_23
REMARK    8  A    between atoms: N_26  and  C_27
REMARK                            x       y       z     vdW  Elec       q    Type
REMARK                         _______ _______ _______ _____ _____    ______ ____
ROOT
ATOM      1  C   UNL A   1      43.936 -19.995 -36.054  0.00  0.00    +0.134 A 
ATOM      2  C   UNL A   1      43.352 -20.408 -37.257  0.00  0.00    -0.017 A 
ATOM      3  C   UNL A   1      42.100 -21.019 -37.241  0.00  0.00    -0.037 A 
ATOM      4  C   UNL A   1      41.422 -21.137 -36.038  0.00  0.00    +0.032 A 
ATOM      5  C   UNL A   1      41.986 -20.659 -34.857  0.00  0.00    -0.017 A 
ATOM      6  C   UNL A   1      43.256 -20.097 -34.839  0.00  0.00    -0.014 A 
ATOM      7  C   UNL A   1      40.997 -20.893 -33.741  0.00  0.00    +0.002 C 
ATOM      8  C   UNL A   1      40.958 -19.685 -32.796  0.00  0.00    -0.055 C 
ATOM      9  C   UNL A   1      41.258 -22.210 -33.037  0.00  0.00    -0.054 C 
ATOM     10  C   UNL A   1      39.911 -22.568 -32.491  0.00  0.00    -0.048 C 
ATOM     11  N   UNL A   1      38.895 -22.114 -33.511  0.00  0.00    +0.433 N 
ATOM     12  C   UNL A   1      37.752 -21.428 -32.808  0.00  0.00    -0.060 C 
ATOM     13  O   UNL A   1      38.360 -23.232 -34.127  0.00  0.00    -0.289 OA
ATOM     14  C   UNL A   1      39.581 -21.023 -34.531  0.00  0.00    +0.039 C 
ATOM     15  N   UNL A   1      40.195 -21.742 -35.793  0.00  0.00    -0.341 N 
ATOM     16  C   UNL A   1      39.342 -22.120 -36.914  0.00  0.00    -0.001 C 
ENDROOT
BRANCH   1  17
ATOM     17  O   UNL A   1      45.221 -19.397 -36.022  0.00  0.00    -0.411 OA
BRANCH  17  19
ATOM     18  N   UNL A   1      45.784 -20.278 -38.108  0.00  0.00    -0.251 N 
ATOM     19  C   UNL A   1      46.232 -19.632 -36.976  0.00  0.00    +0.410 C 
ATOM     20  O   UNL A   1      47.385 -19.302 -36.729  0.00  0.00    -0.226 OA
ATOM     21  H   UNL A   1      44.877 -20.655 -38.060  0.00  0.00    +0.000 HD
BRANCH  18  26
ATOM     22  C   UNL A   1      47.843 -21.747 -40.888  0.00  0.00    -0.046 A 
ATOM     23  C   UNL A   1      47.856 -20.649 -41.756  0.00  0.00    -0.058 A 
ATOM     24  C   UNL A   1      47.200 -19.468 -41.412  0.00  0.00    -0.060 A 
ATOM     25  C   UNL A   1      46.513 -19.375 -40.202  0.00  0.00    -0.040 A 
ATOM     26  C   UNL A   1      46.466 -20.464 -39.326  0.00  0.00    +0.037 A 
ATOM     27  C   UNL A   1      47.126 -21.644 -39.679  0.00  0.00    -0.037 A 
BRANCH  22  29
ATOM     28  C   UNL A   1      47.892 -23.844 -42.373  0.00  0.00    -0.061 C 
ATOM     29  C   UNL A   1      48.518 -23.058 -41.226  0.00  0.00    -0.030 C 
ENDBRANCH  22  29
ENDBRANCH  18  26
ENDBRANCH  17  19
ENDBRANCH   1  17
TORSDOF 4
ENDMDL
MODEL 17
REMARK VINA RESULT:    -6.870     33.283     36.213
REMARK INTER + INTRA:          -8.890
REMARK INTER:                  -8.419
REMARK INTRA:                  -0.471
REMARK UNBOUND:                -0.414
REMARK  Name = cpd261.pdb
REMARK  8 active torsions:
REMARK  status: ('A' for Active; 'I' for Inactive)
REMARK    1  A    between atoms: C_1  and  C_2
REMARK    2  A    between atoms: C_2  and  C_3
REMARK    3  A    between atoms: C_7  and  N_8
REMARK    4  A    between atoms: C_9  and  O_11
REMARK    5  A    between atoms: O_11  and  C_12
REMARK    6  A    between atoms: C_18  and  C_19
REMARK    7  A    between atoms: N_22  and  C_23
REMARK    8  A    between atoms: N_26  and  C_27
REMARK                            x       y       z     vdW  Elec       q    Type
REMARK                         _______ _______ _______ _____ _____    ______ ____
ROOT
ATOM      1  C   UNL A   1      63.099 -21.003  -9.671  0.00  0.00    +0.134 A 
ATOM      2  C   UNL A   1      63.058 -22.368  -9.982  0.00  0.00    -0.017 A 
ATOM      3  C   UNL A   1      63.171 -23.310  -8.962  0.00  0.00    -0.037 A 
ATOM      4  C   UNL A   1      63.244 -22.877  -7.648  0.00  0.00    +0.032 A 
ATOM      5  C   UNL A   1      63.214 -21.517  -7.348  0.00  0.00    -0.017 A 
ATOM      6  C   UNL A   1      63.159 -20.557  -8.350  0.00  0.00    -0.014 A 
ATOM      7  C   UNL A   1      63.267 -21.371  -5.845  0.00  0.00    +0.002 C 
ATOM      8  C   UNL A   1      62.309 -20.267  -5.380  0.00  0.00    -0.055 C 
ATOM      9  C   UNL A   1      64.691 -21.191  -5.356  0.00  0.00    -0.054 C 
ATOM     10  C   UNL A   1      64.628 -21.713  -3.955  0.00  0.00    -0.048 C 
ATOM     11  N   UNL A   1      63.669 -22.879  -3.967  0.00  0.00    +0.433 N 
ATOM     12  C   UNL A   1      62.751 -22.785  -2.776  0.00  0.00    -0.060 C 
ATOM     13  O   UNL A   1      64.394 -24.047  -3.810  0.00  0.00    -0.289 OA
ATOM     14  C   UNL A   1      62.739 -22.817  -5.321  0.00  0.00    +0.039 C 
ATOM     15  N   UNL A   1      63.400 -23.638  -6.494  0.00  0.00    -0.341 N 
ATOM     16  C   UNL A   1      63.244 -25.086  -6.561  0.00  0.00    -0.001 C 
ENDROOT
BRANCH   1  17
ATOM     17  O   UNL A   1      63.019 -20.011 -10.680  0.00  0.00    -0.411 OA
BRANCH  17  19
ATOM     18  N   UNL A   1      60.706 -19.799 -10.901  0.00  0.00    -0.251 N 
ATOM     19  C   UNL A   1      61.919 -19.148 -10.861  0.00  0.00    +0.410 C 
ATOM     20  O   UNL A   1      62.111 -17.946 -11.004  0.00  0.00    -0.226 OA
ATOM     21  H   UNL A   1      60.744 -20.779 -10.977  0.00  0.00    +0.000 HD
BRANCH  18  26
ATOM     22  C   UNL A   1      57.158 -18.851 -11.703  0.00  0.00    -0.046 A 
ATOM     23  C   UNL A   1      56.925 -17.961 -10.649  0.00  0.00    -0.058 A 
ATOM     24  C   UNL A   1      57.924 -17.694  -9.714  0.00  0.00    -0.060 A 
ATOM     25  C   UNL A   1      59.164 -18.324  -9.815  0.00  0.00    -0.040 A 
ATOM     26  C   UNL A   1      59.417 -19.235 -10.846  0.00  0.00    +0.037 A 
ATOM     27  C   UNL A   1      58.409 -19.495 -11.778  0.00  0.00    -0.037 A 
BRANCH  22  29
ATOM     28  C   UNL A   1      56.521 -20.187 -13.804  0.00  0.00    -0.061 C 
ATOM     29  C   UNL A   1      56.099 -19.193 -12.728  0.00  0.00    -0.030 C 
ENDBRANCH  22  29
ENDBRANCH  18  26
ENDBRANCH  17  19
ENDBRANCH   1  17
TORSDOF 4
ENDMDL
MODEL 18
REMARK VINA RESULT:    -6.807     16.305     18.022
REMARK INTER + INTRA:          -8.812
REMARK INTER:                  -8.287
REMARK INTRA:                  -0.525
REMARK UNBOUND:                -0.414
REMARK  Name = cpd261.pdb
REMARK  8 active torsions:
REMARK  status: ('A' for Active; 'I' for Inactive)
REMARK    1  A    between atoms: C_1  and  C_2
REMARK    2  A    between atoms: C_2  and  C_3
REMARK    3  A    between atoms: C_7  and  N_8
REMARK    4  A    between atoms: C_9  and  O_11
REMARK    5  A    between atoms: O_11  and  C_12
REMARK    6  A    between atoms: C_18  and  C_19
REMARK    7  A    between atoms: N_22  and  C_23
REMARK    8  A    between atoms: N_26  and  C_27
REMARK                            x       y       z     vdW  Elec       q    Type
REMARK                         _______ _______ _______ _____ _____    ______ ____
ROOT
ATOM      1  C   UNL A   1      44.493 -18.625 -35.778  0.00  0.00    +0.134 A 
ATOM      2  C   UNL A   1      45.782 -19.170 -35.709  0.00  0.00    -0.017 A 
ATOM      3  C   UNL A   1      46.308 -19.837 -36.813  0.00  0.00    -0.037 A 
ATOM      4  C   UNL A   1      45.573 -19.882 -37.988  0.00  0.00    +0.032 A 
ATOM      5  C   UNL A   1      44.322 -19.275 -38.064  0.00  0.00    -0.017 A 
ATOM      6  C   UNL A   1      43.752 -18.653 -36.960  0.00  0.00    -0.014 A 
ATOM      7  C   UNL A   1      43.800 -19.458 -39.469  0.00  0.00    +0.002 C 
ATOM      8  C   UNL A   1      43.117 -18.175 -39.960  0.00  0.00    -0.055 C 
ATOM      9  C   UNL A   1      42.930 -20.694 -39.580  0.00  0.00    -0.054 C 
ATOM     10  C   UNL A   1      43.066 -21.067 -41.024  0.00  0.00    -0.048 C 
ATOM     11  N   UNL A   1      44.488 -20.754 -41.421  0.00  0.00    +0.433 N 
ATOM     12  C   UNL A   1      44.494 -20.065 -42.761  0.00  0.00    -0.060 C 
ATOM     13  O   UNL A   1      45.170 -21.946 -41.592  0.00  0.00    -0.289 OA
ATOM     14  C   UNL A   1      45.156 -19.725 -40.328  0.00  0.00    +0.039 C 
ATOM     15  N   UNL A   1      45.889 -20.521 -39.181  0.00  0.00    -0.341 N 
ATOM     16  C   UNL A   1      47.238 -21.037 -39.386  0.00  0.00    -0.001 C 
ENDROOT
BRANCH   1  17
ATOM     17  O   UNL A   1      43.908 -17.965 -34.669  0.00  0.00    -0.411 OA
BRANCH  17  19
ATOM     18  N   UNL A   1      41.849 -18.949 -34.182  0.00  0.00    -0.251 N 
ATOM     19  C   UNL A   1      43.093 -18.597 -33.707  0.00  0.00    +0.410 C 
ATOM     20  O   UNL A   1      43.511 -18.744 -32.565  0.00  0.00    -0.226 OA
ATOM     21  H   UNL A   1      41.600 -18.576 -35.058  0.00  0.00    +0.000 HD
BRANCH  18  26
ATOM     22  C   UNL A   1      39.782 -21.923 -33.175  0.00  0.00    -0.046 A 
ATOM     23  C   UNL A   1      38.862 -21.278 -32.340  0.00  0.00    -0.058 A 
ATOM     24  C   UNL A   1      38.940 -19.902 -32.132  0.00  0.00    -0.060 A 
ATOM     25  C   UNL A   1      39.945 -19.155 -32.746  0.00  0.00    -0.040 A 
ATOM     26  C   UNL A   1      40.890 -19.777 -33.568  0.00  0.00    +0.037 A 
ATOM     27  C   UNL A   1      40.804 -21.157 -33.771  0.00  0.00    -0.037 A 
BRANCH  22  29
ATOM     28  C   UNL A   1      38.372 -24.033 -33.581  0.00  0.00    -0.061 C 
ATOM     29  C   UNL A   1      39.756 -23.416 -33.413  0.00  0.00    -0.030 C 
ENDBRANCH  22  29
ENDBRANCH  18  26
ENDBRANCH  17  19
ENDBRANCH   1  17
TORSDOF 4
ENDMDL
MODEL 19
REMARK VINA RESULT:    -6.716     15.950     19.148
REMARK INTER + INTRA:          -8.700
REMARK INTER:                  -8.180
REMARK INTRA:                  -0.520
REMARK UNBOUND:                -0.414
REMARK  Name = cpd261.pdb
REMARK  8 active torsions:
REMARK  status: ('A' for Active; 'I' for Inactive)
REMARK    1  A    between atoms: C_1  and  C_2
REMARK    2  A    between atoms: C_2  and  C_3
REMARK    3  A    between atoms: C_7  and  N_8
REMARK    4  A    between atoms: C_9  and  O_11
REMARK    5  A    between atoms: O_11  and  C_12
REMARK    6  A    between atoms: C_18  and  C_19
REMARK    7  A    between atoms: N_22  and  C_23
REMARK    8  A    between atoms: N_26  and  C_27
REMARK                            x       y       z     vdW  Elec       q    Type
REMARK                         _______ _______ _______ _____ _____    ______ ____
ROOT
ATOM      1  C   UNL A   1      43.832 -18.893 -33.482  0.00  0.00    +0.134 A 
ATOM      2  C   UNL A   1      43.368 -17.602 -33.201  0.00  0.00    -0.017 A 
ATOM      3  C   UNL A   1      41.999 -17.372 -33.086  0.00  0.00    -0.037 A 
ATOM      4  C   UNL A   1      41.124 -18.443 -33.176  0.00  0.00    +0.032 A 
ATOM      5  C   UNL A   1      41.605 -19.734 -33.386  0.00  0.00    -0.017 A 
ATOM      6  C   UNL A   1      42.960 -19.981 -33.560  0.00  0.00    -0.014 A 
ATOM      7  C   UNL A   1      40.424 -20.675 -33.393  0.00  0.00    +0.002 C 
ATOM      8  C   UNL A   1      40.762 -21.966 -32.638  0.00  0.00    -0.055 C 
ATOM      9  C   UNL A   1      39.909 -20.907 -34.800  0.00  0.00    -0.054 C 
ATOM     10  C   UNL A   1      38.471 -21.257 -34.574  0.00  0.00    -0.048 C 
ATOM     11  N   UNL A   1      37.996 -20.413 -33.415  0.00  0.00    +0.433 N 
ATOM     12  C   UNL A   1      37.184 -21.267 -32.474  0.00  0.00    -0.060 C 
ATOM     13  O   UNL A   1      37.137 -19.443 -33.901  0.00  0.00    -0.289 OA
ATOM     14  C   UNL A   1      39.289 -19.840 -32.579  0.00  0.00    +0.039 C 
ATOM     15  N   UNL A   1      39.735 -18.431 -33.131  0.00  0.00    -0.341 N 
ATOM     16  C   UNL A   1      39.039 -17.221 -32.710  0.00  0.00    -0.001 C 
ENDROOT
BRANCH   1  17
ATOM     17  O   UNL A   1      45.214 -19.166 -33.637  0.00  0.00    -0.411 OA
BRANCH  17  19
ATOM     18  N   UNL A   1      45.179 -19.277 -35.968  0.00  0.00    -0.251 N 
ATOM     19  C   UNL A   1      45.793 -19.696 -34.808  0.00  0.00    +0.410 C 
ATOM     20  O   UNL A   1      46.726 -20.485 -34.716  0.00  0.00    -0.226 OA
ATOM     21  H   UNL A   1      44.320 -18.811 -35.857  0.00  0.00    +0.000 HD
BRANCH  18  26
ATOM     22  C   UNL A   1      45.918 -20.690 -39.372  0.00  0.00    -0.046 A 
ATOM     23  C   UNL A   1      46.674 -19.632 -39.889  0.00  0.00    -0.058 A 
ATOM     24  C   UNL A   1      46.923 -18.496 -39.119  0.00  0.00    -0.060 A 
ATOM     25  C   UNL A   1      46.407 -18.400 -37.826  0.00  0.00    -0.040 A 
ATOM     26  C   UNL A   1      45.630 -19.433 -37.292  0.00  0.00    +0.037 A 
ATOM     27  C   UNL A   1      45.387 -20.567 -38.072  0.00  0.00    -0.037 A 
BRANCH  22  29
ATOM     28  C   UNL A   1      46.660 -22.349 -41.188  0.00  0.00    -0.061 C 
ATOM     29  C   UNL A   1      45.600 -21.930 -40.176  0.00  0.00    -0.030 C 
ENDBRANCH  22  29
ENDBRANCH  18  26
ENDBRANCH  17  19
ENDBRANCH   1  17
TORSDOF 4
ENDMDL
MODEL 20
REMARK VINA RESULT:    -6.324     16.238     19.464
REMARK INTER + INTRA:          -8.216
REMARK INTER:                  -7.668
REMARK INTRA:                  -0.548
REMARK UNBOUND:                -0.414
REMARK  Name = cpd261.pdb
REMARK  8 active torsions:
REMARK  status: ('A' for Active; 'I' for Inactive)
REMARK    1  A    between atoms: C_1  and  C_2
REMARK    2  A    between atoms: C_2  and  C_3
REMARK    3  A    between atoms: C_7  and  N_8
REMARK    4  A    between atoms: C_9  and  O_11
REMARK    5  A    between atoms: O_11  and  C_12
REMARK    6  A    between atoms: C_18  and  C_19
REMARK    7  A    between atoms: N_22  and  C_23
REMARK    8  A    between atoms: N_26  and  C_27
REMARK                            x       y       z     vdW  Elec       q    Type
REMARK                         _______ _______ _______ _____ _____    ______ ____
ROOT
ATOM      1  C   UNL A   1      43.723 -18.865 -35.956  0.00  0.00    +0.134 A 
ATOM      2  C   UNL A   1      43.104 -17.650 -36.276  0.00  0.00    -0.017 A 
ATOM      3  C   UNL A   1      41.740 -17.489 -36.041  0.00  0.00    -0.037 A 
ATOM      4  C   UNL A   1      41.037 -18.509 -35.421  0.00  0.00    +0.032 A 
ATOM      5  C   UNL A   1      41.680 -19.686 -35.044  0.00  0.00    -0.017 A 
ATOM      6  C   UNL A   1      43.026 -19.893 -35.319  0.00  0.00    -0.014 A 
ATOM      7  C   UNL A   1      40.666 -20.573 -34.363  0.00  0.00    +0.002 C 
ATOM      8  C   UNL A   1      41.290 -21.261 -33.141  0.00  0.00    -0.055 C 
ATOM      9  C   UNL A   1      40.024 -21.535 -35.343  0.00  0.00    -0.054 C 
ATOM     10  C   UNL A   1      38.696 -21.815 -34.712  0.00  0.00    -0.048 C 
ATOM     11  N   UNL A   1      38.243 -20.529 -34.064  0.00  0.00    +0.433 N 
ATOM     12  C   UNL A   1      37.695 -20.826 -32.692  0.00  0.00    -0.060 C 
ATOM     13  O   UNL A   1      37.192 -20.011 -34.801  0.00  0.00    -0.289 OA
ATOM     14  C   UNL A   1      39.526 -19.518 -33.880  0.00  0.00    +0.039 C 
ATOM     15  N   UNL A   1      39.678 -18.571 -35.132  0.00  0.00    -0.341 N 
ATOM     16  C   UNL A   1      38.861 -17.369 -35.251  0.00  0.00    -0.001 C 
ENDROOT
BRANCH   1  17
ATOM     17  O   UNL A   1      45.101 -19.082 -36.207  0.00  0.00    -0.411 OA
BRANCH  17  19
ATOM     18  N   UNL A   1      44.858 -20.191 -38.246  0.00  0.00    -0.251 N 
ATOM     19  C   UNL A   1      45.643 -19.359 -37.478  0.00  0.00    +0.410 C 
ATOM     20  O   UNL A   1      46.737 -18.899 -37.781  0.00  0.00    -0.226 OA
ATOM     21  H   UNL A   1      44.114 -20.635 -37.778  0.00  0.00    +0.000 HD
BRANCH  18  26
ATOM     22  C   UNL A   1      45.871 -21.762 -41.506  0.00  0.00    -0.046 A 
ATOM     23  C   UNL A   1      45.224 -20.884 -42.384  0.00  0.00    -0.058 A 
ATOM     24  C   UNL A   1      44.483 -19.811 -41.891  0.00  0.00    -0.060 A 
ATOM     25  C   UNL A   1      44.369 -19.609 -40.516  0.00  0.00    -0.040 A 
ATOM     26  C   UNL A   1      44.988 -20.484 -39.616  0.00  0.00    +0.037 A 
ATOM     27  C   UNL A   1      45.729 -21.557 -40.119  0.00  0.00    -0.037 A 
BRANCH  22  29
ATOM     28  C   UNL A   1      48.070 -23.088 -41.413  0.00  0.00    -0.061 C 
ATOM     29  C   UNL A   1      46.666 -22.955 -41.990  0.00  0.00    -0.030 C 
ENDBRANCH  22  29
ENDBRANCH  18  26
ENDBRANCH  17  19
ENDBRANCH   1  17
TORSDOF 4
ENDMDL
