@<TRIPOS>MOLECULE
*****
 28 32 0 0 0
SMALL
GASTEIGER

@<TRIPOS>ATOM
      1 C           4.0341   -1.0559    0.0000 C.3     1  UNL1        0.2526
      2 O           3.2663   -1.5957    0.0000 O.3     1  UNL1       -0.4684
      3 C           2.4609   -1.1138    0.0000 C.ar    1  UNL1        0.1721
      4 C           2.4755   -0.1754    0.0000 C.ar    1  UNL1        0.0398
      5 C           1.6696    0.3067    0.0000 C.ar    1  UNL1        0.0004
      6 C           0.8496   -0.1498    0.0000 C.ar    1  UNL1       -0.0028
      7 C           0.8348   -1.0886    0.0000 C.ar    1  UNL1        0.0191
      8 C           1.6407   -1.5708    0.0000 C.ar    1  UNL1        0.1682
      9 O           1.6262   -2.5092    0.0000 O.3     1  UNL1       -0.4757
     10 C           0.8059   -2.9661    0.0000 C.3     1  UNL1        0.1762
     11 C           0.7911   -3.9049    0.0000 C.3     1  UNL1        0.0816
     12 C          -0.0289   -4.3615    0.0000 C.3     1  UNL1        0.1773
     13 O          -0.0439   -5.3233    0.0000 O.3     1  UNL1       -0.2182
     14 C          -0.8348   -3.8793    0.0000 C.2     1  UNL1        0.0021
     15 C          -0.8203   -2.9409    0.0000 C.2     1  UNL1       -0.0211
     16 C          -0.0000   -2.4840    0.0000 C.3     1  UNL1        0.0783
     17 C          -0.7471   -2.0526    0.0000 C.3     1  UNL1        0.0332
     18 C          -1.0422   -1.2420    0.0000 C.3     1  UNL1        0.0948
     19 N          -0.7471   -0.4313    0.0000 N.am    1  UNL1       -0.2720
     20 C          -1.5014    0.2016    0.0000 C.2     1  UNL1        0.2493
     21 O          -1.3304    1.1713    0.0000 O.2     1  UNL1       -0.2699
     22 C          -2.4267   -0.1352    0.0000 C.ar    1  UNL1        0.0536
     23 C          -2.5976   -1.1049    0.0000 C.ar    1  UNL1        0.0045
     24 C          -3.5229   -1.4416    0.0000 C.ar    1  UNL1        0.0001
     25 C          -4.2772   -0.8087    0.0000 C.ar    1  UNL1        0.0000
     26 C          -4.1062    0.1610    0.0000 C.ar    1  UNL1        0.0001
     27 C          -3.1809    0.4977    0.0000 C.ar    1  UNL1        0.0045
     28 C           0.0000    0.0000    0.0000 C.3     1  UNL1        0.1202
@<TRIPOS>BOND
     1     1     2    1
     2     2     3    1
     3     3     4   ar
     4     4     5   ar
     5     5     6   ar
     6     6     7   ar
     7     7     8   ar
     8     3     8   ar
     9     8     9    1
    10     9    10    1
    11    10    11    1
    12    11    12    1
    13    12    13    1
    14    12    14    1
    15    14    15    2
    16    15    16    1
    17     7    16    1
    18    10    16    1
    19    16    17    1
    20    17    18    1
    21    18    19    1
    22    19    20   am
    23    20    21    2
    24    20    22    1
    25    22    23   ar
    26    23    24   ar
    27    24    25   ar
    28    25    26   ar
    29    26    27   ar
    30    22    27   ar
    31    19    28    1
    32     6    28    1
