MODEL 1
REMARK VINA RESULT:    -7.390      0.000      0.000
REMARK INTER + INTRA:          -9.040
REMARK INTER:                  -8.470
REMARK INTRA:                  -0.570
REMARK UNBOUND:                -0.570
REMARK  Name = cpd311.pdb
REMARK  4 active torsions:
REMARK  status: ('A' for Active; 'I' for Inactive)
REMARK    1  A    between atoms: C_1  and  O_2
REMARK    2  A    between atoms: O_2  and  C_3
REMARK    3  A    between atoms: C_12  and  O_13
REMARK    4  A    between atoms: C_20  and  C_22
REMARK                            x       y       z     vdW  Elec       q    Type
REMARK                         _______ _______ _______ _____ _____    ______ ____
ROOT
ATOM      1  C   UNL A   1      29.884 -34.730 -29.159  0.00  0.00    +0.162 A 
ATOM      2  C   UNL A   1      29.499 -36.050 -29.405  0.00  0.00    -0.016 A 
ATOM      3  C   UNL A   1      30.421 -36.996 -29.902  0.00  0.00    -0.053 A 
ATOM      4  C   UNL A   1      31.749 -36.642 -30.189  0.00  0.00    -0.022 A 
ATOM      5  C   UNL A   1      32.082 -35.302 -30.059  0.00  0.00    +0.016 A 
ATOM      6  C   UNL A   1      31.188 -34.390 -29.481  0.00  0.00    +0.167 A 
ATOM      7  O   UNL A   1      31.786 -33.167 -29.202  0.00  0.00    -0.484 OA
ATOM      8  C   UNL A   1      32.878 -33.202 -30.131  0.00  0.00    +0.116 C 
ATOM      9  C   UNL A   1      34.012 -32.213 -29.902  0.00  0.00    +0.015 C 
ATOM     10  C   UNL A   1      35.006 -32.336 -31.080  0.00  0.00    +0.077 C 
ATOM     11  C   UNL A   1      34.965 -33.652 -31.832  0.00  0.00    -0.059 C 
ATOM     12  C   UNL A   1      34.219 -34.713 -31.460  0.00  0.00    -0.071 C 
ATOM     13  C   UNL A   1      33.420 -34.654 -30.184  0.00  0.00    +0.056 C 
ATOM     14  C   UNL A   1      34.274 -35.139 -28.987  0.00  0.00    -0.020 C 
ATOM     15  C   UNL A   1      34.293 -36.672 -28.784  0.00  0.00    +0.017 C 
ATOM     16  N   UNL A   1      34.136 -37.459 -30.018  0.00  0.00    -0.293 N 
ATOM     17  C   UNL A   1      35.130 -38.288 -30.544  0.00  0.00    +0.247 C 
ATOM     18  O   UNL A   1      34.901 -39.175 -31.364  0.00  0.00    -0.270 OA
ATOM     19  C   UNL A   1      32.776 -37.689 -30.540  0.00  0.00    +0.040 C 
ENDROOT
BRANCH  17  20
ATOM     20  C   UNL A   1      36.533 -38.107 -30.113  0.00  0.00    +0.037 A 
ATOM     21  C   UNL A   1      37.036 -38.802 -29.009  0.00  0.00    -0.050 A 
ATOM     22  C   UNL A   1      38.350 -38.586 -28.594  0.00  0.00    -0.061 A 
ATOM     23  C   UNL A   1      39.153 -37.667 -29.271  0.00  0.00    -0.062 A 
ATOM     24  C   UNL A   1      38.642 -36.955 -30.358  0.00  0.00    -0.061 A 
ATOM     25  C   UNL A   1      37.327 -37.168 -30.776  0.00  0.00    -0.050 A 
ENDBRANCH  17  20
BRANCH   1  27
ATOM     26  C   UNL A   1      28.332 -32.979 -29.533  0.00  0.00    +0.079 C 
ATOM     27  O   UNL A   1      29.103 -33.750 -28.623  0.00  0.00    -0.491 OA
ENDBRANCH   1  27
BRANCH  10  28
ATOM     28  O   UNL A   1      34.701 -31.335 -32.049  0.00  0.00    -0.388 OA
ATOM     29  H   UNL A   1      34.639 -31.743 -32.926  0.00  0.00    +0.000 HD
ENDBRANCH  10  28
TORSDOF 3
ENDMDL
MODEL 2
REMARK VINA RESULT:    -7.374      2.221      4.320
REMARK INTER + INTRA:          -9.022
REMARK INTER:                  -8.494
REMARK INTRA:                  -0.528
REMARK UNBOUND:                -0.570
REMARK  Name = cpd311.pdb
REMARK  4 active torsions:
REMARK  status: ('A' for Active; 'I' for Inactive)
REMARK    1  A    between atoms: C_1  and  O_2
REMARK    2  A    between atoms: O_2  and  C_3
REMARK    3  A    between atoms: C_12  and  O_13
REMARK    4  A    between atoms: C_20  and  C_22
REMARK                            x       y       z     vdW  Elec       q    Type
REMARK                         _______ _______ _______ _____ _____    ______ ____
ROOT
ATOM      1  C   UNL A   1      32.731 -32.229 -29.880  0.00  0.00    +0.162 A 
ATOM      2  C   UNL A   1      33.892 -31.925 -30.596  0.00  0.00    -0.016 A 
ATOM      3  C   UNL A   1      34.952 -32.852 -30.691  0.00  0.00    -0.053 A 
ATOM      4  C   UNL A   1      34.891 -34.100 -30.053  0.00  0.00    -0.022 A 
ATOM      5  C   UNL A   1      33.789 -34.337 -29.244  0.00  0.00    +0.016 A 
ATOM      6  C   UNL A   1      32.703 -33.451 -29.228  0.00  0.00    +0.167 A 
ATOM      7  O   UNL A   1      31.600 -33.978 -28.567  0.00  0.00    -0.484 OA
ATOM      8  C   UNL A   1      32.246 -34.945 -27.728  0.00  0.00    +0.116 C 
ATOM      9  C   UNL A   1      31.364 -36.015 -27.102  0.00  0.00    +0.015 C 
ATOM     10  C   UNL A   1      32.236 -36.861 -26.145  0.00  0.00    +0.077 C 
ATOM     11  C   UNL A   1      33.725 -36.834 -26.427  0.00  0.00    -0.059 C 
ATOM     12  C   UNL A   1      34.283 -36.228 -27.496  0.00  0.00    -0.071 C 
ATOM     13  C   UNL A   1      33.400 -35.592 -28.538  0.00  0.00    +0.056 C 
ATOM     14  C   UNL A   1      33.015 -36.625 -29.626  0.00  0.00    -0.020 C 
ATOM     15  C   UNL A   1      34.056 -36.793 -30.757  0.00  0.00    +0.017 C 
ATOM     16  N   UNL A   1      35.449 -36.548 -30.353  0.00  0.00    -0.293 N 
ATOM     17  C   UNL A   1      36.440 -37.533 -30.340  0.00  0.00    +0.247 C 
ATOM     18  O   UNL A   1      37.642 -37.276 -30.323  0.00  0.00    -0.270 OA
ATOM     19  C   UNL A   1      35.937 -35.157 -30.307  0.00  0.00    +0.040 C 
ENDROOT
BRANCH  17  20
ATOM     20  C   UNL A   1      36.050 -38.959 -30.343  0.00  0.00    +0.037 A 
ATOM     21  C   UNL A   1      35.773 -39.622 -31.543  0.00  0.00    -0.050 A 
ATOM     22  C   UNL A   1      35.368 -40.956 -31.521  0.00  0.00    -0.061 A 
ATOM     23  C   UNL A   1      35.224 -41.620 -30.302  0.00  0.00    -0.062 A 
ATOM     24  C   UNL A   1      35.476 -40.951 -29.102  0.00  0.00    -0.061 A 
ATOM     25  C   UNL A   1      35.882 -39.615 -29.121  0.00  0.00    -0.050 A 
ENDBRANCH  17  20
BRANCH   1  27
ATOM     26  C   UNL A   1      30.790 -31.355 -30.922  0.00  0.00    +0.079 C 
ATOM     27  O   UNL A   1      31.622 -31.444 -29.773  0.00  0.00    -0.491 OA
ENDBRANCH   1  27
BRANCH  10  28
ATOM     28  O   UNL A   1      32.090 -36.359 -24.819  0.00  0.00    -0.388 OA
ATOM     29  H   UNL A   1      32.945 -36.028 -24.503  0.00  0.00    +0.000 HD
ENDBRANCH  10  28
TORSDOF 3
ENDMDL
MODEL 3
REMARK VINA RESULT:    -7.341      2.459      6.969
REMARK INTER + INTRA:          -8.985
REMARK INTER:                  -8.473
REMARK INTRA:                  -0.511
REMARK UNBOUND:                -0.570
REMARK  Name = cpd311.pdb
REMARK  4 active torsions:
REMARK  status: ('A' for Active; 'I' for Inactive)
REMARK    1  A    between atoms: C_1  and  O_2
REMARK    2  A    between atoms: O_2  and  C_3
REMARK    3  A    between atoms: C_12  and  O_13
REMARK    4  A    between atoms: C_20  and  C_22
REMARK                            x       y       z     vdW  Elec       q    Type
REMARK                         _______ _______ _______ _____ _____    ______ ____
ROOT
ATOM      1  C   UNL A   1      36.298 -38.712 -30.182  0.00  0.00    +0.162 A 
ATOM      2  C   UNL A   1      37.349 -37.817 -29.966  0.00  0.00    -0.016 A 
ATOM      3  C   UNL A   1      37.226 -36.455 -30.315  0.00  0.00    -0.053 A 
ATOM      4  C   UNL A   1      36.058 -35.954 -30.910  0.00  0.00    -0.022 A 
ATOM      5  C   UNL A   1      35.074 -36.877 -31.232  0.00  0.00    +0.016 A 
ATOM      6  C   UNL A   1      35.166 -38.208 -30.802  0.00  0.00    +0.167 A 
ATOM      7  O   UNL A   1      33.982 -38.910 -30.994  0.00  0.00    -0.484 OA
ATOM      8  C   UNL A   1      33.393 -38.128 -32.042  0.00  0.00    +0.116 C 
ATOM      9  C   UNL A   1      31.908 -38.331 -32.303  0.00  0.00    +0.015 C 
ATOM     10  C   UNL A   1      31.516 -37.496 -33.544  0.00  0.00    +0.077 C 
ATOM     11  C   UNL A   1      32.437 -36.335 -33.864  0.00  0.00    -0.059 C 
ATOM     12  C   UNL A   1      33.465 -35.946 -33.081  0.00  0.00    -0.071 C 
ATOM     13  C   UNL A   1      33.701 -36.635 -31.762  0.00  0.00    +0.056 C 
ATOM     14  C   UNL A   1      32.896 -35.941 -30.636  0.00  0.00    -0.020 C 
ATOM     15  C   UNL A   1      33.591 -34.713 -30.004  0.00  0.00    +0.017 C 
ATOM     16  N   UNL A   1      34.484 -33.975 -30.912  0.00  0.00    -0.293 N 
ATOM     17  C   UNL A   1      34.253 -32.663 -31.334  0.00  0.00    +0.247 C 
ATOM     18  O   UNL A   1      35.131 -31.947 -31.811  0.00  0.00    -0.270 OA
ATOM     19  C   UNL A   1      35.858 -34.472 -31.110  0.00  0.00    +0.040 C 
ENDROOT
BRANCH  17  20
ATOM     20  C   UNL A   1      32.896 -32.088 -31.215  0.00  0.00    +0.037 A 
ATOM     21  C   UNL A   1      32.635 -31.054 -30.310  0.00  0.00    -0.050 A 
ATOM     22  C   UNL A   1      31.340 -30.554 -30.185  0.00  0.00    -0.061 A 
ATOM     23  C   UNL A   1      30.306 -31.096 -30.950  0.00  0.00    -0.062 A 
ATOM     24  C   UNL A   1      30.562 -32.145 -31.835  0.00  0.00    -0.061 A 
ATOM     25  C   UNL A   1      31.857 -32.649 -31.963  0.00  0.00    -0.050 A 
ENDBRANCH  17  20
BRANCH   1  27
ATOM     26  C   UNL A   1      37.078 -40.404 -28.717  0.00  0.00    +0.079 C 
ATOM     27  O   UNL A   1      36.277 -40.028 -29.829  0.00  0.00    -0.491 OA
ENDBRANCH   1  27
BRANCH  10  28
ATOM     28  O   UNL A   1      31.549 -38.335 -34.696  0.00  0.00    -0.388 OA
ATOM     29  H   UNL A   1      30.755 -38.180 -35.232  0.00  0.00    +0.000 HD
ENDBRANCH  10  28
TORSDOF 3
ENDMDL
MODEL 4
REMARK VINA RESULT:    -7.265     21.123     23.919
REMARK INTER + INTRA:          -8.898
REMARK INTER:                  -8.275
REMARK INTRA:                  -0.623
REMARK UNBOUND:                -0.570
REMARK  Name = cpd311.pdb
REMARK  4 active torsions:
REMARK  status: ('A' for Active; 'I' for Inactive)
REMARK    1  A    between atoms: C_1  and  O_2
REMARK    2  A    between atoms: O_2  and  C_3
REMARK    3  A    between atoms: C_12  and  O_13
REMARK    4  A    between atoms: C_20  and  C_22
REMARK                            x       y       z     vdW  Elec       q    Type
REMARK                         _______ _______ _______ _____ _____    ______ ____
ROOT
ATOM      1  C   UNL A   1      45.670 -22.073 -41.683  0.00  0.00    +0.162 A 
ATOM      2  C   UNL A   1      45.077 -21.510 -42.817  0.00  0.00    -0.016 A 
ATOM      3  C   UNL A   1      44.632 -20.171 -42.816  0.00  0.00    -0.053 A 
ATOM      4  C   UNL A   1      44.746 -19.364 -41.674  0.00  0.00    -0.022 A 
ATOM      5  C   UNL A   1      45.219 -19.973 -40.520  0.00  0.00    +0.016 A 
ATOM      6  C   UNL A   1      45.741 -21.273 -40.555  0.00  0.00    +0.167 A 
ATOM      7  O   UNL A   1      46.395 -21.612 -39.376  0.00  0.00    -0.484 OA
ATOM      8  C   UNL A   1      45.763 -20.701 -38.466  0.00  0.00    +0.116 C 
ATOM      9  C   UNL A   1      46.450 -20.477 -37.126  0.00  0.00    +0.015 C 
ATOM     10  C   UNL A   1      45.540 -19.572 -36.263  0.00  0.00    +0.077 C 
ATOM     11  C   UNL A   1      44.550 -18.721 -37.033  0.00  0.00    -0.059 C 
ATOM     12  C   UNL A   1      44.512 -18.634 -38.380  0.00  0.00    -0.071 C 
ATOM     13  C   UNL A   1      45.548 -19.354 -39.203  0.00  0.00    +0.056 C 
ATOM     14  C   UNL A   1      46.789 -18.455 -39.421  0.00  0.00    -0.020 C 
ATOM     15  C   UNL A   1      46.677 -17.470 -40.608  0.00  0.00    +0.017 C 
ATOM     16  N   UNL A   1      45.308 -17.021 -40.907  0.00  0.00    -0.293 N 
ATOM     17  C   UNL A   1      44.876 -15.699 -40.767  0.00  0.00    +0.247 C 
ATOM     18  O   UNL A   1      43.863 -15.263 -41.311  0.00  0.00    -0.270 OA
ATOM     19  C   UNL A   1      44.443 -17.887 -41.729  0.00  0.00    +0.040 C 
ENDROOT
BRANCH  17  20
ATOM     20  C   UNL A   1      45.654 -14.763 -39.929  0.00  0.00    +0.037 A 
ATOM     21  C   UNL A   1      46.536 -13.846 -40.510  0.00  0.00    -0.050 A 
ATOM     22  C   UNL A   1      47.291 -13.000 -39.699  0.00  0.00    -0.061 A 
ATOM     23  C   UNL A   1      47.176 -13.081 -38.310  0.00  0.00    -0.062 A 
ATOM     24  C   UNL A   1      46.314 -14.013 -37.729  0.00  0.00    -0.061 A 
ATOM     25  C   UNL A   1      45.557 -14.862 -38.538  0.00  0.00    -0.050 A 
ENDBRANCH  17  20
BRANCH   1  27
ATOM     26  C   UNL A   1      47.447 -23.546 -42.218  0.00  0.00    +0.079 C 
ATOM     27  O   UNL A   1      46.193 -23.328 -41.587  0.00  0.00    -0.491 OA
ENDBRANCH   1  27
BRANCH  10  28
ATOM     28  O   UNL A   1      44.750 -20.392 -35.406  0.00  0.00    -0.388 OA
ATOM     29  H   UNL A   1      44.649 -19.957 -34.545  0.00  0.00    +0.000 HD
ENDBRANCH  10  28
TORSDOF 3
ENDMDL
MODEL 5
REMARK VINA RESULT:    -7.194     18.769     22.353
REMARK INTER + INTRA:          -8.816
REMARK INTER:                  -8.460
REMARK INTRA:                  -0.356
REMARK UNBOUND:                -0.570
REMARK  Name = cpd311.pdb
REMARK  4 active torsions:
REMARK  status: ('A' for Active; 'I' for Inactive)
REMARK    1  A    between atoms: C_1  and  O_2
REMARK    2  A    between atoms: O_2  and  C_3
REMARK    3  A    between atoms: C_12  and  O_13
REMARK    4  A    between atoms: C_20  and  C_22
REMARK                            x       y       z     vdW  Elec       q    Type
REMARK                         _______ _______ _______ _____ _____    ______ ____
ROOT
ATOM      1  C   UNL A   1      41.695 -21.523 -37.953  0.00  0.00    +0.162 A 
ATOM      2  C   UNL A   1      42.083 -21.313 -36.627  0.00  0.00    -0.016 A 
ATOM      3  C   UNL A   1      43.279 -20.629 -36.321  0.00  0.00    -0.053 A 
ATOM      4  C   UNL A   1      44.132 -20.157 -37.330  0.00  0.00    -0.022 A 
ATOM      5  C   UNL A   1      43.797 -20.483 -38.636  0.00  0.00    +0.016 A 
ATOM      6  C   UNL A   1      42.565 -21.082 -38.936  0.00  0.00    +0.167 A 
ATOM      7  O   UNL A   1      42.302 -21.096 -40.301  0.00  0.00    -0.484 OA
ATOM      8  C   UNL A   1      43.637 -21.002 -40.817  0.00  0.00    +0.116 C 
ATOM      9  C   UNL A   1      43.785 -20.610 -42.279  0.00  0.00    +0.015 C 
ATOM     10  C   UNL A   1      45.283 -20.696 -42.653  0.00  0.00    +0.077 C 
ATOM     11  C   UNL A   1      46.250 -20.599 -41.490  0.00  0.00    -0.059 C 
ATOM     12  C   UNL A   1      45.882 -20.334 -40.218  0.00  0.00    -0.071 C 
ATOM     13  C   UNL A   1      44.439 -20.036 -39.906  0.00  0.00    +0.056 C 
ATOM     14  C   UNL A   1      44.154 -18.521 -40.051  0.00  0.00    -0.020 C 
ATOM     15  C   UNL A   1      44.494 -17.676 -38.801  0.00  0.00    +0.017 C 
ATOM     16  N   UNL A   1      45.598 -18.203 -37.983  0.00  0.00    -0.293 N 
ATOM     17  C   UNL A   1      46.819 -17.546 -37.811  0.00  0.00    +0.247 C 
ATOM     18  O   UNL A   1      47.598 -17.806 -36.895  0.00  0.00    -0.270 OA
ATOM     19  C   UNL A   1      45.307 -19.269 -37.006  0.00  0.00    +0.040 C 
ENDROOT
BRANCH  17  20
ATOM     20  C   UNL A   1      47.219 -16.489 -38.763  0.00  0.00    +0.037 A 
ATOM     21  C   UNL A   1      47.260 -16.744 -40.138  0.00  0.00    -0.050 A 
ATOM     22  C   UNL A   1      47.679 -15.744 -41.015  0.00  0.00    -0.061 A 
ATOM     23  C   UNL A   1      48.070 -14.500 -40.519  0.00  0.00    -0.062 A 
ATOM     24  C   UNL A   1      48.053 -14.254 -39.145  0.00  0.00    -0.061 A 
ATOM     25  C   UNL A   1      47.634 -15.252 -38.263  0.00  0.00    -0.050 A 
ENDBRANCH  17  20
BRANCH   1  27
ATOM     26  C   UNL A   1      39.369 -21.825 -37.611  0.00  0.00    +0.079 C 
ATOM     27  O   UNL A   1      40.537 -22.110 -38.369  0.00  0.00    -0.491 OA
ENDBRANCH   1  27
BRANCH  10  28
ATOM     28  O   UNL A   1      45.538 -21.963 -43.255  0.00  0.00    -0.388 OA
ATOM     29  H   UNL A   1      45.774 -21.837 -44.187  0.00  0.00    +0.000 HD
ENDBRANCH  10  28
TORSDOF 3
ENDMDL
MODEL 6
REMARK VINA RESULT:    -7.173     16.454     19.606
REMARK INTER + INTRA:          -8.791
REMARK INTER:                  -8.164
REMARK INTRA:                  -0.627
REMARK UNBOUND:                -0.570
REMARK  Name = cpd311.pdb
REMARK  4 active torsions:
REMARK  status: ('A' for Active; 'I' for Inactive)
REMARK    1  A    between atoms: C_1  and  O_2
REMARK    2  A    between atoms: O_2  and  C_3
REMARK    3  A    between atoms: C_12  and  O_13
REMARK    4  A    between atoms: C_20  and  C_22
REMARK                            x       y       z     vdW  Elec       q    Type
REMARK                         _______ _______ _______ _____ _____    ______ ____
ROOT
ATOM      1  C   UNL A   1      41.733 -18.858 -32.986  0.00  0.00    +0.162 A 
ATOM      2  C   UNL A   1      43.088 -18.600 -32.765  0.00  0.00    -0.016 A 
ATOM      3  C   UNL A   1      44.066 -18.994 -33.703  0.00  0.00    -0.053 A 
ATOM      4  C   UNL A   1      43.718 -19.679 -34.878  0.00  0.00    -0.022 A 
ATOM      5  C   UNL A   1      42.386 -20.039 -35.022  0.00  0.00    +0.016 A 
ATOM      6  C   UNL A   1      41.411 -19.566 -34.133  0.00  0.00    +0.167 A 
ATOM      7  O   UNL A   1      40.120 -19.816 -34.581  0.00  0.00    -0.484 OA
ATOM      8  C   UNL A   1      40.367 -20.922 -35.459  0.00  0.00    +0.116 C 
ATOM      9  C   UNL A   1      39.269 -21.274 -36.452  0.00  0.00    +0.015 C 
ATOM     10  C   UNL A   1      39.688 -22.562 -37.199  0.00  0.00    +0.077 C 
ATOM     11  C   UNL A   1      41.175 -22.853 -37.211  0.00  0.00    -0.059 C 
ATOM     12  C   UNL A   1      42.115 -22.016 -36.723  0.00  0.00    -0.071 C 
ATOM     13  C   UNL A   1      41.708 -20.664 -36.194  0.00  0.00    +0.056 C 
ATOM     14  C   UNL A   1      41.706 -19.615 -37.332  0.00  0.00    -0.020 C 
ATOM     15  C   UNL A   1      43.082 -18.973 -37.625  0.00  0.00    +0.017 C 
ATOM     16  N   UNL A   1      44.238 -19.841 -37.347  0.00  0.00    -0.293 N 
ATOM     17  C   UNL A   1      45.109 -20.314 -38.332  0.00  0.00    +0.247 C 
ATOM     18  O   UNL A   1      46.231 -20.752 -38.081  0.00  0.00    -0.270 OA
ATOM     19  C   UNL A   1      44.735 -19.933 -35.962  0.00  0.00    +0.040 C 
ENDROOT
BRANCH  17  20
ATOM     20  C   UNL A   1      44.685 -20.301 -39.748  0.00  0.00    +0.037 A 
ATOM     21  C   UNL A   1      43.826 -21.286 -40.245  0.00  0.00    -0.050 A 
ATOM     22  C   UNL A   1      43.471 -21.278 -41.594  0.00  0.00    -0.061 A 
ATOM     23  C   UNL A   1      43.985 -20.299 -42.445  0.00  0.00    -0.062 A 
ATOM     24  C   UNL A   1      44.862 -19.330 -41.953  0.00  0.00    -0.061 A 
ATOM     25  C   UNL A   1      45.220 -19.335 -40.604  0.00  0.00    -0.050 A 
ENDBRANCH  17  20
BRANCH   1  27
ATOM     26  C   UNL A   1      40.292 -17.113 -32.284  0.00  0.00    +0.079 C 
ATOM     27  O   UNL A   1      40.699 -18.471 -32.187  0.00  0.00    -0.491 OA
ENDBRANCH   1  27
BRANCH  10  28
ATOM     28  O   UNL A   1      39.086 -23.685 -36.560  0.00  0.00    -0.388 OA
ATOM     29  H   UNL A   1      38.146 -23.727 -36.798  0.00  0.00    +0.000 HD
ENDBRANCH  10  28
TORSDOF 3
ENDMDL
MODEL 7
REMARK VINA RESULT:    -7.110     19.537     22.074
REMARK INTER + INTRA:          -8.719
REMARK INTER:                  -8.115
REMARK INTRA:                  -0.604
REMARK UNBOUND:                -0.570
REMARK  Name = cpd311.pdb
REMARK  4 active torsions:
REMARK  status: ('A' for Active; 'I' for Inactive)
REMARK    1  A    between atoms: C_1  and  O_2
REMARK    2  A    between atoms: O_2  and  C_3
REMARK    3  A    between atoms: C_12  and  O_13
REMARK    4  A    between atoms: C_20  and  C_22
REMARK                            x       y       z     vdW  Elec       q    Type
REMARK                         _______ _______ _______ _____ _____    ______ ____
ROOT
ATOM      1  C   UNL A   1      44.617 -18.242 -33.578  0.00  0.00    +0.162 A 
ATOM      2  C   UNL A   1      43.696 -19.293 -33.609  0.00  0.00    -0.016 A 
ATOM      3  C   UNL A   1      43.409 -19.972 -34.812  0.00  0.00    -0.053 A 
ATOM      4  C   UNL A   1      44.016 -19.604 -36.023  0.00  0.00    -0.022 A 
ATOM      5  C   UNL A   1      44.830 -18.481 -35.999  0.00  0.00    +0.016 A 
ATOM      6  C   UNL A   1      45.180 -17.870 -34.787  0.00  0.00    +0.167 A 
ATOM      7  O   UNL A   1      46.195 -16.933 -34.941  0.00  0.00    -0.484 OA
ATOM      8  C   UNL A   1      46.038 -16.616 -36.331  0.00  0.00    +0.116 C 
ATOM      9  C   UNL A   1      47.195 -15.897 -37.010  0.00  0.00    +0.015 C 
ATOM     10  C   UNL A   1      46.763 -15.542 -38.452  0.00  0.00    +0.077 C 
ATOM     11  C   UNL A   1      45.639 -16.385 -39.020  0.00  0.00    -0.059 C 
ATOM     12  C   UNL A   1      45.105 -17.457 -38.397  0.00  0.00    -0.071 C 
ATOM     13  C   UNL A   1      45.685 -17.923 -37.087  0.00  0.00    +0.056 C 
ATOM     14  C   UNL A   1      46.831 -18.936 -37.331  0.00  0.00    -0.020 C 
ATOM     15  C   UNL A   1      46.370 -20.398 -37.531  0.00  0.00    +0.017 C 
ATOM     16  N   UNL A   1      45.037 -20.547 -38.135  0.00  0.00    -0.293 N 
ATOM     17  C   UNL A   1      44.812 -21.113 -39.393  0.00  0.00    +0.247 C 
ATOM     18  O   UNL A   1      43.713 -21.531 -39.754  0.00  0.00    -0.270 OA
ATOM     19  C   UNL A   1      43.851 -20.444 -37.265  0.00  0.00    +0.040 C 
ENDROOT
BRANCH  17  20
ATOM     20  C   UNL A   1      45.930 -21.223 -40.354  0.00  0.00    +0.037 A 
ATOM     21  C   UNL A   1      46.599 -22.437 -40.537  0.00  0.00    -0.050 A 
ATOM     22  C   UNL A   1      47.677 -22.508 -41.418  0.00  0.00    -0.061 A 
ATOM     23  C   UNL A   1      48.096 -21.366 -42.101  0.00  0.00    -0.062 A 
ATOM     24  C   UNL A   1      47.444 -20.147 -41.899  0.00  0.00    -0.061 A 
ATOM     25  C   UNL A   1      46.364 -20.072 -41.018  0.00  0.00    -0.050 A 
ENDBRANCH  17  20
BRANCH   1  27
ATOM     26  C   UNL A   1      44.277 -16.396 -32.131  0.00  0.00    +0.079 C 
ATOM     27  O   UNL A   1      45.021 -17.558 -32.470  0.00  0.00    -0.491 OA
ENDBRANCH   1  27
BRANCH  10  28
ATOM     28  O   UNL A   1      46.282 -14.201 -38.474  0.00  0.00    -0.388 OA
ATOM     29  H   UNL A   1      46.106 -13.936 -39.390  0.00  0.00    +0.000 HD
ENDBRANCH  10  28
TORSDOF 3
ENDMDL
MODEL 8
REMARK VINA RESULT:    -7.077     14.821     18.441
REMARK INTER + INTRA:          -8.681
REMARK INTER:                  -8.102
REMARK INTRA:                  -0.580
REMARK UNBOUND:                -0.570
REMARK  Name = cpd311.pdb
REMARK  4 active torsions:
REMARK  status: ('A' for Active; 'I' for Inactive)
REMARK    1  A    between atoms: C_1  and  O_2
REMARK    2  A    between atoms: O_2  and  C_3
REMARK    3  A    between atoms: C_12  and  O_13
REMARK    4  A    between atoms: C_20  and  C_22
REMARK                            x       y       z     vdW  Elec       q    Type
REMARK                         _______ _______ _______ _____ _____    ______ ____
ROOT
ATOM      1  C   UNL A   1      39.991 -22.780 -32.947  0.00  0.00    +0.162 A 
ATOM      2  C   UNL A   1      38.981 -23.309 -33.754  0.00  0.00    -0.016 A 
ATOM      3  C   UNL A   1      38.810 -22.873 -35.085  0.00  0.00    -0.053 A 
ATOM      4  C   UNL A   1      39.631 -21.879 -35.640  0.00  0.00    -0.022 A 
ATOM      5  C   UNL A   1      40.546 -21.275 -34.790  0.00  0.00    +0.016 A 
ATOM      6  C   UNL A   1      40.769 -21.775 -33.500  0.00  0.00    +0.167 A 
ATOM      7  O   UNL A   1      41.888 -21.210 -32.899  0.00  0.00    -0.484 OA
ATOM      8  C   UNL A   1      41.979 -19.984 -33.638  0.00  0.00    +0.116 C 
ATOM      9  C   UNL A   1      43.295 -19.225 -33.555  0.00  0.00    +0.015 C 
ATOM     10  C   UNL A   1      43.129 -17.886 -34.310  0.00  0.00    +0.077 C 
ATOM     11  C   UNL A   1      42.022 -17.856 -35.346  0.00  0.00    -0.059 C 
ATOM     12  C   UNL A   1      41.289 -18.932 -35.703  0.00  0.00    -0.071 C 
ATOM     13  C   UNL A   1      41.610 -20.282 -35.114  0.00  0.00    +0.056 C 
ATOM     14  C   UNL A   1      42.666 -21.014 -35.979  0.00  0.00    -0.020 C 
ATOM     15  C   UNL A   1      42.091 -21.790 -37.186  0.00  0.00    +0.017 C 
ATOM     16  N   UNL A   1      40.857 -21.221 -37.752  0.00  0.00    -0.293 N 
ATOM     17  C   UNL A   1      40.768 -20.681 -39.038  0.00  0.00    +0.247 C 
ATOM     18  O   UNL A   1      39.700 -20.511 -39.622  0.00  0.00    -0.270 OA
ATOM     19  C   UNL A   1      39.570 -21.548 -37.111  0.00  0.00    +0.040 C 
ENDROOT
BRANCH  17  20
ATOM     20  C   UNL A   1      42.002 -20.283 -39.748  0.00  0.00    +0.037 A 
ATOM     21  C   UNL A   1      42.593 -21.135 -40.686  0.00  0.00    -0.050 A 
ATOM     22  C   UNL A   1      43.779 -20.758 -41.314  0.00  0.00    -0.061 A 
ATOM     23  C   UNL A   1      44.381 -19.540 -40.994  0.00  0.00    -0.062 A 
ATOM     24  C   UNL A   1      43.804 -18.701 -40.039  0.00  0.00    -0.061 A 
ATOM     25  C   UNL A   1      42.617 -19.075 -39.407  0.00  0.00    -0.050 A 
ENDBRANCH  17  20
BRANCH   1  27
ATOM     26  C   UNL A   1      41.211 -24.240 -31.535  0.00  0.00    +0.079 C 
ATOM     27  O   UNL A   1      40.291 -23.166 -31.675  0.00  0.00    -0.491 OA
ENDBRANCH   1  27
BRANCH  10  28
ATOM     28  O   UNL A   1      42.800 -16.863 -33.374  0.00  0.00    -0.388 OA
ATOM     29  H   UNL A   1      42.077 -16.321 -33.726  0.00  0.00    +0.000 HD
ENDBRANCH  10  28
TORSDOF 3
ENDMDL
MODEL 9
REMARK VINA RESULT:    -6.975     19.793     23.648
REMARK INTER + INTRA:          -8.565
REMARK INTER:                  -8.221
REMARK INTRA:                  -0.345
REMARK UNBOUND:                -0.570
REMARK  Name = cpd311.pdb
REMARK  4 active torsions:
REMARK  status: ('A' for Active; 'I' for Inactive)
REMARK    1  A    between atoms: C_1  and  O_2
REMARK    2  A    between atoms: O_2  and  C_3
REMARK    3  A    between atoms: C_12  and  O_13
REMARK    4  A    between atoms: C_20  and  C_22
REMARK                            x       y       z     vdW  Elec       q    Type
REMARK                         _______ _______ _______ _____ _____    ______ ____
ROOT
ATOM      1  C   UNL A   1      48.074 -14.722 -39.006  0.00  0.00    +0.162 A 
ATOM      2  C   UNL A   1      48.113 -14.938 -40.386  0.00  0.00    -0.016 A 
ATOM      3  C   UNL A   1      47.589 -16.119 -40.952  0.00  0.00    -0.053 A 
ATOM      4  C   UNL A   1      47.031 -17.129 -40.153  0.00  0.00    -0.022 A 
ATOM      5  C   UNL A   1      47.113 -16.957 -38.779  0.00  0.00    +0.016 A 
ATOM      6  C   UNL A   1      47.552 -15.744 -38.230  0.00  0.00    +0.167 A 
ATOM      7  O   UNL A   1      47.323 -15.670 -36.860  0.00  0.00    -0.484 OA
ATOM      8  C   UNL A   1      47.257 -17.066 -36.539  0.00  0.00    +0.116 C 
ATOM      9  C   UNL A   1      46.647 -17.437 -35.196  0.00  0.00    +0.015 C 
ATOM     10  C   UNL A   1      46.795 -18.964 -35.003  0.00  0.00    +0.077 C 
ATOM     11  C   UNL A   1      46.967 -19.767 -36.278  0.00  0.00    -0.059 C 
ATOM     12  C   UNL A   1      46.882 -19.245 -37.519  0.00  0.00    -0.071 C 
ATOM     13  C   UNL A   1      46.521 -17.792 -37.695  0.00  0.00    +0.056 C 
ATOM     14  C   UNL A   1      44.984 -17.622 -37.778  0.00  0.00    -0.020 C 
ATOM     15  C   UNL A   1      44.383 -17.837 -39.186  0.00  0.00    +0.017 C 
ATOM     16  N   UNL A   1      45.124 -18.785 -40.034  0.00  0.00    -0.293 N 
ATOM     17  C   UNL A   1      44.607 -20.009 -40.467  0.00  0.00    +0.247 C 
ATOM     18  O   UNL A   1      45.075 -20.637 -41.414  0.00  0.00    -0.270 OA
ATOM     19  C   UNL A   1      46.307 -18.300 -40.769  0.00  0.00    +0.040 C 
ENDROOT
BRANCH  17  20
ATOM     20  C   UNL A   1      43.446 -20.598 -39.767  0.00  0.00    +0.037 A 
ATOM     21  C   UNL A   1      43.471 -20.796 -38.383  0.00  0.00    -0.050 A 
ATOM     22  C   UNL A   1      42.381 -21.390 -37.748  0.00  0.00    -0.061 A 
ATOM     23  C   UNL A   1      41.276 -21.800 -38.497  0.00  0.00    -0.062 A 
ATOM     24  C   UNL A   1      41.263 -21.625 -39.883  0.00  0.00    -0.061 A 
ATOM     25  C   UNL A   1      42.352 -21.031 -40.521  0.00  0.00    -0.050 A 
ENDBRANCH  17  20
BRANCH   1  27
ATOM     26  C   UNL A   1      49.761 -13.083 -38.719  0.00  0.00    +0.079 C 
ATOM     27  O   UNL A   1      48.488 -13.599 -38.354  0.00  0.00    -0.491 OA
ENDBRANCH   1  27
BRANCH  10  28
ATOM     28  O   UNL A   1      47.964 -19.223 -34.230  0.00  0.00    -0.388 OA
ATOM     29  H   UNL A   1      47.955 -20.145 -33.929  0.00  0.00    +0.000 HD
ENDBRANCH  10  28
TORSDOF 3
ENDMDL
MODEL 10
REMARK VINA RESULT:    -6.960      2.075      2.481
REMARK INTER + INTRA:          -8.547
REMARK INTER:                  -7.948
REMARK INTRA:                  -0.599
REMARK UNBOUND:                -0.570
REMARK  Name = cpd311.pdb
REMARK  4 active torsions:
REMARK  status: ('A' for Active; 'I' for Inactive)
REMARK    1  A    between atoms: C_1  and  O_2
REMARK    2  A    between atoms: O_2  and  C_3
REMARK    3  A    between atoms: C_12  and  O_13
REMARK    4  A    between atoms: C_20  and  C_22
REMARK                            x       y       z     vdW  Elec       q    Type
REMARK                         _______ _______ _______ _____ _____    ______ ____
ROOT
ATOM      1  C   UNL A   1      30.681 -36.857 -26.780  0.00  0.00    +0.162 A 
ATOM      2  C   UNL A   1      30.716 -38.227 -26.508  0.00  0.00    -0.016 A 
ATOM      3  C   UNL A   1      31.738 -39.046 -27.032  0.00  0.00    -0.053 A 
ATOM      4  C   UNL A   1      32.741 -38.523 -27.863  0.00  0.00    -0.022 A 
ATOM      5  C   UNL A   1      32.621 -37.189 -28.225  0.00  0.00    +0.016 A 
ATOM      6  C   UNL A   1      31.658 -36.364 -27.629  0.00  0.00    +0.167 A 
ATOM      7  O   UNL A   1      31.856 -35.020 -27.923  0.00  0.00    -0.484 OA
ATOM      8  C   UNL A   1      32.608 -35.136 -29.138  0.00  0.00    +0.116 C 
ATOM      9  C   UNL A   1      33.357 -33.897 -29.607  0.00  0.00    +0.015 C 
ATOM     10  C   UNL A   1      33.985 -34.205 -30.987  0.00  0.00    +0.077 C 
ATOM     11  C   UNL A   1      34.196 -35.675 -31.292  0.00  0.00    -0.059 C 
ATOM     12  C   UNL A   1      33.981 -36.671 -30.407  0.00  0.00    -0.071 C 
ATOM     13  C   UNL A   1      33.576 -36.339 -28.993  0.00  0.00    +0.056 C 
ATOM     14  C   UNL A   1      34.828 -36.143 -28.103  0.00  0.00    -0.020 C 
ATOM     15  C   UNL A   1      35.420 -37.447 -27.520  0.00  0.00    +0.017 C 
ATOM     16  N   UNL A   1      35.219 -38.642 -28.355  0.00  0.00    -0.293 N 
ATOM     17  C   UNL A   1      36.259 -39.349 -28.963  0.00  0.00    +0.247 C 
ATOM     18  O   UNL A   1      36.136 -40.501 -29.376  0.00  0.00    -0.270 OA
ATOM     19  C   UNL A   1      33.932 -39.356 -28.269  0.00  0.00    +0.040 C 
ENDROOT
BRANCH  17  20
ATOM     20  C   UNL A   1      37.578 -38.703 -29.133  0.00  0.00    +0.037 A 
ATOM     21  C   UNL A   1      38.657 -39.055 -28.317  0.00  0.00    -0.050 A 
ATOM     22  C   UNL A   1      39.881 -38.405 -28.467  0.00  0.00    -0.061 A 
ATOM     23  C   UNL A   1      40.021 -37.394 -29.419  0.00  0.00    -0.062 A 
ATOM     24  C   UNL A   1      38.936 -37.025 -30.217  0.00  0.00    -0.061 A 
ATOM     25  C   UNL A   1      37.710 -37.674 -30.070  0.00  0.00    -0.050 A 
ENDBRANCH  17  20
BRANCH   1  27
ATOM     26  C   UNL A   1      28.550 -35.837 -26.972  0.00  0.00    +0.079 C 
ATOM     27  O   UNL A   1      29.785 -35.960 -26.279  0.00  0.00    -0.491 OA
ENDBRANCH   1  27
BRANCH  10  28
ATOM     28  O   UNL A   1      33.115 -33.726 -32.009  0.00  0.00    -0.388 OA
ATOM     29  H   UNL A   1      33.297 -34.198 -32.836  0.00  0.00    +0.000 HD
ENDBRANCH  10  28
TORSDOF 3
ENDMDL
MODEL 11
REMARK VINA RESULT:    -6.954     14.901     18.333
REMARK INTER + INTRA:          -8.541
REMARK INTER:                  -7.928
REMARK INTRA:                  -0.613
REMARK UNBOUND:                -0.570
REMARK  Name = cpd311.pdb
REMARK  4 active torsions:
REMARK  status: ('A' for Active; 'I' for Inactive)
REMARK    1  A    between atoms: C_1  and  O_2
REMARK    2  A    between atoms: O_2  and  C_3
REMARK    3  A    between atoms: C_12  and  O_13
REMARK    4  A    between atoms: C_20  and  C_22
REMARK                            x       y       z     vdW  Elec       q    Type
REMARK                         _______ _______ _______ _____ _____    ______ ____
ROOT
ATOM      1  C   UNL A   1      36.475 -18.492 -32.920  0.00  0.00    +0.162 A 
ATOM      2  C   UNL A   1      36.846 -17.250 -32.398  0.00  0.00    -0.016 A 
ATOM      3  C   UNL A   1      38.203 -16.934 -32.168  0.00  0.00    -0.053 A 
ATOM      4  C   UNL A   1      39.224 -17.860 -32.431  0.00  0.00    -0.022 A 
ATOM      5  C   UNL A   1      38.831 -19.129 -32.829  0.00  0.00    +0.016 A 
ATOM      6  C   UNL A   1      37.493 -19.405 -33.140  0.00  0.00    +0.167 A 
ATOM      7  O   UNL A   1      37.337 -20.640 -33.759  0.00  0.00    -0.484 OA
ATOM      8  C   UNL A   1      38.521 -21.305 -33.298  0.00  0.00    +0.116 C 
ATOM      9  C   UNL A   1      38.938 -22.566 -34.040  0.00  0.00    +0.015 C 
ATOM     10  C   UNL A   1      40.150 -23.182 -33.302  0.00  0.00    +0.077 C 
ATOM     11  C   UNL A   1      40.945 -22.221 -32.441  0.00  0.00    -0.059 C 
ATOM     12  C   UNL A   1      40.723 -20.891 -32.387  0.00  0.00    -0.071 C 
ATOM     13  C   UNL A   1      39.678 -20.272 -33.279  0.00  0.00    +0.056 C 
ATOM     14  C   UNL A   1      40.296 -19.871 -34.641  0.00  0.00    -0.020 C 
ATOM     15  C   UNL A   1      40.985 -18.486 -34.657  0.00  0.00    +0.017 C 
ATOM     16  N   UNL A   1      41.563 -18.071 -33.369  0.00  0.00    -0.293 N 
ATOM     17  C   UNL A   1      42.932 -17.894 -33.152  0.00  0.00    +0.247 C 
ATOM     18  O   UNL A   1      43.384 -17.249 -32.208  0.00  0.00    -0.270 OA
ATOM     19  C   UNL A   1      40.677 -17.459 -32.362  0.00  0.00    +0.040 C 
ENDROOT
BRANCH  17  20
ATOM     20  C   UNL A   1      43.902 -18.504 -34.085  0.00  0.00    +0.037 A 
ATOM     21  C   UNL A   1      44.247 -19.855 -33.975  0.00  0.00    -0.050 A 
ATOM     22  C   UNL A   1      45.195 -20.401 -34.840  0.00  0.00    -0.061 A 
ATOM     23  C   UNL A   1      45.807 -19.595 -35.802  0.00  0.00    -0.062 A 
ATOM     24  C   UNL A   1      45.481 -18.241 -35.895  0.00  0.00    -0.061 A 
ATOM     25  C   UNL A   1      44.533 -17.691 -35.031  0.00  0.00    -0.050 A 
ENDBRANCH  17  20
BRANCH   1  27
ATOM     26  C   UNL A   1      34.450 -17.988 -34.042  0.00  0.00    +0.079 C 
ATOM     27  O   UNL A   1      35.210 -18.883 -33.242  0.00  0.00    -0.491 OA
ENDBRANCH   1  27
BRANCH  10  28
ATOM     28  O   UNL A   1      39.684 -24.194 -32.413  0.00  0.00    -0.388 OA
ATOM     29  H   UNL A   1      40.429 -24.535 -31.893  0.00  0.00    +0.000 HD
ENDBRANCH  10  28
TORSDOF 3
ENDMDL
MODEL 12
REMARK VINA RESULT:    -6.866      2.361      4.074
REMARK INTER + INTRA:          -8.440
REMARK INTER:                  -7.931
REMARK INTRA:                  -0.509
REMARK UNBOUND:                -0.570
REMARK  Name = cpd311.pdb
REMARK  4 active torsions:
REMARK  status: ('A' for Active; 'I' for Inactive)
REMARK    1  A    between atoms: C_1  and  O_2
REMARK    2  A    between atoms: O_2  and  C_3
REMARK    3  A    between atoms: C_12  and  O_13
REMARK    4  A    between atoms: C_20  and  C_22
REMARK                            x       y       z     vdW  Elec       q    Type
REMARK                         _______ _______ _______ _____ _____    ______ ____
ROOT
ATOM      1  C   UNL A   1      29.717 -35.522 -31.409  0.00  0.00    +0.162 A 
ATOM      2  C   UNL A   1      29.993 -34.330 -32.084  0.00  0.00    -0.016 A 
ATOM      3  C   UNL A   1      31.276 -33.745 -32.034  0.00  0.00    -0.053 A 
ATOM      4  C   UNL A   1      32.314 -34.324 -31.288  0.00  0.00    -0.022 A 
ATOM      5  C   UNL A   1      31.992 -35.436 -30.523  0.00  0.00    +0.016 A 
ATOM      6  C   UNL A   1      30.743 -36.060 -30.650  0.00  0.00    +0.167 A 
ATOM      7  O   UNL A   1      30.699 -37.291 -30.005  0.00  0.00    -0.484 OA
ATOM      8  C   UNL A   1      31.750 -37.111 -29.046  0.00  0.00    +0.116 C 
ATOM      9  C   UNL A   1      32.292 -38.365 -28.374  0.00  0.00    +0.015 C 
ATOM     10  C   UNL A   1      33.312 -37.932 -27.296  0.00  0.00    +0.077 C 
ATOM     11  C   UNL A   1      33.927 -36.560 -27.495  0.00  0.00    -0.059 C 
ATOM     12  C   UNL A   1      33.720 -35.788 -28.583  0.00  0.00    -0.071 C 
ATOM     13  C   UNL A   1      32.895 -36.317 -29.727  0.00  0.00    +0.056 C 
ATOM     14  C   UNL A   1      33.790 -37.080 -30.735  0.00  0.00    -0.020 C 
ATOM     15  C   UNL A   1      34.489 -36.187 -31.785  0.00  0.00    +0.017 C 
ATOM     16  N   UNL A   1      34.793 -34.821 -31.328  0.00  0.00    -0.293 N 
ATOM     17  C   UNL A   1      36.090 -34.325 -31.170  0.00  0.00    +0.247 C 
ATOM     18  O   UNL A   1      36.347 -33.124 -31.110  0.00  0.00    -0.270 OA
ATOM     19  C   UNL A   1      33.727 -33.804 -31.384  0.00  0.00    +0.040 C 
ENDROOT
BRANCH  17  20
ATOM     20  C   UNL A   1      37.223 -35.269 -31.063  0.00  0.00    +0.037 A 
ATOM     21  C   UNL A   1      37.309 -36.164 -29.992  0.00  0.00    -0.050 A 
ATOM     22  C   UNL A   1      38.407 -37.017 -29.889  0.00  0.00    -0.061 A 
ATOM     23  C   UNL A   1      39.423 -36.965 -30.845  0.00  0.00    -0.062 A 
ATOM     24  C   UNL A   1      39.349 -36.053 -31.900  0.00  0.00    -0.061 A 
ATOM     25  C   UNL A   1      38.252 -35.197 -32.007  0.00  0.00    -0.050 A 
ENDBRANCH  17  20
BRANCH   1  27
ATOM     26  C   UNL A   1      27.945 -36.402 -32.712  0.00  0.00    +0.079 C 
ATOM     27  O   UNL A   1      28.541 -36.210 -31.437  0.00  0.00    -0.491 OA
ENDBRANCH   1  27
BRANCH  10  28
ATOM     28  O   UNL A   1      32.655 -37.874 -26.032  0.00  0.00    -0.388 OA
ATOM     29  H   UNL A   1      33.308 -37.700 -25.336  0.00  0.00    +0.000 HD
ENDBRANCH  10  28
TORSDOF 3
ENDMDL
MODEL 13
REMARK VINA RESULT:    -6.820     17.987     21.127
REMARK INTER + INTRA:          -8.387
REMARK INTER:                  -7.787
REMARK INTRA:                  -0.600
REMARK UNBOUND:                -0.570
REMARK  Name = cpd311.pdb
REMARK  4 active torsions:
REMARK  status: ('A' for Active; 'I' for Inactive)
REMARK    1  A    between atoms: C_1  and  O_2
REMARK    2  A    between atoms: O_2  and  C_3
REMARK    3  A    between atoms: C_12  and  O_13
REMARK    4  A    between atoms: C_20  and  C_22
REMARK                            x       y       z     vdW  Elec       q    Type
REMARK                         _______ _______ _______ _____ _____    ______ ____
ROOT
ATOM      1  C   UNL A   1      44.627 -17.236 -33.587  0.00  0.00    +0.162 A 
ATOM      2  C   UNL A   1      46.009 -17.431 -33.657  0.00  0.00    -0.016 A 
ATOM      3  C   UNL A   1      46.574 -18.280 -34.632  0.00  0.00    -0.053 A 
ATOM      4  C   UNL A   1      45.773 -18.975 -35.551  0.00  0.00    -0.022 A 
ATOM      5  C   UNL A   1      44.399 -18.869 -35.389  0.00  0.00    +0.016 A 
ATOM      6  C   UNL A   1      43.849 -17.956 -34.478  0.00  0.00    +0.167 A 
ATOM      7  O   UNL A   1      42.476 -17.810 -34.639  0.00  0.00    -0.484 OA
ATOM      8  C   UNL A   1      42.163 -19.055 -35.277  0.00  0.00    +0.116 C 
ATOM      9  C   UNL A   1      40.812 -19.154 -35.971  0.00  0.00    +0.015 C 
ATOM     10  C   UNL A   1      40.631 -20.606 -36.471  0.00  0.00    +0.077 C 
ATOM     11  C   UNL A   1      41.913 -21.392 -36.664  0.00  0.00    -0.059 C 
ATOM     12  C   UNL A   1      43.150 -20.867 -36.538  0.00  0.00    -0.071 C 
ATOM     13  C   UNL A   1      43.311 -19.394 -36.263  0.00  0.00    +0.056 C 
ATOM     14  C   UNL A   1      43.369 -18.598 -37.590  0.00  0.00    -0.020 C 
ATOM     15  C   UNL A   1      44.769 -18.526 -38.242  0.00  0.00    +0.017 C 
ATOM     16  N   UNL A   1      45.634 -19.687 -37.973  0.00  0.00    -0.293 N 
ATOM     17  C   UNL A   1      46.066 -20.578 -38.958  0.00  0.00    +0.247 C 
ATOM     18  O   UNL A   1      47.025 -21.333 -38.806  0.00  0.00    -0.270 OA
ATOM     19  C   UNL A   1      46.384 -19.730 -36.705  0.00  0.00    +0.040 C 
ENDROOT
BRANCH  17  20
ATOM     20  C   UNL A   1      45.352 -20.638 -40.251  0.00  0.00    +0.037 A 
ATOM     21  C   UNL A   1      45.839 -19.954 -41.369  0.00  0.00    -0.050 A 
ATOM     22  C   UNL A   1      45.129 -19.991 -42.568  0.00  0.00    -0.061 A 
ATOM     23  C   UNL A   1      43.926 -20.697 -42.645  0.00  0.00    -0.062 A 
ATOM     24  C   UNL A   1      43.427 -21.359 -41.521  0.00  0.00    -0.061 A 
ATOM     25  C   UNL A   1      44.136 -21.324 -40.319  0.00  0.00    -0.050 A 
ENDBRANCH  17  20
BRANCH   1  27
ATOM     26  C   UNL A   1      44.717 -15.913 -31.622  0.00  0.00    +0.079 C 
ATOM     27  O   UNL A   1      43.975 -16.396 -32.734  0.00  0.00    -0.491 OA
ENDBRANCH   1  27
BRANCH  10  28
ATOM     28  O   UNL A   1      39.878 -21.338 -35.508  0.00  0.00    -0.388 OA
ATOM     29  H   UNL A   1      38.955 -21.039 -35.524  0.00  0.00    +0.000 HD
ENDBRANCH  10  28
TORSDOF 3
ENDMDL
MODEL 14
REMARK VINA RESULT:    -6.818     18.189     21.275
REMARK INTER + INTRA:          -8.385
REMARK INTER:                  -7.793
REMARK INTRA:                  -0.592
REMARK UNBOUND:                -0.570
REMARK  Name = cpd311.pdb
REMARK  4 active torsions:
REMARK  status: ('A' for Active; 'I' for Inactive)
REMARK    1  A    between atoms: C_1  and  O_2
REMARK    2  A    between atoms: O_2  and  C_3
REMARK    3  A    between atoms: C_12  and  O_13
REMARK    4  A    between atoms: C_20  and  C_22
REMARK                            x       y       z     vdW  Elec       q    Type
REMARK                         _______ _______ _______ _____ _____    ______ ____
ROOT
ATOM      1  C   UNL A   1      41.369 -18.703 -35.978  0.00  0.00    +0.162 A 
ATOM      2  C   UNL A   1      40.570 -18.328 -37.061  0.00  0.00    -0.016 A 
ATOM      3  C   UNL A   1      41.093 -18.290 -38.371  0.00  0.00    -0.053 A 
ATOM      4  C   UNL A   1      42.436 -18.604 -38.633  0.00  0.00    -0.022 A 
ATOM      5  C   UNL A   1      43.246 -18.852 -37.534  0.00  0.00    +0.016 A 
ATOM      6  C   UNL A   1      42.700 -18.976 -36.249  0.00  0.00    +0.167 A 
ATOM      7  O   UNL A   1      43.617 -19.473 -35.330  0.00  0.00    -0.484 OA
ATOM      8  C   UNL A   1      44.845 -19.110 -35.976  0.00  0.00    +0.116 C 
ATOM      9  C   UNL A   1      46.111 -19.798 -35.489  0.00  0.00    +0.015 C 
ATOM     10  C   UNL A   1      47.317 -19.169 -36.224  0.00  0.00    +0.077 C 
ATOM     11  C   UNL A   1      46.993 -18.487 -37.539  0.00  0.00    -0.059 C 
ATOM     12  C   UNL A   1      45.778 -18.509 -38.125  0.00  0.00    -0.071 C 
ATOM     13  C   UNL A   1      44.664 -19.313 -37.503  0.00  0.00    +0.056 C 
ATOM     14  C   UNL A   1      44.682 -20.766 -38.036  0.00  0.00    -0.020 C 
ATOM     15  C   UNL A   1      43.945 -20.973 -39.379  0.00  0.00    +0.017 C 
ATOM     16  N   UNL A   1      43.946 -19.801 -40.269  0.00  0.00    -0.293 N 
ATOM     17  C   UNL A   1      44.590 -19.767 -41.509  0.00  0.00    +0.247 C 
ATOM     18  O   UNL A   1      44.329 -18.938 -42.379  0.00  0.00    -0.270 OA
ATOM     19  C   UNL A   1      42.943 -18.744 -40.046  0.00  0.00    +0.040 C 
ENDROOT
BRANCH  17  20
ATOM     20  C   UNL A   1      45.640 -20.762 -41.812  0.00  0.00    +0.037 A 
ATOM     21  C   UNL A   1      45.322 -21.967 -42.446  0.00  0.00    -0.050 A 
ATOM     22  C   UNL A   1      46.322 -22.909 -42.686  0.00  0.00    -0.061 A 
ATOM     23  C   UNL A   1      47.632 -22.654 -42.279  0.00  0.00    -0.062 A 
ATOM     24  C   UNL A   1      47.945 -21.461 -41.624  0.00  0.00    -0.061 A 
ATOM     25  C   UNL A   1      46.947 -20.516 -41.382  0.00  0.00    -0.050 A 
ENDBRANCH  17  20
BRANCH   1  27
ATOM     26  C   UNL A   1      40.253 -20.027 -34.360  0.00  0.00    +0.079 C 
ATOM     27  O   UNL A   1      40.961 -18.838 -34.685  0.00  0.00    -0.491 OA
ENDBRANCH   1  27
BRANCH  10  28
ATOM     28  O   UNL A   1      47.884 -18.154 -35.399  0.00  0.00    -0.388 OA
ATOM     29  H   UNL A   1      48.763 -17.918 -35.735  0.00  0.00    +0.000 HD
ENDBRANCH  10  28
TORSDOF 3
ENDMDL
MODEL 15
REMARK VINA RESULT:    -6.803     16.634     20.560
REMARK INTER + INTRA:          -8.367
REMARK INTER:                  -7.749
REMARK INTRA:                  -0.618
REMARK UNBOUND:                -0.570
REMARK  Name = cpd311.pdb
REMARK  4 active torsions:
REMARK  status: ('A' for Active; 'I' for Inactive)
REMARK    1  A    between atoms: C_1  and  O_2
REMARK    2  A    between atoms: O_2  and  C_3
REMARK    3  A    between atoms: C_12  and  O_13
REMARK    4  A    between atoms: C_20  and  C_22
REMARK                            x       y       z     vdW  Elec       q    Type
REMARK                         _______ _______ _______ _____ _____    ______ ____
ROOT
ATOM      1  C   UNL A   1      44.809 -18.106 -40.198  0.00  0.00    +0.162 A 
ATOM      2  C   UNL A   1      44.214 -19.133 -40.936  0.00  0.00    -0.016 A 
ATOM      3  C   UNL A   1      43.542 -20.194 -40.294  0.00  0.00    -0.053 A 
ATOM      4  C   UNL A   1      43.466 -20.272 -38.895  0.00  0.00    -0.022 A 
ATOM      5  C   UNL A   1      44.167 -19.315 -38.175  0.00  0.00    +0.016 A 
ATOM      6  C   UNL A   1      44.754 -18.217 -38.818  0.00  0.00    +0.167 A 
ATOM      7  O   UNL A   1      45.182 -17.245 -37.921  0.00  0.00    -0.484 OA
ATOM      8  C   UNL A   1      45.337 -18.043 -36.740  0.00  0.00    +0.116 C 
ATOM      9  C   UNL A   1      45.437 -17.301 -35.415  0.00  0.00    +0.015 C 
ATOM     10  C   UNL A   1      45.727 -18.336 -34.303  0.00  0.00    +0.077 C 
ATOM     11  C   UNL A   1      45.326 -19.763 -34.621  0.00  0.00    -0.059 C 
ATOM     12  C   UNL A   1      44.652 -20.131 -35.731  0.00  0.00    -0.071 C 
ATOM     13  C   UNL A   1      44.183 -19.078 -36.702  0.00  0.00    +0.056 C 
ATOM     14  C   UNL A   1      42.777 -18.564 -36.309  0.00  0.00    -0.020 C 
ATOM     15  C   UNL A   1      41.603 -19.424 -36.831  0.00  0.00    +0.017 C 
ATOM     16  N   UNL A   1      41.910 -20.855 -36.988  0.00  0.00    -0.293 N 
ATOM     17  C   UNL A   1      41.308 -21.867 -36.236  0.00  0.00    +0.247 C 
ATOM     18  O   UNL A   1      41.312 -23.049 -36.575  0.00  0.00    -0.270 OA
ATOM     19  C   UNL A   1      42.594 -21.299 -38.217  0.00  0.00    +0.040 C 
ENDROOT
BRANCH  17  20
ATOM     20  C   UNL A   1      40.632 -21.526 -34.966  0.00  0.00    +0.037 A 
ATOM     21  C   UNL A   1      41.373 -21.249 -33.813  0.00  0.00    -0.050 A 
ATOM     22  C   UNL A   1      40.715 -20.970 -32.616  0.00  0.00    -0.061 A 
ATOM     23  C   UNL A   1      39.320 -20.983 -32.568  0.00  0.00    -0.062 A 
ATOM     24  C   UNL A   1      38.580 -21.285 -33.713  0.00  0.00    -0.061 A 
ATOM     25  C   UNL A   1      39.236 -21.565 -34.913  0.00  0.00    -0.050 A 
ENDBRANCH  17  20
BRANCH   1  27
ATOM     26  C   UNL A   1      46.810 -17.123 -41.000  0.00  0.00    +0.079 C 
ATOM     27  O   UNL A   1      45.425 -17.002 -40.707  0.00  0.00    -0.491 OA
ENDBRANCH   1  27
BRANCH  10  28
ATOM     28  O   UNL A   1      47.132 -18.380 -34.066  0.00  0.00    -0.388 OA
ATOM     29  H   UNL A   1      47.524 -17.520 -34.286  0.00  0.00    +0.000 HD
ENDBRANCH  10  28
TORSDOF 3
ENDMDL
MODEL 16
REMARK VINA RESULT:    -6.734     17.073     18.677
REMARK INTER + INTRA:          -8.288
REMARK INTER:                  -7.682
REMARK INTRA:                  -0.606
REMARK UNBOUND:                -0.570
REMARK  Name = cpd311.pdb
REMARK  4 active torsions:
REMARK  status: ('A' for Active; 'I' for Inactive)
REMARK    1  A    between atoms: C_1  and  O_2
REMARK    2  A    between atoms: O_2  and  C_3
REMARK    3  A    between atoms: C_12  and  O_13
REMARK    4  A    between atoms: C_20  and  C_22
REMARK                            x       y       z     vdW  Elec       q    Type
REMARK                         _______ _______ _______ _____ _____    ______ ____
ROOT
ATOM      1  C   UNL A   1      38.211 -19.891 -34.165  0.00  0.00    +0.162 A 
ATOM      2  C   UNL A   1      38.826 -19.820 -32.913  0.00  0.00    -0.016 A 
ATOM      3  C   UNL A   1      40.212 -20.042 -32.769  0.00  0.00    -0.053 A 
ATOM      4  C   UNL A   1      41.019 -20.366 -33.871  0.00  0.00    -0.022 A 
ATOM      5  C   UNL A   1      40.374 -20.556 -35.085  0.00  0.00    +0.016 A 
ATOM      6  C   UNL A   1      39.016 -20.246 -35.236  0.00  0.00    +0.167 A 
ATOM      7  O   UNL A   1      38.615 -20.255 -36.567  0.00  0.00    -0.484 OA
ATOM      8  C   UNL A   1      39.619 -21.114 -37.126  0.00  0.00    +0.116 C 
ATOM      9  C   UNL A   1      39.776 -21.097 -38.640  0.00  0.00    +0.015 C 
ATOM     10  C   UNL A   1      40.809 -22.179 -39.030  0.00  0.00    +0.077 C 
ATOM     11  C   UNL A   1      41.770 -22.588 -37.931  0.00  0.00    -0.059 C 
ATOM     12  C   UNL A   1      41.835 -21.992 -36.722  0.00  0.00    -0.071 C 
ATOM     13  C   UNL A   1      40.968 -20.794 -36.432  0.00  0.00    +0.056 C 
ATOM     14  C   UNL A   1      41.691 -19.489 -36.847  0.00  0.00    -0.020 C 
ATOM     15  C   UNL A   1      42.659 -18.918 -35.785  0.00  0.00    +0.017 C 
ATOM     16  N   UNL A   1      43.281 -19.927 -34.913  0.00  0.00    -0.293 N 
ATOM     17  C   UNL A   1      44.650 -20.204 -34.898  0.00  0.00    +0.247 C 
ATOM     18  O   UNL A   1      45.207 -20.790 -33.971  0.00  0.00    -0.270 OA
ATOM     19  C   UNL A   1      42.521 -20.419 -33.749  0.00  0.00    +0.040 C 
ENDROOT
BRANCH  17  20
ATOM     20  C   UNL A   1      45.491 -19.787 -36.040  0.00  0.00    +0.037 A 
ATOM     21  C   UNL A   1      45.510 -20.532 -37.223  0.00  0.00    -0.050 A 
ATOM     22  C   UNL A   1      46.341 -20.144 -38.273  0.00  0.00    -0.061 A 
ATOM     23  C   UNL A   1      47.161 -19.023 -38.136  0.00  0.00    -0.062 A 
ATOM     24  C   UNL A   1      47.160 -18.293 -36.945  0.00  0.00    -0.061 A 
ATOM     25  C   UNL A   1      46.330 -18.680 -35.891  0.00  0.00    -0.050 A 
ENDBRANCH  17  20
BRANCH   1  27
ATOM     26  C   UNL A   1      36.201 -18.832 -33.493  0.00  0.00    +0.079 C 
ATOM     27  O   UNL A   1      36.900 -19.634 -34.434  0.00  0.00    -0.491 OA
ENDBRANCH   1  27
BRANCH  10  28
ATOM     28  O   UNL A   1      40.118 -23.371 -39.393  0.00  0.00    -0.388 OA
ATOM     29  H   UNL A   1      40.052 -23.955 -38.621  0.00  0.00    +0.000 HD
ENDBRANCH  10  28
TORSDOF 3
ENDMDL
MODEL 17
REMARK VINA RESULT:    -6.729     19.099     22.110
REMARK INTER + INTRA:          -8.282
REMARK INTER:                  -7.666
REMARK INTRA:                  -0.616
REMARK UNBOUND:                -0.570
REMARK  Name = cpd311.pdb
REMARK  4 active torsions:
REMARK  status: ('A' for Active; 'I' for Inactive)
REMARK    1  A    between atoms: C_1  and  O_2
REMARK    2  A    between atoms: O_2  and  C_3
REMARK    3  A    between atoms: C_12  and  O_13
REMARK    4  A    between atoms: C_20  and  C_22
REMARK                            x       y       z     vdW  Elec       q    Type
REMARK                         _______ _______ _______ _____ _____    ______ ____
ROOT
ATOM      1  C   UNL A   1      46.288 -21.274 -41.582  0.00  0.00    +0.162 A 
ATOM      2  C   UNL A   1      47.274 -20.288 -41.670  0.00  0.00    -0.016 A 
ATOM      3  C   UNL A   1      47.246 -19.155 -40.829  0.00  0.00    -0.053 A 
ATOM      4  C   UNL A   1      46.217 -18.963 -39.894  0.00  0.00    -0.022 A 
ATOM      5  C   UNL A   1      45.179 -19.884 -39.907  0.00  0.00    +0.016 A 
ATOM      6  C   UNL A   1      45.261 -21.051 -40.679  0.00  0.00    +0.167 A 
ATOM      7  O   UNL A   1      44.259 -21.963 -40.368  0.00  0.00    -0.484 OA
ATOM      8  C   UNL A   1      43.280 -21.079 -39.806  0.00  0.00    +0.116 C 
ATOM      9  C   UNL A   1      42.165 -21.716 -38.989  0.00  0.00    +0.015 C 
ATOM     10  C   UNL A   1      41.162 -20.607 -38.594  0.00  0.00    +0.077 C 
ATOM     11  C   UNL A   1      41.717 -19.196 -38.598  0.00  0.00    -0.059 C 
ATOM     12  C   UNL A   1      43.016 -18.894 -38.805  0.00  0.00    -0.071 C 
ATOM     13  C   UNL A   1      44.023 -20.003 -38.973  0.00  0.00    +0.056 C 
ATOM     14  C   UNL A   1      44.591 -20.432 -37.598  0.00  0.00    -0.020 C 
ATOM     15  C   UNL A   1      45.772 -19.574 -37.088  0.00  0.00    +0.017 C 
ATOM     16  N   UNL A   1      45.754 -18.173 -37.537  0.00  0.00    -0.293 N 
ATOM     17  C   UNL A   1      45.594 -17.083 -36.678  0.00  0.00    +0.247 C 
ATOM     18  O   UNL A   1      45.899 -15.933 -36.988  0.00  0.00    -0.270 OA
ATOM     19  C   UNL A   1      46.286 -17.854 -38.875  0.00  0.00    +0.040 C 
ENDROOT
BRANCH  17  20
ATOM     20  C   UNL A   1      45.029 -17.296 -35.328  0.00  0.00    +0.037 A 
ATOM     21  C   UNL A   1      45.861 -17.358 -34.207  0.00  0.00    -0.050 A 
ATOM     22  C   UNL A   1      45.312 -17.600 -32.948  0.00  0.00    -0.061 A 
ATOM     23  C   UNL A   1      43.936 -17.796 -32.814  0.00  0.00    -0.062 A 
ATOM     24  C   UNL A   1      43.108 -17.759 -33.938  0.00  0.00    -0.061 A 
ATOM     25  C   UNL A   1      43.655 -17.517 -35.199  0.00  0.00    -0.050 A 
ENDBRANCH  17  20
BRANCH   1  27
ATOM     26  C   UNL A   1      47.334 -23.333 -42.112  0.00  0.00    +0.079 C 
ATOM     27  O   UNL A   1      46.246 -22.436 -42.292  0.00  0.00    -0.491 OA
ENDBRANCH   1  27
BRANCH  10  28
ATOM     28  O   UNL A   1      40.090 -20.596 -39.533  0.00  0.00    -0.388 OA
ATOM     29  H   UNL A   1      39.440 -21.274 -39.290  0.00  0.00    +0.000 HD
ENDBRANCH  10  28
TORSDOF 3
ENDMDL
MODEL 18
REMARK VINA RESULT:    -6.694     19.921     21.922
REMARK INTER + INTRA:          -8.243
REMARK INTER:                  -7.615
REMARK INTRA:                  -0.628
REMARK UNBOUND:                -0.570
REMARK  Name = cpd311.pdb
REMARK  4 active torsions:
REMARK  status: ('A' for Active; 'I' for Inactive)
REMARK    1  A    between atoms: C_1  and  O_2
REMARK    2  A    between atoms: O_2  and  C_3
REMARK    3  A    between atoms: C_12  and  O_13
REMARK    4  A    between atoms: C_20  and  C_22
REMARK                            x       y       z     vdW  Elec       q    Type
REMARK                         _______ _______ _______ _____ _____    ______ ____
ROOT
ATOM      1  C   UNL A   1      46.461 -21.545 -41.261  0.00  0.00    +0.162 A 
ATOM      2  C   UNL A   1      45.376 -21.922 -42.058  0.00  0.00    -0.016 A 
ATOM      3  C   UNL A   1      44.051 -21.648 -41.659  0.00  0.00    -0.053 A 
ATOM      4  C   UNL A   1      43.771 -21.009 -40.441  0.00  0.00    -0.022 A 
ATOM      5  C   UNL A   1      44.848 -20.755 -39.605  0.00  0.00    +0.016 A 
ATOM      6  C   UNL A   1      46.164 -20.948 -40.047  0.00  0.00    +0.167 A 
ATOM      7  O   UNL A   1      47.101 -20.402 -39.176  0.00  0.00    -0.484 OA
ATOM      8  C   UNL A   1      46.336 -20.384 -37.963  0.00  0.00    +0.116 C 
ATOM      9  C   UNL A   1      46.860 -19.513 -36.830  0.00  0.00    +0.015 C 
ATOM     10  C   UNL A   1      45.965 -19.744 -35.590  0.00  0.00    +0.077 C 
ATOM     11  C   UNL A   1      44.576 -20.276 -35.880  0.00  0.00    -0.059 C 
ATOM     12  C   UNL A   1      44.070 -20.437 -37.121  0.00  0.00    -0.071 C 
ATOM     13  C   UNL A   1      44.876 -20.002 -38.318  0.00  0.00    +0.056 C 
ATOM     14  C   UNL A   1      44.590 -18.517 -38.653  0.00  0.00    -0.020 C 
ATOM     15  C   UNL A   1      43.342 -18.281 -39.535  0.00  0.00    +0.017 C 
ATOM     16  N   UNL A   1      42.273 -19.278 -39.368  0.00  0.00    -0.293 N 
ATOM     17  C   UNL A   1      41.010 -18.983 -38.846  0.00  0.00    +0.247 C 
ATOM     18  O   UNL A   1      40.032 -19.711 -39.004  0.00  0.00    -0.270 OA
ATOM     19  C   UNL A   1      42.374 -20.552 -40.103  0.00  0.00    +0.040 C 
ENDROOT
BRANCH  17  20
ATOM     20  C   UNL A   1      40.818 -17.747 -38.059  0.00  0.00    +0.037 A 
ATOM     21  C   UNL A   1      41.203 -17.688 -36.716  0.00  0.00    -0.050 A 
ATOM     22  C   UNL A   1      40.975 -16.525 -35.980  0.00  0.00    -0.061 A 
ATOM     23  C   UNL A   1      40.351 -15.431 -36.581  0.00  0.00    -0.062 A 
ATOM     24  C   UNL A   1      39.944 -15.499 -37.916  0.00  0.00    -0.061 A 
ATOM     25  C   UNL A   1      40.170 -16.662 -38.654  0.00  0.00    -0.050 A 
ENDBRANCH  17  20
BRANCH   1  27
ATOM     26  C   UNL A   1      48.279 -23.028 -41.594  0.00  0.00    +0.079 C 
ATOM     27  O   UNL A   1      47.779 -21.698 -41.571  0.00  0.00    -0.491 OA
ENDBRANCH   1  27
BRANCH  10  28
ATOM     28  O   UNL A   1      46.579 -20.720 -34.751  0.00  0.00    -0.388 OA
ATOM     29  H   UNL A   1      47.506 -20.833 -35.011  0.00  0.00    +0.000 HD
ENDBRANCH  10  28
TORSDOF 3
ENDMDL
MODEL 19
REMARK VINA RESULT:    -6.674     27.568     30.824
REMARK INTER + INTRA:          -8.219
REMARK INTER:                  -7.682
REMARK INTRA:                  -0.537
REMARK UNBOUND:                -0.570
REMARK  Name = cpd311.pdb
REMARK  4 active torsions:
REMARK  status: ('A' for Active; 'I' for Inactive)
REMARK    1  A    between atoms: C_1  and  O_2
REMARK    2  A    between atoms: O_2  and  C_3
REMARK    3  A    between atoms: C_12  and  O_13
REMARK    4  A    between atoms: C_20  and  C_22
REMARK                            x       y       z     vdW  Elec       q    Type
REMARK                         _______ _______ _______ _____ _____    ______ ____
ROOT
ATOM      1  C   UNL A   1      54.391 -37.758 -54.711  0.00  0.00    +0.162 A 
ATOM      2  C   UNL A   1      55.046 -38.887 -54.213  0.00  0.00    -0.016 A 
ATOM      3  C   UNL A   1      55.810 -38.821 -53.028  0.00  0.00    -0.053 A 
ATOM      4  C   UNL A   1      55.960 -37.619 -52.320  0.00  0.00    -0.022 A 
ATOM      5  C   UNL A   1      55.409 -36.482 -52.893  0.00  0.00    +0.016 A 
ATOM      6  C   UNL A   1      54.578 -36.573 -54.019  0.00  0.00    +0.167 A 
ATOM      7  O   UNL A   1      53.921 -35.378 -54.289  0.00  0.00    -0.484 OA
ATOM      8  C   UNL A   1      54.805 -34.452 -53.643  0.00  0.00    +0.116 C 
ATOM      9  C   UNL A   1      54.265 -33.055 -53.375  0.00  0.00    +0.015 C 
ATOM     10  C   UNL A   1      55.414 -32.195 -52.799  0.00  0.00    +0.077 C 
ATOM     11  C   UNL A   1      56.544 -32.970 -52.151  0.00  0.00    -0.059 C 
ATOM     12  C   UNL A   1      56.534 -34.306 -51.959  0.00  0.00    -0.071 C 
ATOM     13  C   UNL A   1      55.311 -35.104 -52.331  0.00  0.00    +0.056 C 
ATOM     14  C   UNL A   1      54.324 -35.168 -51.140  0.00  0.00    -0.020 C 
ATOM     15  C   UNL A   1      54.618 -36.286 -50.113  0.00  0.00    +0.017 C 
ATOM     16  N   UNL A   1      56.038 -36.648 -49.987  0.00  0.00    -0.293 N 
ATOM     17  C   UNL A   1      56.792 -36.445 -48.828  0.00  0.00    +0.247 C 
ATOM     18  O   UNL A   1      57.853 -37.026 -48.607  0.00  0.00    -0.270 OA
ATOM     19  C   UNL A   1      56.617 -37.590 -50.963  0.00  0.00    +0.040 C 
ENDROOT
BRANCH  17  20
ATOM     20  C   UNL A   1      56.315 -35.488 -47.807  0.00  0.00    +0.037 A 
ATOM     21  C   UNL A   1      56.736 -34.155 -47.824  0.00  0.00    -0.050 A 
ATOM     22  C   UNL A   1      56.306 -33.279 -46.828  0.00  0.00    -0.061 A 
ATOM     23  C   UNL A   1      55.470 -33.739 -45.809  0.00  0.00    -0.062 A 
ATOM     24  C   UNL A   1      55.070 -35.076 -45.778  0.00  0.00    -0.061 A 
ATOM     25  C   UNL A   1      55.499 -35.956 -46.773  0.00  0.00    -0.050 A 
ENDBRANCH  17  20
BRANCH   1  27
ATOM     26  C   UNL A   1      54.214 -37.732 -57.074  0.00  0.00    +0.079 C 
ATOM     27  O   UNL A   1      53.577 -37.716 -55.803  0.00  0.00    -0.491 OA
ENDBRANCH   1  27
BRANCH  10  28
ATOM     28  O   UNL A   1      56.017 -31.457 -53.858  0.00  0.00    -0.388 OA
ATOM     29  H   UNL A   1      55.358 -31.285 -54.549  0.00  0.00    +0.000 HD
ENDBRANCH  10  28
TORSDOF 3
ENDMDL
MODEL 20
REMARK VINA RESULT:    -6.061     21.413     23.098
REMARK INTER + INTRA:          -7.517
REMARK INTER:                  -6.899
REMARK INTRA:                  -0.618
REMARK UNBOUND:                -0.570
REMARK  Name = cpd311.pdb
REMARK  4 active torsions:
REMARK  status: ('A' for Active; 'I' for Inactive)
REMARK    1  A    between atoms: C_1  and  O_2
REMARK    2  A    between atoms: O_2  and  C_3
REMARK    3  A    between atoms: C_12  and  O_13
REMARK    4  A    between atoms: C_20  and  C_22
REMARK                            x       y       z     vdW  Elec       q    Type
REMARK                         _______ _______ _______ _____ _____    ______ ____
ROOT
ATOM      1  C   UNL A   1      45.897 -20.739 -41.540  0.00  0.00    +0.162 A 
ATOM      2  C   UNL A   1      46.812 -21.517 -40.825  0.00  0.00    -0.016 A 
ATOM      3  C   UNL A   1      47.250 -21.126 -39.541  0.00  0.00    -0.053 A 
ATOM      4  C   UNL A   1      46.804 -19.936 -38.946  0.00  0.00    -0.022 A 
ATOM      5  C   UNL A   1      45.996 -19.114 -39.719  0.00  0.00    +0.016 A 
ATOM      6  C   UNL A   1      45.495 -19.551 -40.953  0.00  0.00    +0.167 A 
ATOM      7  O   UNL A   1      44.510 -18.707 -41.452  0.00  0.00    -0.484 OA
ATOM      8  C   UNL A   1      44.846 -17.493 -40.765  0.00  0.00    +0.116 C 
ATOM      9  C   UNL A   1      43.787 -16.400 -40.739  0.00  0.00    +0.015 C 
ATOM     10  C   UNL A   1      44.401 -15.150 -40.068  0.00  0.00    +0.077 C 
ATOM     11  C   UNL A   1      45.588 -15.413 -39.162  0.00  0.00    -0.059 C 
ATOM     12  C   UNL A   1      46.034 -16.645 -38.838  0.00  0.00    -0.071 C 
ATOM     13  C   UNL A   1      45.290 -17.861 -39.326  0.00  0.00    +0.056 C 
ATOM     14  C   UNL A   1      44.183 -18.259 -38.319  0.00  0.00    -0.020 C 
ATOM     15  C   UNL A   1      44.662 -19.148 -37.147  0.00  0.00    +0.017 C 
ATOM     16  N   UNL A   1      46.062 -18.936 -36.746  0.00  0.00    -0.293 N 
ATOM     17  C   UNL A   1      46.446 -18.423 -35.504  0.00  0.00    +0.247 C 
ATOM     18  O   UNL A   1      47.581 -18.548 -35.048  0.00  0.00    -0.270 OA
ATOM     19  C   UNL A   1      47.126 -19.615 -37.508  0.00  0.00    +0.040 C 
ENDROOT
BRANCH  17  20
ATOM     20  C   UNL A   1      45.460 -17.689 -34.682  0.00  0.00    +0.037 A 
ATOM     21  C   UNL A   1      45.135 -16.361 -34.973  0.00  0.00    -0.050 A 
ATOM     22  C   UNL A   1      44.233 -15.674 -34.161  0.00  0.00    -0.061 A 
ATOM     23  C   UNL A   1      43.669 -16.309 -33.053  0.00  0.00    -0.062 A 
ATOM     24  C   UNL A   1      44.013 -17.628 -32.749  0.00  0.00    -0.061 A 
ATOM     25  C   UNL A   1      44.916 -18.318 -33.559  0.00  0.00    -0.050 A 
ENDBRANCH  17  20
BRANCH   1  27
ATOM     26  C   UNL A   1      44.245 -21.931 -42.750  0.00  0.00    +0.079 C 
ATOM     27  O   UNL A   1      45.356 -21.046 -42.753  0.00  0.00    -0.491 OA
ENDBRANCH   1  27
BRANCH  10  28
ATOM     28  O   UNL A   1      44.884 -14.271 -41.081  0.00  0.00    -0.388 OA
ATOM     29  H   UNL A   1      44.931 -13.368 -40.731  0.00  0.00    +0.000 HD
ENDBRANCH  10  28
TORSDOF 3
ENDMDL
