REMARK  Name = cpd311.pdb
REMARK  4 active torsions:
REMARK  status: ('A' for Active; 'I' for Inactive)
REMARK    1  A    between atoms: C_1  and  O_2
REMARK    2  A    between atoms: O_2  and  C_3
REMARK    3  A    between atoms: C_12  and  O_13
REMARK    4  A    between atoms: C_20  and  C_22
REMARK                            x       y       z     vdW  Elec       q    Type
REMARK                         _______ _______ _______ _____ _____    ______ ____
ROOT
ATOM      1  C   UNL A   1       3.767  -1.161   0.382  0.00  0.00    +0.162 A 
ATOM      2  C   UNL A   1       3.731   0.158  -0.078  0.00  0.00    -0.016 A 
ATOM      3  C   UNL A   1       2.539   0.719  -0.584  0.00  0.00    -0.053 A 
ATOM      4  C   UNL A   1       1.355  -0.030  -0.666  0.00  0.00    -0.022 A 
ATOM      5  C   UNL A   1       1.438  -1.372  -0.324  0.00  0.00    +0.016 A 
ATOM      6  C   UNL A   1       2.599  -1.896   0.261  0.00  0.00    +0.167 A 
ATOM      7  O   UNL A   1       2.406  -3.177   0.765  0.00  0.00    -0.484 OA
ATOM      8  C   UNL A   1       1.286  -3.594  -0.028  0.00  0.00    +0.116 C 
ATOM      9  C   UNL A   1       0.510  -4.809   0.459  0.00  0.00    +0.015 C 
ATOM     10  C   UNL A   1      -0.560  -5.156  -0.602  0.00  0.00    +0.077 C 
ATOM     11  C   UNL A   1      -0.960  -4.017  -1.519  0.00  0.00    -0.059 C 
ATOM     12  C   UNL A   1      -0.531  -2.745  -1.379  0.00  0.00    -0.071 C 
ATOM     13  C   UNL A   1       0.342  -2.377  -0.207  0.00  0.00    +0.056 C 
ATOM     14  C   UNL A   1      -0.526  -1.964   1.007  0.00  0.00    -0.020 C 
ATOM     15  C   UNL A   1      -0.977  -0.485   1.008  0.00  0.00    +0.017 C 
ATOM     16  N   UNL A   1      -1.147   0.108  -0.328  0.00  0.00    -0.293 N 
ATOM     17  C   UNL A   1      -2.376   0.534  -0.839  0.00  0.00    +0.247 C 
ATOM     18  O   UNL A   1      -2.476   1.308  -1.789  0.00  0.00    -0.270 OA
ATOM     19  C   UNL A   1       0.044   0.621  -1.030  0.00  0.00    +0.040 C 
ENDROOT
BRANCH  17  20
ATOM     20  C   UNL A   1      -3.629   0.042  -0.228  0.00  0.00    +0.037 A 
ATOM     21  C   UNL A   1      -3.927  -1.324  -0.210  0.00  0.00    -0.050 A 
ATOM     22  C   UNL A   1      -5.133  -1.763   0.335  0.00  0.00    -0.061 A 
ATOM     23  C   UNL A   1      -6.045  -0.838   0.846  0.00  0.00    -0.062 A 
ATOM     24  C   UNL A   1      -5.758   0.528   0.805  0.00  0.00    -0.061 A 
ATOM     25  C   UNL A   1      -4.552   0.971   0.260  0.00  0.00    -0.050 A 
ENDBRANCH  17  20
BRANCH   1  27
ATOM     26  C   UNL A   1       6.095  -1.138   0.824  0.00  0.00    +0.079 C 
ATOM     27  O   UNL A   1       4.837  -1.787   0.948  0.00  0.00    -0.491 OA
ENDBRANCH   1  27
BRANCH  10  28
ATOM     28  O   UNL A   1      -0.049  -6.173  -1.460  0.00  0.00    -0.388 OA
ATOM     29  H   UNL A   1       0.725  -5.835  -1.937  0.00  0.00    +0.000 HD
ENDBRANCH  10  28
TORSDOF 3
