REMARK  Name = cpd83.pdb
REMARK  10 active torsions:
REMARK  status: ('A' for Active; 'I' for Inactive)
REMARK    1  A    between atoms: C_1  and  O_2
REMARK    2  A    between atoms: O_2  and  C_3
REMARK    3  A    between atoms: C_3  and  C_5
REMARK    4  A    between atoms: C_5  and  C_6
REMARK    5  A    between atoms: C_5  and  N_16
REMARK    6  A    between atoms: C_6  and  C_7
REMARK    7  A    between atoms: C_17  and  C_19
REMARK    8  A    between atoms: C_19  and  O_20
REMARK    9  A    between atoms: O_20  and  C_21
REMARK   10  A    between atoms: C_24  and  C_25
REMARK                            x       y       z     vdW  Elec       q    Type
REMARK                         _______ _______ _______ _____ _____    ______ ____
ROOT
ATOM      1  C   UNL A   1       2.881  -1.477  -0.251  0.00  0.00    +0.124 C 
ENDROOT
BRANCH   1   2
ATOM      2  N   UNL A   1       1.470  -1.780  -0.536  0.00  0.00    -0.299 N 
ATOM      3  C   UNL A   1       0.707  -2.561   0.312  0.00  0.00    +0.251 C 
ATOM      4  O   UNL A   1       1.112  -2.947   1.405  0.00  0.00    -0.272 OA
ATOM      5  H   UNL A   1       1.058  -1.417  -1.353  0.00  0.00    +0.000 HD
BRANCH   3   6
ATOM      6  C   UNL A   1      -0.705  -2.866  -0.205  0.00  0.00    +0.165 C 
BRANCH   6   7
ATOM      7  O   UNL A   1      -1.727  -2.045   0.356  0.00  0.00    -0.483 OA
BRANCH   7   8
ATOM      8  C   UNL A   1      -1.613  -0.742  -0.042  0.00  0.00    +0.121 A 
ATOM      9  C   UNL A   1      -1.183   0.196   0.896  0.00  0.00    -0.019 A 
ATOM     10  C   UNL A   1      -1.052   1.534   0.526  0.00  0.00    -0.048 A 
ATOM     11  C   UNL A   1      -1.377   1.926  -0.777  0.00  0.00    +0.014 A 
ATOM     12  C   UNL A   1      -1.848   0.991  -1.705  0.00  0.00    -0.048 A 
ATOM     13  C   UNL A   1      -1.971  -0.349  -1.332  0.00  0.00    -0.019 A 
BRANCH  11  14
ATOM     14  C   UNL A   1      -1.218   3.335  -1.188  0.00  0.00    +0.150 C 
ATOM     15  O   UNL A   1      -0.675   4.163  -0.468  0.00  0.00    -0.296 OA
ENDBRANCH  11  14
ENDBRANCH   7   8
ENDBRANCH   6   7
ENDBRANCH   3   6
ENDBRANCH   1   2
BRANCH   1  16
ATOM     16  C   UNL A   1       3.716  -2.739  -0.534  0.00  0.00    +0.328 C 
ATOM     17  O   UNL A   1       3.389  -3.592  -1.357  0.00  0.00    -0.249 OA
BRANCH  16  19
ATOM     18  C   UNL A   1       5.715  -3.883  -0.098  0.00  0.00    +0.082 C 
ATOM     19  O   UNL A   1       4.892  -2.742   0.148  0.00  0.00    -0.467 OA
ENDBRANCH  16  19
ENDBRANCH   1  16
BRANCH   1  20
ATOM     20  C   UNL A   1       3.098  -0.857   1.145  0.00  0.00    +0.003 C 
BRANCH  20  21
ATOM     21  C   UNL A   1       4.125   0.225   1.137  0.00  0.00    -0.018 C 
ATOM     22  C   UNL A   1       5.405   0.198   1.561  0.00  0.00    +0.032 C 
ATOM     23  N   UNL A   1       6.101   1.393   1.431  0.00  0.00    -0.259 NA
ATOM     24  C   UNL A   1       5.225   2.227   0.925  0.00  0.00    +0.052 C 
ATOM     25  C   UNL A   1       5.453   3.674   0.583  0.00  0.00    +0.009 C 
ATOM     26  C   UNL A   1       4.197   4.317   0.049  0.00  0.00    -0.078 C 
ATOM     27  C   UNL A   1       3.033   3.668  -0.118  0.00  0.00    -0.065 C 
ATOM     28  C   UNL A   1       2.890   2.265   0.205  0.00  0.00    -0.053 C 
ATOM     29  C   UNL A   1       3.918   1.576   0.701  0.00  0.00    +0.001 C 
ENDBRANCH  20  21
ENDBRANCH   1  20
TORSDOF 9
