MODEL 1
REMARK VINA RESULT:    -7.693      0.000      0.000
REMARK INTER + INTRA:         -13.095
REMARK INTER:                 -11.741
REMARK INTRA:                  -1.355
REMARK UNBOUND:                -1.355
REMARK  Name = cpd83.pdb
REMARK  10 active torsions:
REMARK  status: ('A' for Active; 'I' for Inactive)
REMARK    1  A    between atoms: C_1  and  O_2
REMARK    2  A    between atoms: O_2  and  C_3
REMARK    3  A    between atoms: C_3  and  C_5
REMARK    4  A    between atoms: C_5  and  C_6
REMARK    5  A    between atoms: C_5  and  N_16
REMARK    6  A    between atoms: C_6  and  C_7
REMARK    7  A    between atoms: C_17  and  C_19
REMARK    8  A    between atoms: C_19  and  O_20
REMARK    9  A    between atoms: O_20  and  C_21
REMARK   10  A    between atoms: C_24  and  C_25
REMARK                            x       y       z     vdW  Elec       q    Type
REMARK                         _______ _______ _______ _____ _____    ______ ____
ROOT
ATOM      1  C   UNL A   1      36.926 -39.409 -29.069  0.00  0.00    +0.124 C 
ENDROOT
BRANCH   1   2
ATOM      2  N   UNL A   1      35.510 -39.014 -29.014  0.00  0.00    -0.299 N 
ATOM      3  C   UNL A   1      34.791 -38.718 -30.158  0.00  0.00    +0.251 C 
ATOM      4  O   UNL A   1      35.243 -38.882 -31.288  0.00  0.00    -0.272 OA
ATOM      5  H   UNL A   1      35.062 -38.958 -28.139  0.00  0.00    +0.000 HD
BRANCH   3   6
ATOM      6  C   UNL A   1      33.365 -38.214 -29.899  0.00  0.00    +0.165 C 
BRANCH   6   7
ATOM      7  O   UNL A   1      33.286 -37.114 -28.995  0.00  0.00    -0.483 OA
BRANCH   7   8
ATOM      8  C   UNL A   1      33.447 -35.915 -29.633  0.00  0.00    +0.121 A 
ATOM      9  C   UNL A   1      32.723 -35.691 -30.804  0.00  0.00    -0.019 A 
ATOM     10  C   UNL A   1      32.860 -34.479 -31.480  0.00  0.00    -0.048 A 
ATOM     11  C   UNL A   1      33.741 -33.509 -30.990  0.00  0.00    +0.014 A 
ATOM     12  C   UNL A   1      34.498 -33.752 -29.838  0.00  0.00    -0.048 A 
ATOM     13  C   UNL A   1      34.352 -34.964 -29.161  0.00  0.00    -0.019 A 
BRANCH  11  14
ATOM     14  C   UNL A   1      33.875 -32.213 -31.683  0.00  0.00    +0.150 C 
ATOM     15  O   UNL A   1      34.967 -31.702 -31.896  0.00  0.00    -0.296 OA
ENDBRANCH  11  14
ENDBRANCH   7   8
ENDBRANCH   6   7
ENDBRANCH   3   6
ENDBRANCH   1   2
BRANCH   1  16
ATOM     16  C   UNL A   1      37.024 -40.911 -28.749  0.00  0.00    +0.328 C 
ATOM     17  O   UNL A   1      37.965 -41.409 -28.133  0.00  0.00    -0.249 OA
BRANCH  16  19
ATOM     18  C   UNL A   1      35.343 -42.416 -28.110  0.00  0.00    +0.082 C 
ATOM     19  O   UNL A   1      35.911 -41.593 -29.130  0.00  0.00    -0.467 OA
ENDBRANCH  16  19
ENDBRANCH   1  16
BRANCH   1  20
ATOM     20  C   UNL A   1      37.841 -38.505 -28.217  0.00  0.00    +0.003 C 
BRANCH  20  21
ATOM     21  C   UNL A   1      39.024 -38.008 -28.978  0.00  0.00    -0.018 C 
ATOM     22  C   UNL A   1      40.330 -38.309 -28.828  0.00  0.00    +0.032 C 
ATOM     23  N   UNL A   1      41.195 -37.655 -29.695  0.00  0.00    -0.259 NA
ATOM     24  C   UNL A   1      40.415 -36.886 -30.416  0.00  0.00    +0.052 C 
ATOM     25  C   UNL A   1      40.839 -35.951 -31.515  0.00  0.00    +0.009 C 
ATOM     26  C   UNL A   1      39.658 -35.210 -32.092  0.00  0.00    -0.078 C 
ATOM     27  C   UNL A   1      38.390 -35.384 -31.686  0.00  0.00    -0.065 C 
ATOM     28  C   UNL A   1      38.048 -36.323 -30.640  0.00  0.00    -0.053 C 
ATOM     29  C   UNL A   1      38.996 -37.034 -30.031  0.00  0.00    +0.001 C 
ENDBRANCH  20  21
ENDBRANCH   1  20
TORSDOF 9
ENDMDL
MODEL 2
REMARK VINA RESULT:    -7.504      2.527      7.147
REMARK INTER + INTRA:         -12.807
REMARK INTER:                 -11.329
REMARK INTRA:                  -1.478
REMARK UNBOUND:                -1.355
REMARK  Name = cpd83.pdb
REMARK  10 active torsions:
REMARK  status: ('A' for Active; 'I' for Inactive)
REMARK    1  A    between atoms: C_1  and  O_2
REMARK    2  A    between atoms: O_2  and  C_3
REMARK    3  A    between atoms: C_3  and  C_5
REMARK    4  A    between atoms: C_5  and  C_6
REMARK    5  A    between atoms: C_5  and  N_16
REMARK    6  A    between atoms: C_6  and  C_7
REMARK    7  A    between atoms: C_17  and  C_19
REMARK    8  A    between atoms: C_19  and  O_20
REMARK    9  A    between atoms: O_20  and  C_21
REMARK   10  A    between atoms: C_24  and  C_25
REMARK                            x       y       z     vdW  Elec       q    Type
REMARK                         _______ _______ _______ _____ _____    ______ ____
ROOT
ATOM      1  C   UNL A   1      34.587 -34.950 -30.105  0.00  0.00    +0.124 C 
ENDROOT
BRANCH   1   2
ATOM      2  N   UNL A   1      35.943 -34.512 -30.470  0.00  0.00    -0.299 N 
ATOM      3  C   UNL A   1      36.674 -35.150 -31.456  0.00  0.00    +0.251 C 
ATOM      4  O   UNL A   1      36.201 -36.033 -32.167  0.00  0.00    -0.272 OA
ATOM      5  H   UNL A   1      36.342 -33.745 -30.000  0.00  0.00    +0.000 HD
BRANCH   3   6
ATOM      6  C   UNL A   1      38.108 -34.632 -31.619  0.00  0.00    +0.165 C 
BRANCH   6   7
ATOM      7  O   UNL A   1      38.810 -35.183 -32.731  0.00  0.00    -0.483 OA
BRANCH   7   8
ATOM      8  C   UNL A   1      39.835 -35.997 -32.337  0.00  0.00    +0.121 A 
ATOM      9  C   UNL A   1      39.854 -36.435 -31.014  0.00  0.00    -0.019 A 
ATOM     10  C   UNL A   1      40.883 -37.269 -30.576  0.00  0.00    -0.048 A 
ATOM     11  C   UNL A   1      41.899 -37.638 -31.464  0.00  0.00    +0.014 A 
ATOM     12  C   UNL A   1      41.901 -37.164 -32.780  0.00  0.00    -0.048 A 
ATOM     13  C   UNL A   1      40.865 -36.335 -33.216  0.00  0.00    -0.019 A 
BRANCH  11  14
ATOM     14  C   UNL A   1      42.979 -38.541 -31.019  0.00  0.00    +0.150 C 
ATOM     15  O   UNL A   1      42.794 -39.404 -30.171  0.00  0.00    -0.296 OA
ENDBRANCH  11  14
ENDBRANCH   7   8
ENDBRANCH   6   7
ENDBRANCH   3   6
ENDBRANCH   1   2
BRANCH   1  16
ATOM     16  C   UNL A   1      33.619 -33.776 -30.340  0.00  0.00    +0.328 C 
ATOM     17  O   UNL A   1      33.775 -32.942 -31.230  0.00  0.00    -0.249 OA
BRANCH  16  19
ATOM     18  C   UNL A   1      31.714 -32.664 -29.545  0.00  0.00    +0.082 C 
ATOM     19  O   UNL A   1      32.531 -33.836 -29.526  0.00  0.00    -0.467 OA
ENDBRANCH  16  19
ENDBRANCH   1  16
BRANCH   1  20
ATOM     20  C   UNL A   1      34.512 -35.579 -28.698  0.00  0.00    +0.003 C 
BRANCH  20  21
ATOM     21  C   UNL A   1      34.721 -37.056 -28.721  0.00  0.00    -0.018 C 
ATOM     22  C   UNL A   1      33.815 -38.051 -28.807  0.00  0.00    +0.032 C 
ATOM     23  N   UNL A   1      34.339 -39.338 -28.785  0.00  0.00    -0.259 NA
ATOM     24  C   UNL A   1      35.632 -39.161 -28.654  0.00  0.00    +0.052 C 
ATOM     25  C   UNL A   1      36.683 -40.233 -28.572  0.00  0.00    +0.009 C 
ATOM     26  C   UNL A   1      38.059 -39.641 -28.394  0.00  0.00    -0.078 C 
ATOM     27  C   UNL A   1      38.309 -38.323 -28.338  0.00  0.00    -0.065 C 
ATOM     28  C   UNL A   1      37.252 -37.342 -28.453  0.00  0.00    -0.053 C 
ATOM     29  C   UNL A   1      35.984 -37.727 -28.599  0.00  0.00    +0.001 C 
ENDBRANCH  20  21
ENDBRANCH   1  20
TORSDOF 9
ENDMDL
MODEL 3
REMARK VINA RESULT:    -7.320      1.900      2.500
REMARK INTER + INTRA:         -12.527
REMARK INTER:                 -11.536
REMARK INTRA:                  -0.991
REMARK UNBOUND:                -1.355
REMARK  Name = cpd83.pdb
REMARK  10 active torsions:
REMARK  status: ('A' for Active; 'I' for Inactive)
REMARK    1  A    between atoms: C_1  and  O_2
REMARK    2  A    between atoms: O_2  and  C_3
REMARK    3  A    between atoms: C_3  and  C_5
REMARK    4  A    between atoms: C_5  and  C_6
REMARK    5  A    between atoms: C_5  and  N_16
REMARK    6  A    between atoms: C_6  and  C_7
REMARK    7  A    between atoms: C_17  and  C_19
REMARK    8  A    between atoms: C_19  and  O_20
REMARK    9  A    between atoms: O_20  and  C_21
REMARK   10  A    between atoms: C_24  and  C_25
REMARK                            x       y       z     vdW  Elec       q    Type
REMARK                         _______ _______ _______ _____ _____    ______ ____
ROOT
ATOM      1  C   UNL A   1      36.812 -38.311 -29.439  0.00  0.00    +0.124 C 
ENDROOT
BRANCH   1   2
ATOM      2  N   UNL A   1      35.601 -37.577 -29.836  0.00  0.00    -0.299 N 
ATOM      3  C   UNL A   1      34.887 -37.910 -30.972  0.00  0.00    +0.251 C 
ATOM      4  O   UNL A   1      35.140 -38.902 -31.650  0.00  0.00    -0.272 OA
ATOM      5  H   UNL A   1      35.290 -36.828 -29.278  0.00  0.00    +0.000 HD
BRANCH   3   6
ATOM      6  C   UNL A   1      33.722 -36.964 -31.290  0.00  0.00    +0.165 C 
BRANCH   6   7
ATOM      7  O   UNL A   1      34.053 -35.901 -32.181  0.00  0.00    -0.483 OA
BRANCH   7   8
ATOM      8  C   UNL A   1      33.737 -34.678 -31.659  0.00  0.00    +0.121 A 
ATOM      9  C   UNL A   1      32.755 -33.924 -32.302  0.00  0.00    -0.019 A 
ATOM     10  C   UNL A   1      32.404 -32.672 -31.797  0.00  0.00    -0.048 A 
ATOM     11  C   UNL A   1      33.058 -32.175 -30.665  0.00  0.00    +0.014 A 
ATOM     12  C   UNL A   1      34.071 -32.914 -30.046  0.00  0.00    -0.048 A 
ATOM     13  C   UNL A   1      34.415 -34.170 -30.551  0.00  0.00    -0.019 A 
BRANCH  11  14
ATOM     14  C   UNL A   1      32.677 -30.862 -30.106  0.00  0.00    +0.150 C 
ATOM     15  O   UNL A   1      31.566 -30.657 -29.634  0.00  0.00    -0.296 OA
ENDBRANCH  11  14
ENDBRANCH   7   8
ENDBRANCH   6   7
ENDBRANCH   3   6
ENDBRANCH   1   2
BRANCH   1  16
ATOM     16  C   UNL A   1      36.419 -39.369 -28.393  0.00  0.00    +0.328 C 
ATOM     17  O   UNL A   1      37.045 -40.414 -28.224  0.00  0.00    -0.249 OA
BRANCH  16  19
ATOM     18  C   UNL A   1      34.297 -39.897 -27.550  0.00  0.00    +0.082 C 
ATOM     19  O   UNL A   1      35.377 -38.966 -27.619  0.00  0.00    -0.467 OA
ENDBRANCH  16  19
ENDBRANCH   1  16
BRANCH   1  20
ATOM     20  C   UNL A   1      37.972 -37.384 -29.018  0.00  0.00    +0.003 C 
BRANCH  20  21
ATOM     21  C   UNL A   1      38.723 -36.840 -30.187  0.00  0.00    -0.018 C 
ATOM     22  C   UNL A   1      38.330 -35.953 -31.124  0.00  0.00    +0.032 C 
ATOM     23  N   UNL A   1      39.271 -35.665 -32.103  0.00  0.00    -0.259 NA
ATOM     24  C   UNL A   1      40.302 -36.415 -31.796  0.00  0.00    +0.052 C 
ATOM     25  C   UNL A   1      41.609 -36.497 -32.537  0.00  0.00    +0.009 C 
ATOM     26  C   UNL A   1      42.541 -37.496 -31.898  0.00  0.00    -0.078 C 
ATOM     27  C   UNL A   1      42.244 -38.203 -30.795  0.00  0.00    -0.065 C 
ATOM     28  C   UNL A   1      40.976 -38.054 -30.114  0.00  0.00    -0.053 C 
ATOM     29  C   UNL A   1      40.051 -37.215 -30.580  0.00  0.00    +0.001 C 
ENDBRANCH  20  21
ENDBRANCH   1  20
TORSDOF 9
ENDMDL
MODEL 4
REMARK VINA RESULT:    -7.159     36.445     38.513
REMARK INTER + INTRA:         -12.281
REMARK INTER:                 -10.504
REMARK INTRA:                  -1.777
REMARK UNBOUND:                -1.355
REMARK  Name = cpd83.pdb
REMARK  10 active torsions:
REMARK  status: ('A' for Active; 'I' for Inactive)
REMARK    1  A    between atoms: C_1  and  O_2
REMARK    2  A    between atoms: O_2  and  C_3
REMARK    3  A    between atoms: C_3  and  C_5
REMARK    4  A    between atoms: C_5  and  C_6
REMARK    5  A    between atoms: C_5  and  N_16
REMARK    6  A    between atoms: C_6  and  C_7
REMARK    7  A    between atoms: C_17  and  C_19
REMARK    8  A    between atoms: C_19  and  O_20
REMARK    9  A    between atoms: O_20  and  C_21
REMARK   10  A    between atoms: C_24  and  C_25
REMARK                            x       y       z     vdW  Elec       q    Type
REMARK                         _______ _______ _______ _____ _____    ______ ____
ROOT
ATOM      1  C   UNL A   1      64.954 -25.464  -6.706  0.00  0.00    +0.124 C 
ENDROOT
BRANCH   1   2
ATOM      2  N   UNL A   1      64.027 -24.921  -7.711  0.00  0.00    -0.299 N 
ATOM      3  C   UNL A   1      64.425 -24.680  -9.013  0.00  0.00    +0.251 C 
ATOM      4  O   UNL A   1      65.525 -25.012  -9.445  0.00  0.00    -0.272 OA
ATOM      5  H   UNL A   1      63.099 -24.723  -7.450  0.00  0.00    +0.000 HD
BRANCH   3   6
ATOM      6  C   UNL A   1      63.360 -24.005  -9.887  0.00  0.00    +0.165 C 
BRANCH   6   7
ATOM      7  O   UNL A   1      63.785 -22.791 -10.501  0.00  0.00    -0.483 OA
BRANCH   7   8
ATOM      8  C   UNL A   1      63.245 -21.692  -9.892  0.00  0.00    +0.121 A 
ATOM      9  C   UNL A   1      62.700 -20.695 -10.700  0.00  0.00    -0.019 A 
ATOM     10  C   UNL A   1      62.137 -19.561 -10.115  0.00  0.00    -0.048 A 
ATOM     11  C   UNL A   1      62.147 -19.425  -8.722  0.00  0.00    +0.014 A 
ATOM     12  C   UNL A   1      62.731 -20.407  -7.915  0.00  0.00    -0.048 A 
ATOM     13  C   UNL A   1      63.287 -21.544  -8.505  0.00  0.00    -0.019 A 
BRANCH  11  14
ATOM     14  C   UNL A   1      61.531 -18.242  -8.090  0.00  0.00    +0.150 C 
ATOM     15  O   UNL A   1      61.364 -17.194  -8.700  0.00  0.00    -0.296 OA
ENDBRANCH  11  14
ENDBRANCH   7   8
ENDBRANCH   6   7
ENDBRANCH   3   6
ENDBRANCH   1   2
BRANCH   1  16
ATOM     16  C   UNL A   1      64.943 -27.000  -6.814  0.00  0.00    +0.328 C 
ATOM     17  O   UNL A   1      65.957 -27.688  -6.725  0.00  0.00    -0.249 OA
BRANCH  16  19
ATOM     18  C   UNL A   1      63.291 -28.332  -5.818  0.00  0.00    +0.082 C 
ATOM     19  O   UNL A   1      63.682 -27.500  -6.911  0.00  0.00    -0.467 OA
ENDBRANCH  16  19
ENDBRANCH   1  16
BRANCH   1  20
ATOM     20  C   UNL A   1      64.700 -24.913  -5.287  0.00  0.00    +0.003 C 
BRANCH  20  21
ATOM     21  C   UNL A   1      64.880 -23.434  -5.207  0.00  0.00    -0.018 C 
ATOM     22  C   UNL A   1      65.988 -22.692  -5.407  0.00  0.00    +0.032 C 
ATOM     23  N   UNL A   1      65.827 -21.323  -5.236  0.00  0.00    -0.259 NA
ATOM     24  C   UNL A   1      64.570 -21.184  -4.889  0.00  0.00    +0.052 C 
ATOM     25  C   UNL A   1      63.859 -19.895  -4.577  0.00  0.00    +0.009 C 
ATOM     26  C   UNL A   1      62.423 -20.140  -4.186  0.00  0.00    -0.078 C 
ATOM     27  C   UNL A   1      61.852 -21.355  -4.147  0.00  0.00    -0.065 C 
ATOM     28  C   UNL A   1      62.586 -22.554  -4.488  0.00  0.00    -0.053 C 
ATOM     29  C   UNL A   1      63.871 -22.484  -4.837  0.00  0.00    +0.001 C 
ENDBRANCH  20  21
ENDBRANCH   1  20
TORSDOF 9
ENDMDL
MODEL 5
REMARK VINA RESULT:    -7.008      3.471      4.872
REMARK INTER + INTRA:         -12.049
REMARK INTER:                 -10.945
REMARK INTRA:                  -1.105
REMARK UNBOUND:                -1.355
REMARK  Name = cpd83.pdb
REMARK  10 active torsions:
REMARK  status: ('A' for Active; 'I' for Inactive)
REMARK    1  A    between atoms: C_1  and  O_2
REMARK    2  A    between atoms: O_2  and  C_3
REMARK    3  A    between atoms: C_3  and  C_5
REMARK    4  A    between atoms: C_5  and  C_6
REMARK    5  A    between atoms: C_5  and  N_16
REMARK    6  A    between atoms: C_6  and  C_7
REMARK    7  A    between atoms: C_17  and  C_19
REMARK    8  A    between atoms: C_19  and  O_20
REMARK    9  A    between atoms: O_20  and  C_21
REMARK   10  A    between atoms: C_24  and  C_25
REMARK                            x       y       z     vdW  Elec       q    Type
REMARK                         _______ _______ _______ _____ _____    ______ ____
ROOT
ATOM      1  C   UNL A   1      36.476 -38.202 -29.162  0.00  0.00    +0.124 C 
ENDROOT
BRANCH   1   2
ATOM      2  N   UNL A   1      35.498 -37.462 -28.349  0.00  0.00    -0.299 N 
ATOM      3  C   UNL A   1      34.519 -36.675 -28.926  0.00  0.00    +0.251 C 
ATOM      4  O   UNL A   1      34.324 -36.638 -30.137  0.00  0.00    -0.272 OA
ATOM      5  H   UNL A   1      35.543 -37.530 -27.368  0.00  0.00    +0.000 HD
BRANCH   3   6
ATOM      6  C   UNL A   1      33.665 -35.889 -27.923  0.00  0.00    +0.165 C 
BRANCH   6   7
ATOM      7  O   UNL A   1      32.636 -36.654 -27.299  0.00  0.00    -0.483 OA
BRANCH   7   8
ATOM      8  C   UNL A   1      32.876 -36.846 -25.967  0.00  0.00    +0.121 A 
ATOM      9  C   UNL A   1      32.514 -35.831 -25.082  0.00  0.00    -0.019 A 
ATOM     10  C   UNL A   1      32.740 -35.992 -23.715  0.00  0.00    -0.048 A 
ATOM     11  C   UNL A   1      33.352 -37.160 -23.249  0.00  0.00    +0.014 A 
ATOM     12  C   UNL A   1      33.753 -38.159 -24.142  0.00  0.00    -0.048 A 
ATOM     13  C   UNL A   1      33.517 -37.997 -25.509  0.00  0.00    -0.019 A 
BRANCH  11  14
ATOM     14  C   UNL A   1      33.574 -37.353 -21.802  0.00  0.00    +0.150 C 
ATOM     15  O   UNL A   1      34.690 -37.287 -21.303  0.00  0.00    -0.296 OA
ENDBRANCH  11  14
ENDBRANCH   7   8
ENDBRANCH   6   7
ENDBRANCH   3   6
ENDBRANCH   1   2
BRANCH   1  16
ATOM     16  C   UNL A   1      36.230 -39.709 -28.967  0.00  0.00    +0.328 C 
ATOM     17  O   UNL A   1      35.896 -40.203 -27.892  0.00  0.00    -0.249 OA
BRANCH  16  19
ATOM     18  C   UNL A   1      35.644 -39.793 -31.235  0.00  0.00    +0.082 C 
ATOM     19  O   UNL A   1      36.320 -40.401 -30.134  0.00  0.00    -0.467 OA
ENDBRANCH  16  19
ENDBRANCH   1  16
BRANCH   1  20
ATOM     20  C   UNL A   1      37.931 -37.748 -28.922  0.00  0.00    +0.003 C 
BRANCH  20  21
ATOM     21  C   UNL A   1      38.524 -37.073 -30.113  0.00  0.00    -0.018 C 
ATOM     22  C   UNL A   1      37.942 -36.261 -31.018  0.00  0.00    +0.032 C 
ATOM     23  N   UNL A   1      38.774 -35.805 -32.033  0.00  0.00    -0.259 NA
ATOM     24  C   UNL A   1      39.932 -36.367 -31.781  0.00  0.00    +0.052 C 
ATOM     25  C   UNL A   1      41.199 -36.215 -32.578  0.00  0.00    +0.009 C 
ATOM     26  C   UNL A   1      42.318 -37.042 -31.994  0.00  0.00    -0.078 C 
ATOM     27  C   UNL A   1      42.197 -37.798 -30.891  0.00  0.00    -0.065 C 
ATOM     28  C   UNL A   1      40.954 -37.878 -30.154  0.00  0.00    -0.053 C 
ATOM     29  C   UNL A   1      39.878 -37.208 -30.568  0.00  0.00    +0.001 C 
ENDBRANCH  20  21
ENDBRANCH   1  20
TORSDOF 9
ENDMDL
MODEL 6
REMARK VINA RESULT:    -6.877      2.007      2.621
REMARK INTER + INTRA:         -11.849
REMARK INTER:                 -11.416
REMARK INTRA:                  -0.433
REMARK UNBOUND:                -1.355
REMARK  Name = cpd83.pdb
REMARK  10 active torsions:
REMARK  status: ('A' for Active; 'I' for Inactive)
REMARK    1  A    between atoms: C_1  and  O_2
REMARK    2  A    between atoms: O_2  and  C_3
REMARK    3  A    between atoms: C_3  and  C_5
REMARK    4  A    between atoms: C_5  and  C_6
REMARK    5  A    between atoms: C_5  and  N_16
REMARK    6  A    between atoms: C_6  and  C_7
REMARK    7  A    between atoms: C_17  and  C_19
REMARK    8  A    between atoms: C_19  and  O_20
REMARK    9  A    between atoms: O_20  and  C_21
REMARK   10  A    between atoms: C_24  and  C_25
REMARK                            x       y       z     vdW  Elec       q    Type
REMARK                         _______ _______ _______ _____ _____    ______ ____
ROOT
ATOM      1  C   UNL A   1      36.642 -38.143 -30.359  0.00  0.00    +0.124 C 
ENDROOT
BRANCH   1   2
ATOM      2  N   UNL A   1      35.588 -37.603 -31.233  0.00  0.00    -0.299 N 
ATOM      3  C   UNL A   1      34.773 -36.560 -30.833  0.00  0.00    +0.251 C 
ATOM      4  O   UNL A   1      34.950 -35.942 -29.787  0.00  0.00    -0.272 OA
ATOM      5  H   UNL A   1      35.460 -37.995 -32.127  0.00  0.00    +0.000 HD
BRANCH   3   6
ATOM      6  C   UNL A   1      33.658 -36.209 -31.827  0.00  0.00    +0.165 C 
BRANCH   6   7
ATOM      7  O   UNL A   1      33.912 -35.043 -32.607  0.00  0.00    -0.483 OA
BRANCH   7   8
ATOM      8  C   UNL A   1      33.348 -33.926 -32.056  0.00  0.00    +0.121 A 
ATOM      9  C   UNL A   1      31.956 -33.838 -32.027  0.00  0.00    -0.019 A 
ATOM     10  C   UNL A   1      31.345 -32.715 -31.471  0.00  0.00    -0.048 A 
ATOM     11  C   UNL A   1      32.135 -31.676 -30.968  0.00  0.00    +0.014 A 
ATOM     12  C   UNL A   1      33.531 -31.747 -31.035  0.00  0.00    -0.048 A 
ATOM     13  C   UNL A   1      34.139 -32.876 -31.587  0.00  0.00    -0.019 A 
BRANCH  11  14
ATOM     14  C   UNL A   1      31.500 -30.494 -30.353  0.00  0.00    +0.150 C 
ATOM     15  O   UNL A   1      30.714 -29.786 -30.969  0.00  0.00    -0.296 OA
ENDBRANCH  11  14
ENDBRANCH   7   8
ENDBRANCH   6   7
ENDBRANCH   3   6
ENDBRANCH   1   2
BRANCH   1  16
ATOM     16  C   UNL A   1      35.987 -39.088 -29.336  0.00  0.00    +0.328 C 
ATOM     17  O   UNL A   1      35.701 -38.745 -28.190  0.00  0.00    -0.249 OA
BRANCH  16  19
ATOM     18  C   UNL A   1      34.435 -40.843 -29.419  0.00  0.00    +0.082 C 
ATOM     19  O   UNL A   1      35.672 -40.295 -29.877  0.00  0.00    -0.467 OA
ENDBRANCH  16  19
ENDBRANCH   1  16
BRANCH   1  20
ATOM     20  C   UNL A   1      37.541 -37.049 -29.747  0.00  0.00    +0.003 C 
BRANCH  20  21
ATOM     21  C   UNL A   1      38.979 -37.446 -29.711  0.00  0.00    -0.018 C 
ATOM     22  C   UNL A   1      39.654 -38.146 -28.776  0.00  0.00    +0.032 C 
ATOM     23  N   UNL A   1      41.006 -38.334 -29.033  0.00  0.00    -0.259 NA
ATOM     24  C   UNL A   1      41.212 -37.707 -30.166  0.00  0.00    +0.052 C 
ATOM     25  C   UNL A   1      42.517 -37.590 -30.905  0.00  0.00    +0.009 C 
ATOM     26  C   UNL A   1      42.367 -36.765 -32.159  0.00  0.00    -0.078 C 
ATOM     27  C   UNL A   1      41.207 -36.225 -32.569  0.00  0.00    -0.065 C 
ATOM     28  C   UNL A   1      39.980 -36.401 -31.823  0.00  0.00    -0.053 C 
ATOM     29  C   UNL A   1      39.972 -37.097 -30.686  0.00  0.00    +0.001 C 
ENDBRANCH  20  21
ENDBRANCH   1  20
TORSDOF 9
ENDMDL
MODEL 7
REMARK VINA RESULT:    -6.759      4.229      6.708
REMARK INTER + INTRA:         -11.670
REMARK INTER:                 -10.567
REMARK INTRA:                  -1.103
REMARK UNBOUND:                -1.355
REMARK  Name = cpd83.pdb
REMARK  10 active torsions:
REMARK  status: ('A' for Active; 'I' for Inactive)
REMARK    1  A    between atoms: C_1  and  O_2
REMARK    2  A    between atoms: O_2  and  C_3
REMARK    3  A    between atoms: C_3  and  C_5
REMARK    4  A    between atoms: C_5  and  C_6
REMARK    5  A    between atoms: C_5  and  N_16
REMARK    6  A    between atoms: C_6  and  C_7
REMARK    7  A    between atoms: C_17  and  C_19
REMARK    8  A    between atoms: C_19  and  O_20
REMARK    9  A    between atoms: O_20  and  C_21
REMARK   10  A    between atoms: C_24  and  C_25
REMARK                            x       y       z     vdW  Elec       q    Type
REMARK                         _______ _______ _______ _____ _____    ______ ____
ROOT
ATOM      1  C   UNL A   1      35.483 -38.179 -27.728  0.00  0.00    +0.124 C 
ENDROOT
BRANCH   1   2
ATOM      2  N   UNL A   1      35.034 -37.955 -26.345  0.00  0.00    -0.299 N 
ATOM      3  C   UNL A   1      33.862 -37.280 -26.059  0.00  0.00    +0.251 C 
ATOM      4  O   UNL A   1      33.065 -36.935 -26.927  0.00  0.00    -0.272 OA
ATOM      5  H   UNL A   1      35.584 -38.295 -25.602  0.00  0.00    +0.000 HD
BRANCH   3   6
ATOM      6  C   UNL A   1      33.616 -37.041 -24.564  0.00  0.00    +0.165 C 
BRANCH   6   7
ATOM      7  O   UNL A   1      32.679 -37.937 -23.971  0.00  0.00    -0.483 OA
BRANCH   7   8
ATOM      8  C   UNL A   1      33.293 -38.878 -23.192  0.00  0.00    +0.121 A 
ATOM      9  C   UNL A   1      33.663 -38.519 -21.897  0.00  0.00    -0.019 A 
ATOM     10  C   UNL A   1      34.289 -39.454 -21.073  0.00  0.00    -0.048 A 
ATOM     11  C   UNL A   1      34.562 -40.735 -21.563  0.00  0.00    +0.014 A 
ATOM     12  C   UNL A   1      34.228 -41.081 -22.877  0.00  0.00    -0.048 A 
ATOM     13  C   UNL A   1      33.595 -40.144 -23.696  0.00  0.00    -0.019 A 
BRANCH  11  14
ATOM     14  C   UNL A   1      35.201 -41.741 -20.692  0.00  0.00    +0.150 C 
ATOM     15  O   UNL A   1      35.763 -42.729 -21.146  0.00  0.00    -0.296 OA
ENDBRANCH  11  14
ENDBRANCH   7   8
ENDBRANCH   6   7
ENDBRANCH   3   6
ENDBRANCH   1   2
BRANCH   1  16
ATOM     16  C   UNL A   1      35.094 -39.610 -28.139  0.00  0.00    +0.328 C 
ATOM     17  O   UNL A   1      35.736 -40.605 -27.807  0.00  0.00    -0.249 OA
BRANCH  16  19
ATOM     18  C   UNL A   1      33.862 -38.802 -29.962  0.00  0.00    +0.082 C 
ATOM     19  O   UNL A   1      33.914 -39.649 -28.814  0.00  0.00    -0.467 OA
ENDBRANCH  16  19
ENDBRANCH   1  16
BRANCH   1  20
ATOM     20  C   UNL A   1      36.968 -37.823 -27.948  0.00  0.00    +0.003 C 
BRANCH  20  21
ATOM     21  C   UNL A   1      37.176 -36.951 -29.141  0.00  0.00    -0.018 C 
ATOM     22  C   UNL A   1      36.314 -36.116 -29.755  0.00  0.00    +0.032 C 
ATOM     23  N   UNL A   1      36.817 -35.451 -30.866  0.00  0.00    -0.259 NA
ATOM     24  C   UNL A   1      38.045 -35.896 -30.983  0.00  0.00    +0.052 C 
ATOM     25  C   UNL A   1      39.048 -35.504 -32.033  0.00  0.00    +0.009 C 
ATOM     26  C   UNL A   1      40.346 -36.253 -31.860  0.00  0.00    -0.078 C 
ATOM     27  C   UNL A   1      40.577 -37.139 -30.878  0.00  0.00    -0.065 C 
ATOM     28  C   UNL A   1      39.576 -37.450 -29.881  0.00  0.00    -0.053 C 
ATOM     29  C   UNL A   1      38.375 -36.871 -29.924  0.00  0.00    +0.001 C 
ENDBRANCH  20  21
ENDBRANCH   1  20
TORSDOF 9
ENDMDL
MODEL 8
REMARK VINA RESULT:    -6.753      2.642      3.770
REMARK INTER + INTRA:         -11.660
REMARK INTER:                 -10.721
REMARK INTRA:                  -0.940
REMARK UNBOUND:                -1.355
REMARK  Name = cpd83.pdb
REMARK  10 active torsions:
REMARK  status: ('A' for Active; 'I' for Inactive)
REMARK    1  A    between atoms: C_1  and  O_2
REMARK    2  A    between atoms: O_2  and  C_3
REMARK    3  A    between atoms: C_3  and  C_5
REMARK    4  A    between atoms: C_5  and  C_6
REMARK    5  A    between atoms: C_5  and  N_16
REMARK    6  A    between atoms: C_6  and  C_7
REMARK    7  A    between atoms: C_17  and  C_19
REMARK    8  A    between atoms: C_19  and  O_20
REMARK    9  A    between atoms: O_20  and  C_21
REMARK   10  A    between atoms: C_24  and  C_25
REMARK                            x       y       z     vdW  Elec       q    Type
REMARK                         _______ _______ _______ _____ _____    ______ ____
ROOT
ATOM      1  C   UNL A   1      36.173 -36.788 -30.399  0.00  0.00    +0.124 C 
ENDROOT
BRANCH   1   2
ATOM      2  N   UNL A   1      35.527 -35.612 -29.797  0.00  0.00    -0.299 N 
ATOM      3  C   UNL A   1      34.858 -34.676 -30.564  0.00  0.00    +0.251 C 
ATOM      4  O   UNL A   1      34.654 -34.824 -31.766  0.00  0.00    -0.272 OA
ATOM      5  H   UNL A   1      35.573 -35.487 -28.822  0.00  0.00    +0.000 HD
BRANCH   3   6
ATOM      6  C   UNL A   1      34.350 -33.459 -29.779  0.00  0.00    +0.165 C 
BRANCH   6   7
ATOM      7  O   UNL A   1      33.069 -33.639 -29.179  0.00  0.00    -0.483 OA
BRANCH   7   8
ATOM      8  C   UNL A   1      32.105 -32.893 -29.796  0.00  0.00    +0.121 A 
ATOM      9  C   UNL A   1      31.054 -33.564 -30.420  0.00  0.00    -0.019 A 
ATOM     10  C   UNL A   1      30.050 -32.837 -31.058  0.00  0.00    -0.048 A 
ATOM     11  C   UNL A   1      30.120 -31.440 -31.086  0.00  0.00    +0.014 A 
ATOM     12  C   UNL A   1      31.196 -30.769 -30.496  0.00  0.00    -0.048 A 
ATOM     13  C   UNL A   1      32.196 -31.502 -29.852  0.00  0.00    -0.019 A 
BRANCH  11  14
ATOM     14  C   UNL A   1      29.050 -30.658 -31.736  0.00  0.00    +0.150 C 
ATOM     15  O   UNL A   1      29.228 -30.070 -32.795  0.00  0.00    -0.296 OA
ENDBRANCH  11  14
ENDBRANCH   7   8
ENDBRANCH   6   7
ENDBRANCH   3   6
ENDBRANCH   1   2
BRANCH   1  16
ATOM     16  C   UNL A   1      35.246 -38.002 -30.208  0.00  0.00    +0.328 C 
ATOM     17  O   UNL A   1      34.175 -38.132 -30.799  0.00  0.00    -0.249 OA
BRANCH  16  19
ATOM     18  C   UNL A   1      35.733 -40.277 -29.920  0.00  0.00    +0.082 C 
ATOM     19  O   UNL A   1      35.796 -38.948 -29.401  0.00  0.00    -0.467 OA
ENDBRANCH  16  19
ENDBRANCH   1  16
BRANCH   1  20
ATOM     20  C   UNL A   1      37.623 -36.998 -29.915  0.00  0.00    +0.003 C 
BRANCH  20  21
ATOM     21  C   UNL A   1      38.628 -36.427 -30.857  0.00  0.00    -0.018 C 
ATOM     22  C   UNL A   1      38.479 -35.472 -31.798  0.00  0.00    +0.032 C 
ATOM     23  N   UNL A   1      39.621 -35.174 -32.531  0.00  0.00    -0.259 NA
ATOM     24  C   UNL A   1      40.534 -35.987 -32.057  0.00  0.00    +0.052 C 
ATOM     25  C   UNL A   1      41.967 -36.089 -32.501  0.00  0.00    +0.009 C 
ATOM     26  C   UNL A   1      42.704 -37.164 -31.741  0.00  0.00    -0.078 C 
ATOM     27  C   UNL A   1      42.149 -37.916 -30.776  0.00  0.00    -0.065 C 
ATOM     28  C   UNL A   1      40.769 -37.746 -30.377  0.00  0.00    -0.053 C 
ATOM     29  C   UNL A   1      39.997 -36.841 -30.977  0.00  0.00    +0.001 C 
ENDBRANCH  20  21
ENDBRANCH   1  20
TORSDOF 9
ENDMDL
MODEL 9
REMARK VINA RESULT:    -6.371     15.868     19.692
REMARK INTER + INTRA:         -11.078
REMARK INTER:                  -9.854
REMARK INTRA:                  -1.224
REMARK UNBOUND:                -1.355
REMARK  Name = cpd83.pdb
REMARK  10 active torsions:
REMARK  status: ('A' for Active; 'I' for Inactive)
REMARK    1  A    between atoms: C_1  and  O_2
REMARK    2  A    between atoms: O_2  and  C_3
REMARK    3  A    between atoms: C_3  and  C_5
REMARK    4  A    between atoms: C_5  and  C_6
REMARK    5  A    between atoms: C_5  and  N_16
REMARK    6  A    between atoms: C_6  and  C_7
REMARK    7  A    between atoms: C_17  and  C_19
REMARK    8  A    between atoms: C_19  and  O_20
REMARK    9  A    between atoms: O_20  and  C_21
REMARK   10  A    between atoms: C_24  and  C_25
REMARK                            x       y       z     vdW  Elec       q    Type
REMARK                         _______ _______ _______ _____ _____    ______ ____
ROOT
ATOM      1  C   UNL A   1      44.049 -20.128 -38.700  0.00  0.00    +0.124 C 
ENDROOT
BRANCH   1   2
ATOM      2  N   UNL A   1      42.594 -20.107 -38.481  0.00  0.00    -0.299 N 
ATOM      3  C   UNL A   1      41.790 -21.177 -38.825  0.00  0.00    +0.251 C 
ATOM      4  O   UNL A   1      42.242 -22.249 -39.217  0.00  0.00    -0.272 OA
ATOM      5  H   UNL A   1      42.182 -19.308 -38.078  0.00  0.00    +0.000 HD
BRANCH   3   6
ATOM      6  C   UNL A   1      40.288 -20.931 -38.632  0.00  0.00    +0.165 C 
BRANCH   6   7
ATOM      7  O   UNL A   1      39.955 -20.239 -37.430  0.00  0.00    -0.483 OA
BRANCH   7   8
ATOM      8  C   UNL A   1      40.067 -21.043 -36.330  0.00  0.00    +0.121 A 
ATOM      9  C   UNL A   1      39.270 -22.186 -36.268  0.00  0.00    -0.019 A 
ATOM     10  C   UNL A   1      39.358 -23.031 -35.162  0.00  0.00    -0.048 A 
ATOM     11  C   UNL A   1      40.228 -22.710 -34.114  0.00  0.00    +0.014 A 
ATOM     12  C   UNL A   1      40.996 -21.542 -34.159  0.00  0.00    -0.048 A 
ATOM     13  C   UNL A   1      40.909 -20.702 -35.272  0.00  0.00    -0.019 A 
BRANCH  11  14
ATOM     14  C   UNL A   1      40.349 -23.610 -32.951  0.00  0.00    +0.150 C 
ATOM     15  O   UNL A   1      40.354 -23.187 -31.802  0.00  0.00    -0.296 OA
ENDBRANCH  11  14
ENDBRANCH   7   8
ENDBRANCH   6   7
ENDBRANCH   3   6
ENDBRANCH   1   2
BRANCH   1  16
ATOM     16  C   UNL A   1      44.732 -19.462 -37.491  0.00  0.00    +0.328 C 
ATOM     17  O   UNL A   1      45.750 -18.779 -37.586  0.00  0.00    -0.249 OA
BRANCH  16  19
ATOM     18  C   UNL A   1      44.771 -20.196 -35.266  0.00  0.00    +0.082 C 
ATOM     19  O   UNL A   1      44.024 -19.629 -36.343  0.00  0.00    -0.467 OA
ENDBRANCH  16  19
ENDBRANCH   1  16
BRANCH   1  20
ATOM     20  C   UNL A   1      44.463 -19.559 -40.072  0.00  0.00    +0.003 C 
BRANCH  20  21
ATOM     21  C   UNL A   1      44.897 -20.622 -41.025  0.00  0.00    -0.018 C 
ATOM     22  C   UNL A   1      44.278 -21.094 -42.126  0.00  0.00    +0.032 C 
ATOM     23  N   UNL A   1      44.945 -22.113 -42.794  0.00  0.00    -0.259 NA
ATOM     24  C   UNL A   1      46.025 -22.319 -42.079  0.00  0.00    +0.052 C 
ATOM     25  C   UNL A   1      47.108 -23.326 -42.354  0.00  0.00    +0.009 C 
ATOM     26  C   UNL A   1      48.177 -23.288 -41.290  0.00  0.00    -0.078 C 
ATOM     27  C   UNL A   1      48.167 -22.444 -40.245  0.00  0.00    -0.065 C 
ATOM     28  C   UNL A   1      47.107 -21.478 -40.056  0.00  0.00    -0.053 C 
ATOM     29  C   UNL A   1      46.089 -21.413 -40.914  0.00  0.00    +0.001 C 
ENDBRANCH  20  21
ENDBRANCH   1  20
TORSDOF 9
ENDMDL
MODEL 10
REMARK VINA RESULT:    -6.324     17.972     21.118
REMARK INTER + INTRA:         -11.005
REMARK INTER:                  -9.228
REMARK INTRA:                  -1.777
REMARK UNBOUND:                -1.355
REMARK  Name = cpd83.pdb
REMARK  10 active torsions:
REMARK  status: ('A' for Active; 'I' for Inactive)
REMARK    1  A    between atoms: C_1  and  O_2
REMARK    2  A    between atoms: O_2  and  C_3
REMARK    3  A    between atoms: C_3  and  C_5
REMARK    4  A    between atoms: C_5  and  C_6
REMARK    5  A    between atoms: C_5  and  N_16
REMARK    6  A    between atoms: C_6  and  C_7
REMARK    7  A    between atoms: C_17  and  C_19
REMARK    8  A    between atoms: C_19  and  O_20
REMARK    9  A    between atoms: O_20  and  C_21
REMARK   10  A    between atoms: C_24  and  C_25
REMARK                            x       y       z     vdW  Elec       q    Type
REMARK                         _______ _______ _______ _____ _____    ______ ____
ROOT
ATOM      1  C   UNL A   1      44.746 -21.062 -40.351  0.00  0.00    +0.124 C 
ENDROOT
BRANCH   1   2
ATOM      2  N   UNL A   1      45.531 -19.899 -39.910  0.00  0.00    -0.299 N 
ATOM      3  C   UNL A   1      46.370 -19.959 -38.813  0.00  0.00    +0.251 C 
ATOM      4  O   UNL A   1      46.606 -21.005 -38.214  0.00  0.00    -0.272 OA
ATOM      5  H   UNL A   1      45.458 -19.054 -40.411  0.00  0.00    +0.000 HD
BRANCH   3   6
ATOM      6  C   UNL A   1      47.017 -18.621 -38.434  0.00  0.00    +0.165 C 
BRANCH   6   7
ATOM      7  O   UNL A   1      46.091 -17.610 -38.041  0.00  0.00    -0.483 OA
BRANCH   7   8
ATOM      8  C   UNL A   1      45.665 -17.778 -36.753  0.00  0.00    +0.121 A 
ATOM      9  C   UNL A   1      44.446 -17.211 -36.385  0.00  0.00    -0.019 A 
ATOM     10  C   UNL A   1      43.978 -17.364 -35.080  0.00  0.00    -0.048 A 
ATOM     11  C   UNL A   1      44.749 -18.064 -34.147  0.00  0.00    +0.014 A 
ATOM     12  C   UNL A   1      45.992 -18.596 -34.506  0.00  0.00    -0.048 A 
ATOM     13  C   UNL A   1      46.453 -18.447 -35.816  0.00  0.00    -0.019 A 
BRANCH  11  14
ATOM     14  C   UNL A   1      44.253 -18.255 -32.770  0.00  0.00    +0.150 C 
ATOM     15  O   UNL A   1      44.973 -18.094 -31.793  0.00  0.00    -0.296 OA
ENDBRANCH  11  14
ENDBRANCH   7   8
ENDBRANCH   6   7
ENDBRANCH   3   6
ENDBRANCH   1   2
BRANCH   1  16
ATOM     16  C   UNL A   1      45.457 -21.700 -41.557  0.00  0.00    +0.328 C 
ATOM     17  O   UNL A   1      45.288 -21.323 -42.715  0.00  0.00    -0.249 OA
BRANCH  16  19
ATOM     18  C   UNL A   1      47.589 -22.610 -41.909  0.00  0.00    +0.082 C 
ATOM     19  O   UNL A   1      46.360 -22.645 -41.182  0.00  0.00    -0.467 OA
ENDBRANCH  16  19
ENDBRANCH   1  16
BRANCH   1  20
ATOM     20  C   UNL A   1      43.255 -20.736 -40.577  0.00  0.00    +0.003 C 
BRANCH  20  21
ATOM     21  C   UNL A   1      42.360 -21.461 -39.628  0.00  0.00    -0.018 C 
ATOM     22  C   UNL A   1      41.386 -22.358 -39.882  0.00  0.00    +0.032 C 
ATOM     23  N   UNL A   1      40.716 -22.843 -38.765  0.00  0.00    -0.259 NA
ATOM     24  C   UNL A   1      41.268 -22.213 -37.756  0.00  0.00    +0.052 C 
ATOM     25  C   UNL A   1      40.915 -22.361 -36.302  0.00  0.00    +0.009 C 
ATOM     26  C   UNL A   1      41.748 -21.447 -35.438  0.00  0.00    -0.078 C 
ATOM     27  C   UNL A   1      42.698 -20.624 -35.913  0.00  0.00    -0.065 C 
ATOM     28  C   UNL A   1      43.007 -20.552 -37.324  0.00  0.00    -0.053 C 
ATOM     29  C   UNL A   1      42.336 -21.296 -38.203  0.00  0.00    +0.001 C 
ENDBRANCH  20  21
ENDBRANCH   1  20
TORSDOF 9
ENDMDL
MODEL 11
REMARK VINA RESULT:    -6.314     18.676     21.773
REMARK INTER + INTRA:         -10.990
REMARK INTER:                  -9.194
REMARK INTRA:                  -1.796
REMARK UNBOUND:                -1.355
REMARK  Name = cpd83.pdb
REMARK  10 active torsions:
REMARK  status: ('A' for Active; 'I' for Inactive)
REMARK    1  A    between atoms: C_1  and  O_2
REMARK    2  A    between atoms: O_2  and  C_3
REMARK    3  A    between atoms: C_3  and  C_5
REMARK    4  A    between atoms: C_5  and  C_6
REMARK    5  A    between atoms: C_5  and  N_16
REMARK    6  A    between atoms: C_6  and  C_7
REMARK    7  A    between atoms: C_17  and  C_19
REMARK    8  A    between atoms: C_19  and  O_20
REMARK    9  A    between atoms: O_20  and  C_21
REMARK   10  A    between atoms: C_24  and  C_25
REMARK                            x       y       z     vdW  Elec       q    Type
REMARK                         _______ _______ _______ _____ _____    ______ ____
ROOT
ATOM      1  C   UNL A   1      44.716 -18.477 -36.811  0.00  0.00    +0.124 C 
ENDROOT
BRANCH   1   2
ATOM      2  N   UNL A   1      45.315 -18.264 -38.138  0.00  0.00    -0.299 N 
ATOM      3  C   UNL A   1      44.585 -17.747 -39.192  0.00  0.00    +0.251 C 
ATOM      4  O   UNL A   1      43.441 -17.321 -39.063  0.00  0.00    -0.272 OA
ATOM      5  H   UNL A   1      46.261 -18.497 -38.279  0.00  0.00    +0.000 HD
BRANCH   3   6
ATOM      6  C   UNL A   1      45.341 -17.706 -40.527  0.00  0.00    +0.165 C 
BRANCH   6   7
ATOM      7  O   UNL A   1      44.705 -18.418 -41.585  0.00  0.00    -0.483 OA
BRANCH   7   8
ATOM      8  C   UNL A   1      45.284 -19.637 -41.803  0.00  0.00    +0.121 A 
ATOM      9  C   UNL A   1      44.549 -20.598 -42.496  0.00  0.00    -0.019 A 
ATOM     10  C   UNL A   1      45.108 -21.852 -42.740  0.00  0.00    -0.048 A 
ATOM     11  C   UNL A   1      46.391 -22.142 -42.264  0.00  0.00    +0.014 A 
ATOM     12  C   UNL A   1      47.111 -21.190 -41.533  0.00  0.00    -0.048 A 
ATOM     13  C   UNL A   1      46.550 -19.933 -41.298  0.00  0.00    -0.019 A 
BRANCH  11  14
ATOM     14  C   UNL A   1      47.003 -23.457 -42.538  0.00  0.00    +0.150 C 
ATOM     15  O   UNL A   1      48.032 -23.821 -41.983  0.00  0.00    -0.296 OA
ENDBRANCH  11  14
ENDBRANCH   7   8
ENDBRANCH   6   7
ENDBRANCH   3   6
ENDBRANCH   1   2
BRANCH   1  16
ATOM     16  C   UNL A   1      45.409 -17.536 -35.808  0.00  0.00    +0.328 C 
ATOM     17  O   UNL A   1      45.734 -16.383 -36.082  0.00  0.00    -0.249 OA
BRANCH  16  19
ATOM     18  C   UNL A   1      44.686 -17.495 -33.579  0.00  0.00    +0.082 C 
ATOM     19  O   UNL A   1      45.520 -18.092 -34.573  0.00  0.00    -0.467 OA
ENDBRANCH  16  19
ENDBRANCH   1  16
BRANCH   1  20
ATOM     20  C   UNL A   1      44.684 -19.961 -36.391  0.00  0.00    +0.003 C 
BRANCH  20  21
ATOM     21  C   UNL A   1      43.321 -20.557 -36.499  0.00  0.00    -0.018 C 
ATOM     22  C   UNL A   1      42.408 -20.795 -35.536  0.00  0.00    +0.032 C 
ATOM     23  N   UNL A   1      41.227 -21.385 -35.967  0.00  0.00    -0.259 NA
ATOM     24  C   UNL A   1      41.399 -21.554 -37.256  0.00  0.00    +0.052 C 
ATOM     25  C   UNL A   1      40.419 -22.162 -38.222  0.00  0.00    +0.009 C 
ATOM     26  C   UNL A   1      40.986 -22.215 -39.619  0.00  0.00    -0.078 C 
ATOM     27  C   UNL A   1      42.203 -21.756 -39.954  0.00  0.00    -0.065 C 
ATOM     28  C   UNL A   1      43.086 -21.156 -38.978  0.00  0.00    -0.053 C 
ATOM     29  C   UNL A   1      42.717 -21.058 -37.700  0.00  0.00    +0.001 C 
ENDBRANCH  20  21
ENDBRANCH   1  20
TORSDOF 9
ENDMDL
MODEL 12
REMARK VINA RESULT:    -6.302     18.558     21.272
REMARK INTER + INTRA:         -10.972
REMARK INTER:                  -8.915
REMARK INTRA:                  -2.056
REMARK UNBOUND:                -1.355
REMARK  Name = cpd83.pdb
REMARK  10 active torsions:
REMARK  status: ('A' for Active; 'I' for Inactive)
REMARK    1  A    between atoms: C_1  and  O_2
REMARK    2  A    between atoms: O_2  and  C_3
REMARK    3  A    between atoms: C_3  and  C_5
REMARK    4  A    between atoms: C_5  and  C_6
REMARK    5  A    between atoms: C_5  and  N_16
REMARK    6  A    between atoms: C_6  and  C_7
REMARK    7  A    between atoms: C_17  and  C_19
REMARK    8  A    between atoms: C_19  and  O_20
REMARK    9  A    between atoms: O_20  and  C_21
REMARK   10  A    between atoms: C_24  and  C_25
REMARK                            x       y       z     vdW  Elec       q    Type
REMARK                         _______ _______ _______ _____ _____    ______ ____
ROOT
ATOM      1  C   UNL A   1      43.910 -18.988 -35.123  0.00  0.00    +0.124 C 
ENDROOT
BRANCH   1   2
ATOM      2  N   UNL A   1      45.143 -18.660 -35.855  0.00  0.00    -0.299 N 
ATOM      3  C   UNL A   1      45.114 -18.035 -37.088  0.00  0.00    +0.251 C 
ATOM      4  O   UNL A   1      44.080 -17.606 -37.592  0.00  0.00    -0.272 OA
ATOM      5  H   UNL A   1      46.012 -18.893 -35.456  0.00  0.00    +0.000 HD
BRANCH   3   6
ATOM      6  C   UNL A   1      46.488 -17.879 -37.752  0.00  0.00    +0.165 C 
BRANCH   6   7
ATOM      7  O   UNL A   1      47.242 -19.086 -37.835  0.00  0.00    -0.483 OA
BRANCH   7   8
ATOM      8  C   UNL A   1      46.893 -19.835 -38.924  0.00  0.00    +0.121 A 
ATOM      9  C   UNL A   1      46.791 -21.216 -38.766  0.00  0.00    -0.019 A 
ATOM     10  C   UNL A   1      46.434 -22.012 -39.854  0.00  0.00    -0.048 A 
ATOM     11  C   UNL A   1      46.205 -21.418 -41.099  0.00  0.00    +0.014 A 
ATOM     12  C   UNL A   1      46.348 -20.037 -41.266  0.00  0.00    -0.048 A 
ATOM     13  C   UNL A   1      46.699 -19.243 -40.172  0.00  0.00    -0.019 A 
BRANCH  11  14
ATOM     14  C   UNL A   1      45.801 -22.247 -42.252  0.00  0.00    +0.150 C 
ATOM     15  O   UNL A   1      46.368 -23.298 -42.525  0.00  0.00    -0.296 OA
ENDBRANCH  11  14
ENDBRANCH   7   8
ENDBRANCH   6   7
ENDBRANCH   3   6
ENDBRANCH   1   2
BRANCH   1  16
ATOM     16  C   UNL A   1      44.006 -18.380 -33.712  0.00  0.00    +0.328 C 
ATOM     17  O   UNL A   1      43.273 -18.715 -32.783  0.00  0.00    -0.249 OA
BRANCH  16  19
ATOM     18  C   UNL A   1      45.299 -17.073 -32.258  0.00  0.00    +0.082 C 
ATOM     19  O   UNL A   1      45.052 -17.520 -33.592  0.00  0.00    -0.467 OA
ENDBRANCH  16  19
ENDBRANCH   1  16
BRANCH   1  20
ATOM     20  C   UNL A   1      43.565 -20.491 -35.158  0.00  0.00    +0.003 C 
BRANCH  20  21
ATOM     21  C   UNL A   1      42.338 -20.779 -35.956  0.00  0.00    -0.018 C 
ATOM     22  C   UNL A   1      41.066 -20.954 -35.543  0.00  0.00    +0.032 C 
ATOM     23  N   UNL A   1      40.146 -21.229 -36.547  0.00  0.00    -0.259 NA
ATOM     24  C   UNL A   1      40.861 -21.255 -37.646  0.00  0.00    +0.052 C 
ATOM     25  C   UNL A   1      40.360 -21.516 -39.040  0.00  0.00    +0.009 C 
ATOM     26  C   UNL A   1      41.487 -21.495 -40.042  0.00  0.00    -0.078 C 
ATOM     27  C   UNL A   1      42.770 -21.252 -39.726  0.00  0.00    -0.065 C 
ATOM     28  C   UNL A   1      43.180 -20.979 -38.365  0.00  0.00    -0.053 C 
ATOM     29  C   UNL A   1      42.288 -20.981 -37.375  0.00  0.00    +0.001 C 
ENDBRANCH  20  21
ENDBRANCH   1  20
TORSDOF 9
ENDMDL
MODEL 13
REMARK VINA RESULT:    -6.297     15.752     19.561
REMARK INTER + INTRA:         -10.964
REMARK INTER:                  -8.695
REMARK INTRA:                  -2.269
REMARK UNBOUND:                -1.355
REMARK  Name = cpd83.pdb
REMARK  10 active torsions:
REMARK  status: ('A' for Active; 'I' for Inactive)
REMARK    1  A    between atoms: C_1  and  O_2
REMARK    2  A    between atoms: O_2  and  C_3
REMARK    3  A    between atoms: C_3  and  C_5
REMARK    4  A    between atoms: C_5  and  C_6
REMARK    5  A    between atoms: C_5  and  N_16
REMARK    6  A    between atoms: C_6  and  C_7
REMARK    7  A    between atoms: C_17  and  C_19
REMARK    8  A    between atoms: C_19  and  O_20
REMARK    9  A    between atoms: O_20  and  C_21
REMARK   10  A    between atoms: C_24  and  C_25
REMARK                            x       y       z     vdW  Elec       q    Type
REMARK                         _______ _______ _______ _____ _____    ______ ____
ROOT
ATOM      1  C   UNL A   1      40.953 -20.962 -33.399  0.00  0.00    +0.124 C 
ENDROOT
BRANCH   1   2
ATOM      2  N   UNL A   1      42.387 -21.060 -33.708  0.00  0.00    -0.299 N 
ATOM      3  C   UNL A   1      43.216 -19.954 -33.678  0.00  0.00    +0.251 C 
ATOM      4  O   UNL A   1      42.843 -18.854 -33.277  0.00  0.00    -0.272 OA
ATOM      5  H   UNL A   1      42.768 -21.937 -33.944  0.00  0.00    +0.000 HD
BRANCH   3   6
ATOM      6  C   UNL A   1      44.653 -20.224 -34.141  0.00  0.00    +0.165 C 
BRANCH   6   7
ATOM      7  O   UNL A   1      45.373 -19.059 -34.536  0.00  0.00    -0.483 OA
BRANCH   7   8
ATOM      8  C   UNL A   1      45.715 -19.091 -35.859  0.00  0.00    +0.121 A 
ATOM      9  C   UNL A   1      45.772 -17.883 -36.553  0.00  0.00    -0.019 A 
ATOM     10  C   UNL A   1      46.120 -17.876 -37.903  0.00  0.00    -0.048 A 
ATOM     11  C   UNL A   1      46.383 -19.086 -38.555  0.00  0.00    +0.014 A 
ATOM     12  C   UNL A   1      46.285 -20.301 -37.868  0.00  0.00    -0.048 A 
ATOM     13  C   UNL A   1      45.944 -20.302 -36.514  0.00  0.00    -0.019 A 
BRANCH  11  14
ATOM     14  C   UNL A   1      46.777 -19.090 -39.978  0.00  0.00    +0.150 C 
ATOM     15  O   UNL A   1      46.070 -19.587 -40.845  0.00  0.00    -0.296 OA
ENDBRANCH  11  14
ENDBRANCH   7   8
ENDBRANCH   6   7
ENDBRANCH   3   6
ENDBRANCH   1   2
BRANCH   1  16
ATOM     16  C   UNL A   1      40.542 -22.211 -32.596  0.00  0.00    +0.328 C 
ATOM     17  O   UNL A   1      39.427 -22.723 -32.672  0.00  0.00    -0.249 OA
BRANCH  16  19
ATOM     18  C   UNL A   1      41.603 -24.158 -31.837  0.00  0.00    +0.082 C 
ATOM     19  O   UNL A   1      41.579 -22.731 -31.888  0.00  0.00    -0.467 OA
ENDBRANCH  16  19
ENDBRANCH   1  16
BRANCH   1  20
ATOM     20  C   UNL A   1      40.083 -20.676 -34.640  0.00  0.00    +0.003 C 
BRANCH  20  21
ATOM     21  C   UNL A   1      40.601 -21.346 -35.868  0.00  0.00    -0.018 C 
ATOM     22  C   UNL A   1      40.508 -22.637 -36.247  0.00  0.00    +0.032 C 
ATOM     23  N   UNL A   1      41.120 -22.949 -37.454  0.00  0.00    -0.259 NA
ATOM     24  C   UNL A   1      41.647 -21.817 -37.855  0.00  0.00    +0.052 C 
ATOM     25  C   UNL A   1      42.435 -21.587 -39.115  0.00  0.00    +0.009 C 
ATOM     26  C   UNL A   1      42.905 -20.157 -39.217  0.00  0.00    -0.078 C 
ATOM     27  C   UNL A   1      42.631 -19.210 -38.305  0.00  0.00    -0.065 C 
ATOM     28  C   UNL A   1      41.841 -19.493 -37.126  0.00  0.00    -0.053 C 
ATOM     29  C   UNL A   1      41.374 -20.721 -36.903  0.00  0.00    +0.001 C 
ENDBRANCH  20  21
ENDBRANCH   1  20
TORSDOF 9
ENDMDL
MODEL 14
REMARK VINA RESULT:    -6.289     14.409     18.614
REMARK INTER + INTRA:         -10.953
REMARK INTER:                 -10.105
REMARK INTRA:                  -0.848
REMARK UNBOUND:                -1.355
REMARK  Name = cpd83.pdb
REMARK  10 active torsions:
REMARK  status: ('A' for Active; 'I' for Inactive)
REMARK    1  A    between atoms: C_1  and  O_2
REMARK    2  A    between atoms: O_2  and  C_3
REMARK    3  A    between atoms: C_3  and  C_5
REMARK    4  A    between atoms: C_5  and  C_6
REMARK    5  A    between atoms: C_5  and  N_16
REMARK    6  A    between atoms: C_6  and  C_7
REMARK    7  A    between atoms: C_17  and  C_19
REMARK    8  A    between atoms: C_19  and  O_20
REMARK    9  A    between atoms: O_20  and  C_21
REMARK   10  A    between atoms: C_24  and  C_25
REMARK                            x       y       z     vdW  Elec       q    Type
REMARK                         _______ _______ _______ _____ _____    ______ ____
ROOT
ATOM      1  C   UNL A   1      40.214 -22.695 -34.139  0.00  0.00    +0.124 C 
ENDROOT
BRANCH   1   2
ATOM      2  N   UNL A   1      40.359 -21.662 -35.176  0.00  0.00    -0.299 N 
ATOM      3  C   UNL A   1      41.078 -21.888 -36.334  0.00  0.00    +0.251 C 
ATOM      4  O   UNL A   1      41.535 -22.989 -36.629  0.00  0.00    -0.272 OA
ATOM      5  H   UNL A   1      39.932 -20.785 -35.040  0.00  0.00    +0.000 HD
BRANCH   3   6
ATOM      6  C   UNL A   1      41.218 -20.661 -37.244  0.00  0.00    +0.165 C 
BRANCH   6   7
ATOM      7  O   UNL A   1      42.467 -19.983 -37.130  0.00  0.00    -0.483 OA
BRANCH   7   8
ATOM      8  C   UNL A   1      43.382 -20.439 -38.037  0.00  0.00    +0.121 A 
ATOM      9  C   UNL A   1      44.726 -20.451 -37.666  0.00  0.00    -0.019 A 
ATOM     10  C   UNL A   1      45.688 -20.913 -38.564  0.00  0.00    -0.048 A 
ATOM     11  C   UNL A   1      45.297 -21.336 -39.838  0.00  0.00    +0.014 A 
ATOM     12  C   UNL A   1      43.953 -21.285 -40.225  0.00  0.00    -0.048 A 
ATOM     13  C   UNL A   1      42.993 -20.828 -39.319  0.00  0.00    -0.019 A 
BRANCH  11  14
ATOM     14  C   UNL A   1      46.303 -21.851 -40.789  0.00  0.00    +0.150 C 
ATOM     15  O   UNL A   1      46.957 -22.860 -40.558  0.00  0.00    -0.296 OA
ENDBRANCH  11  14
ENDBRANCH   7   8
ENDBRANCH   6   7
ENDBRANCH   3   6
ENDBRANCH   1   2
BRANCH   1  16
ATOM     16  C   UNL A   1      38.922 -23.484 -34.415  0.00  0.00    +0.328 C 
ATOM     17  O   UNL A   1      38.603 -23.882 -35.534  0.00  0.00    -0.249 OA
BRANCH  16  19
ATOM     18  C   UNL A   1      37.613 -25.056 -33.271  0.00  0.00    +0.082 C 
ATOM     19  O   UNL A   1      38.241 -23.774 -33.275  0.00  0.00    -0.467 OA
ENDBRANCH  16  19
ENDBRANCH   1  16
BRANCH   1  20
ATOM     20  C   UNL A   1      40.338 -22.138 -32.706  0.00  0.00    +0.003 C 
BRANCH  20  21
ATOM     21  C   UNL A   1      40.047 -20.676 -32.633  0.00  0.00    -0.018 C 
ATOM     22  C   UNL A   1      40.894 -19.638 -32.476  0.00  0.00    +0.032 C 
ATOM     23  N   UNL A   1      40.297 -18.385 -32.429  0.00  0.00    -0.259 NA
ATOM     24  C   UNL A   1      39.014 -18.630 -32.538  0.00  0.00    +0.052 C 
ATOM     25  C   UNL A   1      37.901 -17.618 -32.542  0.00  0.00    +0.009 C 
ATOM     26  C   UNL A   1      36.552 -18.285 -32.654  0.00  0.00    -0.078 C 
ATOM     27  C   UNL A   1      36.376 -19.612 -32.759  0.00  0.00    -0.065 C 
ATOM     28  C   UNL A   1      37.495 -20.530 -32.777  0.00  0.00    -0.053 C 
ATOM     29  C   UNL A   1      38.744 -20.077 -32.670  0.00  0.00    +0.001 C 
ENDBRANCH  20  21
ENDBRANCH   1  20
TORSDOF 9
ENDMDL
MODEL 15
REMARK VINA RESULT:    -6.255     16.872     20.467
REMARK INTER + INTRA:         -10.901
REMARK INTER:                  -8.519
REMARK INTRA:                  -2.381
REMARK UNBOUND:                -1.355
REMARK  Name = cpd83.pdb
REMARK  10 active torsions:
REMARK  status: ('A' for Active; 'I' for Inactive)
REMARK    1  A    between atoms: C_1  and  O_2
REMARK    2  A    between atoms: O_2  and  C_3
REMARK    3  A    between atoms: C_3  and  C_5
REMARK    4  A    between atoms: C_5  and  C_6
REMARK    5  A    between atoms: C_5  and  N_16
REMARK    6  A    between atoms: C_6  and  C_7
REMARK    7  A    between atoms: C_17  and  C_19
REMARK    8  A    between atoms: C_19  and  O_20
REMARK    9  A    between atoms: O_20  and  C_21
REMARK   10  A    between atoms: C_24  and  C_25
REMARK                            x       y       z     vdW  Elec       q    Type
REMARK                         _______ _______ _______ _____ _____    ______ ____
ROOT
ATOM      1  C   UNL A   1      41.632 -20.408 -36.005  0.00  0.00    +0.124 C 
ENDROOT
BRANCH   1   2
ATOM      2  N   UNL A   1      41.669 -20.672 -37.452  0.00  0.00    -0.299 N 
ATOM      3  C   UNL A   1      41.551 -21.952 -37.962  0.00  0.00    +0.251 C 
ATOM      4  O   UNL A   1      41.289 -22.925 -37.262  0.00  0.00    -0.272 OA
ATOM      5  H   UNL A   1      41.781 -19.917 -38.074  0.00  0.00    +0.000 HD
BRANCH   3   6
ATOM      6  C   UNL A   1      41.730 -22.047 -39.483  0.00  0.00    +0.165 C 
BRANCH   6   7
ATOM      7  O   UNL A   1      42.239 -20.862 -40.091  0.00  0.00    -0.483 OA
BRANCH   7   8
ATOM      8  C   UNL A   1      43.510 -21.036 -40.565  0.00  0.00    +0.121 A 
ATOM      9  C   UNL A   1      44.431 -21.691 -39.748  0.00  0.00    -0.019 A 
ATOM     10  C   UNL A   1      45.736 -21.889 -40.199  0.00  0.00    -0.048 A 
ATOM     11  C   UNL A   1      46.114 -21.406 -41.456  0.00  0.00    +0.014 A 
ATOM     12  C   UNL A   1      45.200 -20.713 -42.257  0.00  0.00    -0.048 A 
ATOM     13  C   UNL A   1      43.893 -20.523 -41.805  0.00  0.00    -0.019 A 
BRANCH  11  14
ATOM     14  C   UNL A   1      47.486 -21.632 -41.954  0.00  0.00    +0.150 C 
ATOM     15  O   UNL A   1      47.998 -22.744 -41.961  0.00  0.00    -0.296 OA
ENDBRANCH  11  14
ENDBRANCH   7   8
ENDBRANCH   6   7
ENDBRANCH   3   6
ENDBRANCH   1   2
BRANCH   1  16
ATOM     16  C   UNL A   1      40.165 -20.208 -35.585  0.00  0.00    +0.328 C 
ATOM     17  O   UNL A   1      39.379 -19.491 -36.203  0.00  0.00    -0.249 OA
BRANCH  16  19
ATOM     18  C   UNL A   1      38.792 -21.941 -34.807  0.00  0.00    +0.082 C 
ATOM     19  O   UNL A   1      39.820 -20.990 -34.528  0.00  0.00    -0.467 OA
ENDBRANCH  16  19
ENDBRANCH   1  16
BRANCH   1  20
ATOM     20  C   UNL A   1      42.590 -19.280 -35.570  0.00  0.00    +0.003 C 
BRANCH  20  21
ATOM     21  C   UNL A   1      44.008 -19.560 -35.936  0.00  0.00    -0.018 C 
ATOM     22  C   UNL A   1      44.946 -20.262 -35.267  0.00  0.00    +0.032 C 
ATOM     23  N   UNL A   1      46.193 -20.322 -35.876  0.00  0.00    -0.259 NA
ATOM     24  C   UNL A   1      46.056 -19.612 -36.970  0.00  0.00    +0.052 C 
ATOM     25  C   UNL A   1      47.112 -19.344 -38.007  0.00  0.00    +0.009 C 
ATOM     26  C   UNL A   1      46.587 -18.457 -39.109  0.00  0.00    -0.078 C 
ATOM     27  C   UNL A   1      45.330 -17.988 -39.162  0.00  0.00    -0.065 C 
ATOM     28  C   UNL A   1      44.354 -18.309 -38.143  0.00  0.00    -0.053 C 
ATOM     29  C   UNL A   1      44.687 -19.072 -37.102  0.00  0.00    +0.001 C 
ENDBRANCH  20  21
ENDBRANCH   1  20
TORSDOF 9
ENDMDL
MODEL 16
REMARK VINA RESULT:    -6.079     16.851     20.543
REMARK INTER + INTRA:         -10.631
REMARK INTER:                  -9.036
REMARK INTRA:                  -1.595
REMARK UNBOUND:                -1.355
REMARK  Name = cpd83.pdb
REMARK  10 active torsions:
REMARK  status: ('A' for Active; 'I' for Inactive)
REMARK    1  A    between atoms: C_1  and  O_2
REMARK    2  A    between atoms: O_2  and  C_3
REMARK    3  A    between atoms: C_3  and  C_5
REMARK    4  A    between atoms: C_5  and  C_6
REMARK    5  A    between atoms: C_5  and  N_16
REMARK    6  A    between atoms: C_6  and  C_7
REMARK    7  A    between atoms: C_17  and  C_19
REMARK    8  A    between atoms: C_19  and  O_20
REMARK    9  A    between atoms: O_20  and  C_21
REMARK   10  A    between atoms: C_24  and  C_25
REMARK                            x       y       z     vdW  Elec       q    Type
REMARK                         _______ _______ _______ _____ _____    ______ ____
ROOT
ATOM      1  C   UNL A   1      46.751 -21.420 -40.160  0.00  0.00    +0.124 C 
ENDROOT
BRANCH   1   2
ATOM      2  N   UNL A   1      45.298 -21.632 -40.241  0.00  0.00    -0.299 N 
ATOM      3  C   UNL A   1      44.480 -20.798 -40.981  0.00  0.00    +0.251 C 
ATOM      4  O   UNL A   1      44.919 -19.911 -41.709  0.00  0.00    -0.272 OA
ATOM      5  H   UNL A   1      44.896 -22.387 -39.755  0.00  0.00    +0.000 HD
BRANCH   3   6
ATOM      6  C   UNL A   1      42.982 -21.102 -40.854  0.00  0.00    +0.165 C 
BRANCH   6   7
ATOM      7  O   UNL A   1      42.276 -20.229 -39.975  0.00  0.00    -0.483 OA
BRANCH   7   8
ATOM      8  C   UNL A   1      41.612 -20.915 -38.997  0.00  0.00    +0.121 A 
ATOM      9  C   UNL A   1      42.291 -21.189 -37.810  0.00  0.00    -0.019 A 
ATOM     10  C   UNL A   1      41.645 -21.885 -36.789  0.00  0.00    -0.048 A 
ATOM     11  C   UNL A   1      40.328 -22.321 -36.974  0.00  0.00    +0.014 A 
ATOM     12  C   UNL A   1      39.663 -22.081 -38.181  0.00  0.00    -0.048 A 
ATOM     13  C   UNL A   1      40.311 -21.378 -39.199  0.00  0.00    -0.019 A 
BRANCH  11  14
ATOM     14  C   UNL A   1      39.625 -23.035 -35.891  0.00  0.00    +0.150 C 
ATOM     15  O   UNL A   1      38.941 -24.028 -36.105  0.00  0.00    -0.296 OA
ENDBRANCH  11  14
ENDBRANCH   7   8
ENDBRANCH   6   7
ENDBRANCH   3   6
ENDBRANCH   1   2
BRANCH   1  16
ATOM     16  C   UNL A   1      47.456 -22.658 -40.743  0.00  0.00    +0.328 C 
ATOM     17  O   UNL A   1      48.507 -23.109 -40.292  0.00  0.00    -0.249 OA
BRANCH  16  19
ATOM     18  C   UNL A   1      47.460 -24.191 -42.517  0.00  0.00    +0.082 C 
ATOM     19  O   UNL A   1      46.732 -23.245 -41.732  0.00  0.00    -0.467 OA
ENDBRANCH  16  19
ENDBRANCH   1  16
BRANCH   1  20
ATOM     20  C   UNL A   1      47.226 -21.008 -38.751  0.00  0.00    +0.003 C 
BRANCH  20  21
ATOM     21  C   UNL A   1      46.665 -19.695 -38.319  0.00  0.00    -0.018 C 
ATOM     22  C   UNL A   1      46.801 -18.476 -38.880  0.00  0.00    +0.032 C 
ATOM     23  N   UNL A   1      46.159 -17.439 -38.214  0.00  0.00    -0.259 NA
ATOM     24  C   UNL A   1      45.608 -18.013 -37.172  0.00  0.00    +0.052 C 
ATOM     25  C   UNL A   1      44.787 -17.342 -36.105  0.00  0.00    +0.009 C 
ATOM     26  C   UNL A   1      44.350 -18.326 -35.048  0.00  0.00    -0.078 C 
ATOM     27  C   UNL A   1      44.641 -19.637 -35.076  0.00  0.00    -0.065 C 
ATOM     28  C   UNL A   1      45.412 -20.224 -36.150  0.00  0.00    -0.053 C 
ATOM     29  C   UNL A   1      45.877 -19.465 -37.143  0.00  0.00    +0.001 C 
ENDBRANCH  20  21
ENDBRANCH   1  20
TORSDOF 9
ENDMDL
MODEL 17
REMARK VINA RESULT:    -5.996     17.930     21.626
REMARK INTER + INTRA:         -10.506
REMARK INTER:                  -8.613
REMARK INTRA:                  -1.893
REMARK UNBOUND:                -1.355
REMARK  Name = cpd83.pdb
REMARK  10 active torsions:
REMARK  status: ('A' for Active; 'I' for Inactive)
REMARK    1  A    between atoms: C_1  and  O_2
REMARK    2  A    between atoms: O_2  and  C_3
REMARK    3  A    between atoms: C_3  and  C_5
REMARK    4  A    between atoms: C_5  and  C_6
REMARK    5  A    between atoms: C_5  and  N_16
REMARK    6  A    between atoms: C_6  and  C_7
REMARK    7  A    between atoms: C_17  and  C_19
REMARK    8  A    between atoms: C_19  and  O_20
REMARK    9  A    between atoms: O_20  and  C_21
REMARK   10  A    between atoms: C_24  and  C_25
REMARK                            x       y       z     vdW  Elec       q    Type
REMARK                         _______ _______ _______ _____ _____    ______ ____
ROOT
ATOM      1  C   UNL A   1      42.221 -21.093 -37.600  0.00  0.00    +0.124 C 
ENDROOT
BRANCH   1   2
ATOM      2  N   UNL A   1      43.366 -21.015 -36.680  0.00  0.00    -0.299 N 
ATOM      3  C   UNL A   1      43.762 -19.820 -36.108  0.00  0.00    +0.251 C 
ATOM      4  O   UNL A   1      43.120 -18.781 -36.229  0.00  0.00    -0.272 OA
ATOM      5  H   UNL A   1      43.865 -21.837 -36.466  0.00  0.00    +0.000 HD
BRANCH   3   6
ATOM      6  C   UNL A   1      45.043 -19.912 -35.269  0.00  0.00    +0.165 C 
BRANCH   6   7
ATOM      7  O   UNL A   1      46.242 -20.013 -36.036  0.00  0.00    -0.483 OA
BRANCH   7   8
ATOM      8  C   UNL A   1      46.614 -18.808 -36.564  0.00  0.00    +0.121 A 
ATOM      9  C   UNL A   1      46.663 -18.687 -37.953  0.00  0.00    -0.019 A 
ATOM     10  C   UNL A   1      47.036 -17.473 -38.528  0.00  0.00    -0.048 A 
ATOM     11  C   UNL A   1      47.382 -16.396 -37.706  0.00  0.00    +0.014 A 
ATOM     12  C   UNL A   1      47.373 -16.531 -36.314  0.00  0.00    -0.048 A 
ATOM     13  C   UNL A   1      46.992 -17.747 -35.742  0.00  0.00    -0.019 A 
BRANCH  11  14
ATOM     14  C   UNL A   1      47.754 -15.098 -38.303  0.00  0.00    +0.150 C 
ATOM     15  O   UNL A   1      48.329 -14.229 -37.660  0.00  0.00    -0.296 OA
ENDBRANCH  11  14
ENDBRANCH   7   8
ENDBRANCH   6   7
ENDBRANCH   3   6
ENDBRANCH   1   2
BRANCH   1  16
ATOM     16  C   UNL A   1      41.083 -21.855 -36.897  0.00  0.00    +0.328 C 
ATOM     17  O   UNL A   1      41.132 -23.058 -36.648  0.00  0.00    -0.249 OA
BRANCH  16  19
ATOM     18  C   UNL A   1      39.908 -19.870 -37.313  0.00  0.00    +0.082 C 
ATOM     19  O   UNL A   1      40.081 -21.028 -36.496  0.00  0.00    -0.467 OA
ENDBRANCH  16  19
ENDBRANCH   1  16
BRANCH   1  20
ATOM     20  C   UNL A   1      42.599 -21.635 -38.994  0.00  0.00    +0.003 C 
BRANCH  20  21
ATOM     21  C   UNL A   1      43.478 -20.699 -39.753  0.00  0.00    -0.018 C 
ATOM     22  C   UNL A   1      43.270 -19.411 -40.095  0.00  0.00    +0.032 C 
ATOM     23  N   UNL A   1      44.288 -18.817 -40.828  0.00  0.00    -0.259 NA
ATOM     24  C   UNL A   1      45.176 -19.770 -40.984  0.00  0.00    +0.052 C 
ATOM     25  C   UNL A   1      46.487 -19.667 -41.714  0.00  0.00    +0.009 C 
ATOM     26  C   UNL A   1      47.224 -20.984 -41.707  0.00  0.00    -0.078 C 
ATOM     27  C   UNL A   1      46.771 -22.095 -41.105  0.00  0.00    -0.065 C 
ATOM     28  C   UNL A   1      45.511 -22.117 -40.394  0.00  0.00    -0.053 C 
ATOM     29  C   UNL A   1      44.749 -21.025 -40.333  0.00  0.00    +0.001 C 
ENDBRANCH  20  21
ENDBRANCH   1  20
TORSDOF 9
ENDMDL
MODEL 18
REMARK VINA RESULT:    -5.992     16.435     20.220
REMARK INTER + INTRA:         -10.500
REMARK INTER:                  -9.726
REMARK INTRA:                  -0.774
REMARK UNBOUND:                -1.355
REMARK  Name = cpd83.pdb
REMARK  10 active torsions:
REMARK  status: ('A' for Active; 'I' for Inactive)
REMARK    1  A    between atoms: C_1  and  O_2
REMARK    2  A    between atoms: O_2  and  C_3
REMARK    3  A    between atoms: C_3  and  C_5
REMARK    4  A    between atoms: C_5  and  C_6
REMARK    5  A    between atoms: C_5  and  N_16
REMARK    6  A    between atoms: C_6  and  C_7
REMARK    7  A    between atoms: C_17  and  C_19
REMARK    8  A    between atoms: C_19  and  O_20
REMARK    9  A    between atoms: O_20  and  C_21
REMARK   10  A    between atoms: C_24  and  C_25
REMARK                            x       y       z     vdW  Elec       q    Type
REMARK                         _______ _______ _______ _____ _____    ______ ____
ROOT
ATOM      1  C   UNL A   1      45.217 -19.567 -36.742  0.00  0.00    +0.124 C 
ENDROOT
BRANCH   1   2
ATOM      2  N   UNL A   1      44.228 -19.375 -35.670  0.00  0.00    -0.299 N 
ATOM      3  C   UNL A   1      44.341 -20.018 -34.451  0.00  0.00    +0.251 C 
ATOM      4  O   UNL A   1      45.323 -20.687 -34.140  0.00  0.00    -0.272 OA
ATOM      5  H   UNL A   1      43.465 -18.773 -35.825  0.00  0.00    +0.000 HD
BRANCH   3   6
ATOM      6  C   UNL A   1      43.158 -19.790 -33.501  0.00  0.00    +0.165 C 
BRANCH   6   7
ATOM      7  O   UNL A   1      41.914 -19.554 -34.157  0.00  0.00    -0.483 OA
BRANCH   7   8
ATOM      8  C   UNL A   1      41.051 -20.605 -34.010  0.00  0.00    +0.121 A 
ATOM      9  C   UNL A   1      40.970 -21.538 -35.044  0.00  0.00    -0.019 A 
ATOM     10  C   UNL A   1      40.104 -22.624 -34.929  0.00  0.00    -0.048 A 
ATOM     11  C   UNL A   1      39.306 -22.754 -33.787  0.00  0.00    +0.014 A 
ATOM     12  C   UNL A   1      39.358 -21.795 -32.770  0.00  0.00    -0.048 A 
ATOM     13  C   UNL A   1      40.232 -20.713 -32.886  0.00  0.00    -0.019 A 
BRANCH  11  14
ATOM     14  C   UNL A   1      38.403 -23.913 -33.642  0.00  0.00    +0.150 C 
ATOM     15  O   UNL A   1      38.580 -24.769 -32.785  0.00  0.00    -0.296 OA
ENDBRANCH  11  14
ENDBRANCH   7   8
ENDBRANCH   6   7
ENDBRANCH   3   6
ENDBRANCH   1   2
BRANCH   1  16
ATOM     16  C   UNL A   1      46.296 -18.477 -36.608  0.00  0.00    +0.328 C 
ATOM     17  O   UNL A   1      46.034 -17.284 -36.467  0.00  0.00    -0.249 OA
BRANCH  16  19
ATOM     18  C   UNL A   1      48.156 -18.961 -35.266  0.00  0.00    +0.082 C 
ATOM     19  O   UNL A   1      47.551 -18.998 -36.559  0.00  0.00    -0.467 OA
ENDBRANCH  16  19
ENDBRANCH   1  16
BRANCH   1  20
ATOM     20  C   UNL A   1      44.580 -19.678 -38.142  0.00  0.00    +0.003 C 
BRANCH  20  21
ATOM     21  C   UNL A   1      45.585 -19.564 -39.239  0.00  0.00    -0.018 C 
ATOM     22  C   UNL A   1      46.098 -18.462 -39.823  0.00  0.00    +0.032 C 
ATOM     23  N   UNL A   1      47.013 -18.698 -40.841  0.00  0.00    -0.259 NA
ATOM     24  C   UNL A   1      47.070 -20.005 -40.931  0.00  0.00    +0.052 C 
ATOM     25  C   UNL A   1      47.913 -20.806 -41.885  0.00  0.00    +0.009 C 
ATOM     26  C   UNL A   1      47.686 -22.287 -41.709  0.00  0.00    -0.078 C 
ATOM     27  C   UNL A   1      46.853 -22.817 -40.798  0.00  0.00    -0.065 C 
ATOM     28  C   UNL A   1      46.092 -21.988 -39.889  0.00  0.00    -0.053 C 
ATOM     29  C   UNL A   1      46.185 -20.659 -39.945  0.00  0.00    +0.001 C 
ENDBRANCH  20  21
ENDBRANCH   1  20
TORSDOF 9
ENDMDL
MODEL 19
REMARK VINA RESULT:    -5.915     15.352     19.045
REMARK INTER + INTRA:         -10.382
REMARK INTER:                  -8.515
REMARK INTRA:                  -1.867
REMARK UNBOUND:                -1.355
REMARK  Name = cpd83.pdb
REMARK  10 active torsions:
REMARK  status: ('A' for Active; 'I' for Inactive)
REMARK    1  A    between atoms: C_1  and  O_2
REMARK    2  A    between atoms: O_2  and  C_3
REMARK    3  A    between atoms: C_3  and  C_5
REMARK    4  A    between atoms: C_5  and  C_6
REMARK    5  A    between atoms: C_5  and  N_16
REMARK    6  A    between atoms: C_6  and  C_7
REMARK    7  A    between atoms: C_17  and  C_19
REMARK    8  A    between atoms: C_19  and  O_20
REMARK    9  A    between atoms: O_20  and  C_21
REMARK   10  A    between atoms: C_24  and  C_25
REMARK                            x       y       z     vdW  Elec       q    Type
REMARK                         _______ _______ _______ _____ _____    ______ ____
ROOT
ATOM      1  C   UNL A   1      39.428 -20.674 -33.403  0.00  0.00    +0.124 C 
ENDROOT
BRANCH   1   2
ATOM      2  N   UNL A   1      40.730 -19.989 -33.447  0.00  0.00    -0.299 N 
ATOM      3  C   UNL A   1      41.011 -18.906 -32.634  0.00  0.00    +0.251 C 
ATOM      4  O   UNL A   1      40.252 -18.525 -31.748  0.00  0.00    -0.272 OA
ATOM      5  H   UNL A   1      41.419 -20.310 -34.072  0.00  0.00    +0.000 HD
BRANCH   3   6
ATOM      6  C   UNL A   1      42.372 -18.250 -32.901  0.00  0.00    +0.165 C 
BRANCH   6   7
ATOM      7  O   UNL A   1      43.485 -19.133 -32.777  0.00  0.00    -0.483 OA
BRANCH   7   8
ATOM      8  C   UNL A   1      44.205 -19.214 -33.937  0.00  0.00    +0.121 A 
ATOM      9  C   UNL A   1      43.853 -20.198 -34.860  0.00  0.00    -0.019 A 
ATOM     10  C   UNL A   1      44.562 -20.310 -36.055  0.00  0.00    -0.048 A 
ATOM     11  C   UNL A   1      45.636 -19.449 -36.305  0.00  0.00    +0.014 A 
ATOM     12  C   UNL A   1      46.015 -18.490 -35.359  0.00  0.00    -0.048 A 
ATOM     13  C   UNL A   1      45.297 -18.377 -34.167  0.00  0.00    -0.019 A 
BRANCH  11  14
ATOM     14  C   UNL A   1      46.379 -19.541 -37.578  0.00  0.00    +0.150 C 
ATOM     15  O   UNL A   1      45.831 -19.856 -38.627  0.00  0.00    -0.296 OA
ENDBRANCH  11  14
ENDBRANCH   7   8
ENDBRANCH   6   7
ENDBRANCH   3   6
ENDBRANCH   1   2
BRANCH   1  16
ATOM     16  C   UNL A   1      39.595 -21.984 -32.612  0.00  0.00    +0.328 C 
ATOM     17  O   UNL A   1      38.762 -22.889 -32.625  0.00  0.00    -0.249 OA
BRANCH  16  19
ATOM     18  C   UNL A   1      41.381 -23.368 -31.988  0.00  0.00    +0.082 C 
ATOM     19  O   UNL A   1      40.803 -22.062 -31.993  0.00  0.00    -0.467 OA
ENDBRANCH  16  19
ENDBRANCH   1  16
BRANCH   1  20
ATOM     20  C   UNL A   1      38.781 -20.835 -34.794  0.00  0.00    +0.003 C 
BRANCH  20  21
ATOM     21  C   UNL A   1      39.695 -21.485 -35.778  0.00  0.00    -0.018 C 
ATOM     22  C   UNL A   1      40.029 -22.785 -35.912  0.00  0.00    +0.032 C 
ATOM     23  N   UNL A   1      40.931 -23.067 -36.930  0.00  0.00    -0.259 NA
ATOM     24  C   UNL A   1      41.205 -21.897 -37.455  0.00  0.00    +0.052 C 
ATOM     25  C   UNL A   1      42.138 -21.622 -38.602  0.00  0.00    +0.009 C 
ATOM     26  C   UNL A   1      42.218 -20.146 -38.904  0.00  0.00    -0.078 C 
ATOM     27  C   UNL A   1      41.524 -19.205 -38.243  0.00  0.00    -0.065 C 
ATOM     28  C   UNL A   1      40.619 -19.542 -37.165  0.00  0.00    -0.053 C 
ATOM     29  C   UNL A   1      40.463 -20.810 -36.783  0.00  0.00    +0.001 C 
ENDBRANCH  20  21
ENDBRANCH   1  20
TORSDOF 9
ENDMDL
MODEL 20
REMARK VINA RESULT:    -5.879     16.270     20.048
REMARK INTER + INTRA:         -10.327
REMARK INTER:                  -8.300
REMARK INTRA:                  -2.026
REMARK UNBOUND:                -1.355
REMARK  Name = cpd83.pdb
REMARK  10 active torsions:
REMARK  status: ('A' for Active; 'I' for Inactive)
REMARK    1  A    between atoms: C_1  and  O_2
REMARK    2  A    between atoms: O_2  and  C_3
REMARK    3  A    between atoms: C_3  and  C_5
REMARK    4  A    between atoms: C_5  and  C_6
REMARK    5  A    between atoms: C_5  and  N_16
REMARK    6  A    between atoms: C_6  and  C_7
REMARK    7  A    between atoms: C_17  and  C_19
REMARK    8  A    between atoms: C_19  and  O_20
REMARK    9  A    between atoms: O_20  and  C_21
REMARK   10  A    between atoms: C_24  and  C_25
REMARK                            x       y       z     vdW  Elec       q    Type
REMARK                         _______ _______ _______ _____ _____    ______ ____
ROOT
ATOM      1  C   UNL A   1      45.640 -20.480 -39.311  0.00  0.00    +0.124 C 
ENDROOT
BRANCH   1   2
ATOM      2  N   UNL A   1      44.250 -20.948 -39.419  0.00  0.00    -0.299 N 
ATOM      3  C   UNL A   1      43.177 -20.104 -39.201  0.00  0.00    +0.251 C 
ATOM      4  O   UNL A   1      43.307 -18.895 -39.027  0.00  0.00    -0.272 OA
ATOM      5  H   UNL A   1      44.078 -21.889 -39.653  0.00  0.00    +0.000 HD
BRANCH   3   6
ATOM      6  C   UNL A   1      41.807 -20.794 -39.243  0.00  0.00    +0.165 C 
BRANCH   6   7
ATOM      7  O   UNL A   1      40.801 -20.152 -38.463  0.00  0.00    -0.483 OA
BRANCH   7   8
ATOM      8  C   UNL A   1      40.665 -20.725 -37.230  0.00  0.00    +0.121 A 
ATOM      9  C   UNL A   1      41.030 -22.063 -37.084  0.00  0.00    -0.019 A 
ATOM     10  C   UNL A   1      40.908 -22.682 -35.840  0.00  0.00    -0.048 A 
ATOM     11  C   UNL A   1      40.397 -21.960 -34.756  0.00  0.00    +0.014 A 
ATOM     12  C   UNL A   1      39.993 -20.630 -34.914  0.00  0.00    -0.048 A 
ATOM     13  C   UNL A   1      40.123 -20.012 -36.160  0.00  0.00    -0.019 A 
BRANCH  11  14
ATOM     14  C   UNL A   1      40.287 -22.596 -33.428  0.00  0.00    +0.150 C 
ATOM     15  O   UNL A   1      40.366 -23.809 -33.282  0.00  0.00    -0.296 OA
ENDBRANCH  11  14
ENDBRANCH   7   8
ENDBRANCH   6   7
ENDBRANCH   3   6
ENDBRANCH   1   2
BRANCH   1  16
ATOM     16  C   UNL A   1      46.372 -20.823 -40.621  0.00  0.00    +0.328 C 
ATOM     17  O   UNL A   1      47.139 -20.047 -41.187  0.00  0.00    -0.249 OA
BRANCH  16  19
ATOM     18  C   UNL A   1      47.338 -22.896 -41.135  0.00  0.00    +0.082 C 
ATOM     19  O   UNL A   1      46.154 -22.107 -41.011  0.00  0.00    -0.467 OA
ENDBRANCH  16  19
ENDBRANCH   1  16
BRANCH   1  20
ATOM     20  C   UNL A   1      46.345 -20.966 -38.028  0.00  0.00    +0.003 C 
BRANCH  20  21
ATOM     21  C   UNL A   1      46.335 -19.940 -36.945  0.00  0.00    -0.018 C 
ATOM     22  C   UNL A   1      47.242 -18.984 -36.658  0.00  0.00    +0.032 C 
ATOM     23  N   UNL A   1      46.942 -18.189 -35.559  0.00  0.00    -0.259 NA
ATOM     24  C   UNL A   1      45.808 -18.670 -35.109  0.00  0.00    +0.052 C 
ATOM     25  C   UNL A   1      45.030 -18.176 -33.920  0.00  0.00    +0.009 C 
ATOM     26  C   UNL A   1      43.788 -19.002 -33.694  0.00  0.00    -0.078 C 
ATOM     27  C   UNL A   1      43.419 -20.032 -34.473  0.00  0.00    -0.065 C 
ATOM     28  C   UNL A   1      44.201 -20.437 -35.621  0.00  0.00    -0.053 C 
ATOM     29  C   UNL A   1      45.332 -19.803 -35.928  0.00  0.00    +0.001 C 
ENDBRANCH  20  21
ENDBRANCH   1  20
TORSDOF 9
ENDMDL
