@<TRIPOS>MOLECULE
*****
 28 30 0 0 0
SMALL
GASTEIGER

@<TRIPOS>ATOM
      1 C           5.1962   -2.0000    0.0000 C.3     1  UNL1        0.2557
      2 O           4.3301   -1.5000    0.0000 O.3     1  UNL1       -0.4432
      3 C           3.4641   -2.0000    0.0000 C.2     1  UNL1        0.3374
      4 O           3.4641   -3.0000    0.0000 O.2     1  UNL1       -0.2482
      5 C           2.5981   -1.5000    0.0000 C.3     1  UNL1        0.1979
      6 C           2.5981   -0.5000    0.0000 C.3     1  UNL1        0.0611
      7 C           3.4641   -0.0000    0.0000 C.ar    1  UNL1        0.0007
      8 C           4.3776   -0.4067    0.0000 C.ar    1  UNL1        0.0946
      9 N           5.0468    0.3364    0.0000 N.ar    1  UNL1       -0.2442
     10 C           4.5468    1.2024    0.0000 C.ar    1  UNL1        0.0810
     11 C           4.8558    2.1535    0.0000 C.ar    1  UNL1        0.0191
     12 C           4.1867    2.8966    0.0000 C.ar    1  UNL1        0.0015
     13 C           3.2085    2.6887    0.0000 C.ar    1  UNL1        0.0001
     14 C           2.8995    1.7377    0.0000 C.ar    1  UNL1        0.0012
     15 C           3.5686    0.9945    0.0000 C.ar    1  UNL1        0.0152
     16 N           1.7321   -2.0000    0.0000 N.am    1  UNL1       -0.1922
     17 C           0.8660   -1.5000    0.0000 C.2     1  UNL1        0.2863
     18 O           0.8660   -0.5000    0.0000 O.2     1  UNL1       -0.2693
     19 C           0.0000   -2.0000    0.0000 C.3     1  UNL1        0.2911
     20 O          -0.8660   -1.5000    0.0000 O.3     1  UNL1       -0.4656
     21 C          -0.8660   -0.5000    0.0000 C.ar    1  UNL1        0.1393
     22 C          -1.7321   -0.0000    0.0000 C.ar    1  UNL1        0.0370
     23 C          -1.7321    1.0000    0.0000 C.ar    1  UNL1        0.0064
     24 C          -0.8660    1.5000    0.0000 C.ar    1  UNL1        0.0424
     25 C          -0.8660    2.5000    0.0000 C.2     1  UNL1        0.2342
     26 O          -1.7321    3.0000    0.0000 O.2     1  UNL1       -0.2831
     27 C          -0.0000    1.0000    0.0000 C.ar    1  UNL1        0.0064
     28 C          -0.0000   -0.0000    0.0000 C.ar    1  UNL1        0.0370
@<TRIPOS>BOND
     1     1     2    1
     2     2     3    1
     3     3     4    2
     4     3     5    1
     5     5     6    1
     6     6     7    1
     7     7     8   ar
     8     8     9   ar
     9     9    10   ar
    10    10    11   ar
    11    11    12   ar
    12    12    13   ar
    13    13    14   ar
    14    14    15   ar
    15     7    15   ar
    16    10    15   ar
    17     5    16    1
    18    16    17   am
    19    17    18    2
    20    17    19    1
    21    19    20    1
    22    20    21    1
    23    21    22   ar
    24    22    23   ar
    25    23    24   ar
    26    24    25    1
    27    25    26    2
    28    24    27   ar
    29    27    28   ar
    30    21    28   ar
