MODEL 1
REMARK VINA RESULT:    -3.561      0.000      0.000
REMARK INTER + INTRA:          -2.040
REMARK INTER:                  -3.665
REMARK INTRA:                   1.626
REMARK UNBOUND:                 1.626
REMARK  Name = cpd205.pdb
REMARK  5 active torsions:
REMARK  status: ('A' for Active; 'I' for Inactive)
REMARK    1  A    between atoms: C_1  and  N_2
REMARK    2  A    between atoms: N_2  and  C_3
REMARK    3  A    between atoms: N_2  and  C_4
REMARK    4  A    between atoms: N_2  and  C_5
REMARK    5  A    between atoms: C_5  and  C_6
REMARK                            x       y       z     vdW  Elec       q    Type
REMARK                         _______ _______ _______ _____ _____    ______ ____
ROOT
ATOM      1  C   UNL     1      55.888 -21.957 -46.596  0.00  0.00    -0.101 C 
ATOM      2  N   UNL     1      56.859 -22.187 -46.671  0.00  0.00    +0.375 N 
ATOM      3  C   UNL     1      57.098 -21.234 -46.483  0.00  0.00    -0.101 C 
ATOM      4  C   UNL     1      57.829 -22.416 -46.746  0.00  0.00    -0.101 C 
ENDROOT
BRANCH   2   5
ATOM      5  C   UNL     1      56.619 -23.139 -46.858  0.00  0.00    -0.075 C 
BRANCH   5   6
ATOM      6  C   UNL     1      56.124 -24.151 -48.239  0.00  0.00    +0.008 C 
ATOM      7 CL   UNL     1      57.180 -25.593 -48.338  0.00  0.00    -0.127 Cl
ENDBRANCH   5   6
ENDBRANCH   2   5
TORSDOF 2
ENDMDL
MODEL 2
REMARK VINA RESULT:    -3.509      2.573      3.238
REMARK INTER + INTRA:          -1.986
REMARK INTER:                  -3.624
REMARK INTRA:                   1.639
REMARK UNBOUND:                 1.626
REMARK  Name = cpd205.pdb
REMARK  5 active torsions:
REMARK  status: ('A' for Active; 'I' for Inactive)
REMARK    1  A    between atoms: C_1  and  N_2
REMARK    2  A    between atoms: N_2  and  C_3
REMARK    3  A    between atoms: N_2  and  C_4
REMARK    4  A    between atoms: N_2  and  C_5
REMARK    5  A    between atoms: C_5  and  C_6
REMARK                            x       y       z     vdW  Elec       q    Type
REMARK                         _______ _______ _______ _____ _____    ______ ____
ROOT
ATOM      1  C   UNL     1      55.283 -23.202 -47.652  0.00  0.00    -0.101 C 
ATOM      2  N   UNL     1      56.209 -23.414 -47.342  0.00  0.00    +0.375 N 
ATOM      3  C   UNL     1      56.301 -24.086 -48.076  0.00  0.00    -0.101 C 
ATOM      4  C   UNL     1      57.136 -23.626 -47.031  0.00  0.00    -0.101 C 
ENDROOT
BRANCH   2   5
ATOM      5  C   UNL     1      56.117 -22.742 -46.607  0.00  0.00    -0.075 C 
BRANCH   5   6
ATOM      6  C   UNL     1      56.660 -21.088 -46.226  0.00  0.00    +0.008 C 
ATOM      7 CL   UNL     1      55.239 -20.049 -45.900  0.00  0.00    -0.127 Cl
ENDBRANCH   5   6
ENDBRANCH   2   5
TORSDOF 2
ENDMDL
MODEL 3
REMARK VINA RESULT:    -3.430     11.202     11.846
REMARK INTER + INTRA:          -1.905
REMARK INTER:                  -3.530
REMARK INTRA:                   1.625
REMARK UNBOUND:                 1.626
REMARK  Name = cpd205.pdb
REMARK  5 active torsions:
REMARK  status: ('A' for Active; 'I' for Inactive)
REMARK    1  A    between atoms: C_1  and  N_2
REMARK    2  A    between atoms: N_2  and  C_3
REMARK    3  A    between atoms: N_2  and  C_4
REMARK    4  A    between atoms: N_2  and  C_5
REMARK    5  A    between atoms: C_5  and  C_6
REMARK                            x       y       z     vdW  Elec       q    Type
REMARK                         _______ _______ _______ _____ _____    ______ ____
ROOT
ATOM      1  C   UNL     1      47.777 -21.521 -41.790  0.00  0.00    -0.101 C 
ATOM      2  N   UNL     1      47.271 -22.258 -41.340  0.00  0.00    +0.375 N 
ATOM      3  C   UNL     1      48.132 -22.723 -41.135  0.00  0.00    -0.101 C 
ATOM      4  C   UNL     1      46.766 -22.994 -40.890  0.00  0.00    -0.101 C 
ENDROOT
BRANCH   2   5
ATOM      5  C   UNL     1      46.411 -21.792 -41.545  0.00  0.00    -0.075 C 
BRANCH   5   6
ATOM      6  C   UNL     1      45.083 -21.887 -42.729  0.00  0.00    +0.008 C 
ATOM      7 CL   UNL     1      44.603 -20.236 -43.228  0.00  0.00    -0.127 Cl
ENDBRANCH   5   6
ENDBRANCH   2   5
TORSDOF 2
ENDMDL
MODEL 4
REMARK VINA RESULT:    -3.415     40.191     40.516
REMARK INTER + INTRA:          -1.889
REMARK INTER:                  -3.543
REMARK INTRA:                   1.654
REMARK UNBOUND:                 1.626
REMARK  Name = cpd205.pdb
REMARK  5 active torsions:
REMARK  status: ('A' for Active; 'I' for Inactive)
REMARK    1  A    between atoms: C_1  and  N_2
REMARK    2  A    between atoms: N_2  and  C_3
REMARK    3  A    between atoms: N_2  and  C_4
REMARK    4  A    between atoms: N_2  and  C_5
REMARK    5  A    between atoms: C_5  and  C_6
REMARK                            x       y       z     vdW  Elec       q    Type
REMARK                         _______ _______ _______ _____ _____    ______ ____
ROOT
ATOM      1  C   UNL     1      63.892 -26.004  -6.091  0.00  0.00    -0.101 C 
ATOM      2  N   UNL     1      63.145 -26.457  -6.577  0.00  0.00    +0.375 N 
ATOM      3  C   UNL     1      63.315 -27.295  -6.058  0.00  0.00    -0.101 C 
ATOM      4  C   UNL     1      62.398 -26.910  -7.064  0.00  0.00    -0.101 C 
ENDROOT
BRANCH   2   5
ATOM      5  C   UNL     1      62.976 -25.620  -7.096  0.00  0.00    -0.075 C 
BRANCH   5   6
ATOM      6  C   UNL     1      63.688 -24.719  -8.458  0.00  0.00    +0.008 C 
ATOM      7 CL   UNL     1      62.552 -24.720  -9.841  0.00  0.00    -0.127 Cl
ENDBRANCH   5   6
ENDBRANCH   2   5
TORSDOF 2
ENDMDL
MODEL 5
REMARK VINA RESULT:    -3.354     26.024     26.352
REMARK INTER + INTRA:          -1.826
REMARK INTER:                  -3.452
REMARK INTRA:                   1.626
REMARK UNBOUND:                 1.626
REMARK  Name = cpd205.pdb
REMARK  5 active torsions:
REMARK  status: ('A' for Active; 'I' for Inactive)
REMARK    1  A    between atoms: C_1  and  N_2
REMARK    2  A    between atoms: N_2  and  C_3
REMARK    3  A    between atoms: N_2  and  C_4
REMARK    4  A    between atoms: N_2  and  C_5
REMARK    5  A    between atoms: C_5  and  C_6
REMARK                            x       y       z     vdW  Elec       q    Type
REMARK                         _______ _______ _______ _____ _____    ______ ____
ROOT
ATOM      1  C   UNL     1      42.348 -36.072 -31.155  0.00  0.00    -0.101 C 
ATOM      2  N   UNL     1      42.346 -37.061 -31.304  0.00  0.00    +0.375 N 
ATOM      3  C   UNL     1      43.344 -37.072 -31.243  0.00  0.00    -0.101 C 
ATOM      4  C   UNL     1      42.344 -38.050 -31.453  0.00  0.00    -0.101 C 
ENDROOT
BRANCH   2   5
ATOM      5  C   UNL     1      41.348 -37.050 -31.366  0.00  0.00    -0.075 C 
BRANCH   5   6
ATOM      6  C   UNL     1      39.936 -37.171 -30.285  0.00  0.00    +0.008 C 
ATOM      7 CL   UNL     1      38.578 -36.221 -30.961  0.00  0.00    -0.127 Cl
ENDBRANCH   5   6
ENDBRANCH   2   5
TORSDOF 2
ENDMDL
MODEL 6
REMARK VINA RESULT:    -3.296     25.829     26.170
REMARK INTER + INTRA:          -1.766
REMARK INTER:                  -3.479
REMARK INTRA:                   1.713
REMARK UNBOUND:                 1.626
REMARK  Name = cpd205.pdb
REMARK  5 active torsions:
REMARK  status: ('A' for Active; 'I' for Inactive)
REMARK    1  A    between atoms: C_1  and  N_2
REMARK    2  A    between atoms: N_2  and  C_3
REMARK    3  A    between atoms: N_2  and  C_4
REMARK    4  A    between atoms: N_2  and  C_5
REMARK    5  A    between atoms: C_5  and  C_6
REMARK                            x       y       z     vdW  Elec       q    Type
REMARK                         _______ _______ _______ _____ _____    ______ ____
ROOT
ATOM      1  C   UNL     1      40.120 -34.269 -31.760  0.00  0.00    -0.101 C 
ATOM      2  N   UNL     1      39.537 -35.081 -31.782  0.00  0.00    +0.375 N 
ATOM      3  C   UNL     1      38.725 -34.497 -31.779  0.00  0.00    -0.101 C 
ATOM      4  C   UNL     1      38.953 -35.893 -31.804  0.00  0.00    -0.101 C 
ENDROOT
BRANCH   2   5
ATOM      5  C   UNL     1      40.348 -35.665 -31.785  0.00  0.00    -0.075 C 
BRANCH   5   6
ATOM      6  C   UNL     1      41.092 -36.932 -30.777  0.00  0.00    +0.008 C 
ATOM      7 CL   UNL     1      42.172 -37.945 -31.785  0.00  0.00    -0.127 Cl
ENDBRANCH   5   6
ENDBRANCH   2   5
TORSDOF 2
ENDMDL
MODEL 7
REMARK VINA RESULT:    -3.284     25.847     26.159
REMARK INTER + INTRA:          -1.754
REMARK INTER:                  -3.376
REMARK INTRA:                   1.622
REMARK UNBOUND:                 1.626
REMARK  Name = cpd205.pdb
REMARK  5 active torsions:
REMARK  status: ('A' for Active; 'I' for Inactive)
REMARK    1  A    between atoms: C_1  and  N_2
REMARK    2  A    between atoms: N_2  and  C_3
REMARK    3  A    between atoms: N_2  and  C_4
REMARK    4  A    between atoms: N_2  and  C_5
REMARK    5  A    between atoms: C_5  and  C_6
REMARK                            x       y       z     vdW  Elec       q    Type
REMARK                         _______ _______ _______ _____ _____    ______ ____
ROOT
ATOM      1  C   UNL     1      41.156 -36.944 -31.324  0.00  0.00    -0.101 C 
ATOM      2  N   UNL     1      42.148 -36.859 -31.416  0.00  0.00    +0.375 N 
ATOM      3  C   UNL     1      42.050 -35.876 -31.568  0.00  0.00    -0.101 C 
ATOM      4  C   UNL     1      43.140 -36.774 -31.509  0.00  0.00    -0.101 C 
ENDROOT
BRANCH   2   5
ATOM      5  C   UNL     1      42.247 -37.843 -31.265  0.00  0.00    -0.075 C 
BRANCH   5   6
ATOM      6  C   UNL     1      42.351 -38.986 -29.902  0.00  0.00    +0.008 C 
ATOM      7 CL   UNL     1      43.739 -40.089 -30.148  0.00  0.00    -0.127 Cl
ENDBRANCH   5   6
ENDBRANCH   2   5
TORSDOF 2
ENDMDL
MODEL 8
REMARK VINA RESULT:    -3.276     40.157     40.474
REMARK INTER + INTRA:          -1.746
REMARK INTER:                  -3.423
REMARK INTRA:                   1.678
REMARK UNBOUND:                 1.626
REMARK  Name = cpd205.pdb
REMARK  5 active torsions:
REMARK  status: ('A' for Active; 'I' for Inactive)
REMARK    1  A    between atoms: C_1  and  N_2
REMARK    2  A    between atoms: N_2  and  C_3
REMARK    3  A    between atoms: N_2  and  C_4
REMARK    4  A    between atoms: N_2  and  C_5
REMARK    5  A    between atoms: C_5  and  C_6
REMARK                            x       y       z     vdW  Elec       q    Type
REMARK                         _______ _______ _______ _____ _____    ______ ____
ROOT
ATOM      1  C   UNL     1      62.172 -25.180  -7.499  0.00  0.00    -0.101 C 
ATOM      2  N   UNL     1      63.096 -25.052  -7.860  0.00  0.00    +0.375 N 
ATOM      3  C   UNL     1      62.714 -24.675  -8.704  0.00  0.00    -0.101 C 
ATOM      4  C   UNL     1      64.020 -24.924  -8.221  0.00  0.00    -0.101 C 
ENDROOT
BRANCH   2   5
ATOM      5  C   UNL     1      63.478 -25.429  -7.016  0.00  0.00    -0.075 C 
BRANCH   5   6
ATOM      6  C   UNL     1      64.213 -26.945  -6.438  0.00  0.00    +0.008 C 
ATOM      7 CL   UNL     1      63.013 -27.872  -5.487  0.00  0.00    -0.127 Cl
ENDBRANCH   5   6
ENDBRANCH   2   5
TORSDOF 2
ENDMDL
MODEL 9
REMARK VINA RESULT:    -3.249     25.792     26.124
REMARK INTER + INTRA:          -1.719
REMARK INTER:                  -3.368
REMARK INTRA:                   1.649
REMARK UNBOUND:                 1.626
REMARK  Name = cpd205.pdb
REMARK  5 active torsions:
REMARK  status: ('A' for Active; 'I' for Inactive)
REMARK    1  A    between atoms: C_1  and  N_2
REMARK    2  A    between atoms: N_2  and  C_3
REMARK    3  A    between atoms: N_2  and  C_4
REMARK    4  A    between atoms: N_2  and  C_5
REMARK    5  A    between atoms: C_5  and  C_6
REMARK                            x       y       z     vdW  Elec       q    Type
REMARK                         _______ _______ _______ _____ _____    ______ ____
ROOT
ATOM      1  C   UNL     1      39.938 -36.905 -30.588  0.00  0.00    -0.101 C 
ATOM      2  N   UNL     1      40.254 -36.288 -31.309  0.00  0.00    +0.375 N 
ATOM      3  C   UNL     1      39.324 -36.241 -31.675  0.00  0.00    -0.101 C 
ATOM      4  C   UNL     1      40.569 -35.671 -32.030  0.00  0.00    -0.101 C 
ENDROOT
BRANCH   2   5
ATOM      5  C   UNL     1      41.183 -36.336 -30.943  0.00  0.00    -0.075 C 
BRANCH   5   6
ATOM      6  C   UNL     1      42.738 -37.115 -31.330  0.00  0.00    +0.008 C 
ATOM      7 CL   UNL     1      44.084 -36.006 -30.924  0.00  0.00    -0.127 Cl
ENDBRANCH   5   6
ENDBRANCH   2   5
TORSDOF 2
ENDMDL
MODEL 10
REMARK VINA RESULT:    -3.206     11.343     12.050
REMARK INTER + INTRA:          -1.674
REMARK INTER:                  -3.292
REMARK INTRA:                   1.618
REMARK UNBOUND:                 1.626
REMARK  Name = cpd205.pdb
REMARK  5 active torsions:
REMARK  status: ('A' for Active; 'I' for Inactive)
REMARK    1  A    between atoms: C_1  and  N_2
REMARK    2  A    between atoms: N_2  and  C_3
REMARK    3  A    between atoms: N_2  and  C_4
REMARK    4  A    between atoms: N_2  and  C_5
REMARK    5  A    between atoms: C_5  and  C_6
REMARK                            x       y       z     vdW  Elec       q    Type
REMARK                         _______ _______ _______ _____ _____    ______ ____
ROOT
ATOM      1  C   UNL     1      45.745 -20.881 -41.136  0.00  0.00    -0.101 C 
ATOM      2  N   UNL     1      45.492 -21.460 -41.911  0.00  0.00    +0.375 N 
ATOM      3  C   UNL     1      44.581 -21.048 -41.921  0.00  0.00    -0.101 C 
ATOM      4  C   UNL     1      45.240 -22.038 -42.687  0.00  0.00    -0.101 C 
ENDROOT
BRANCH   2   5
ATOM      5  C   UNL     1      46.404 -21.871 -41.901  0.00  0.00    -0.075 C 
BRANCH   5   6
ATOM      6  C   UNL     1      47.238 -23.265 -41.170  0.00  0.00    +0.008 C 
ATOM      7 CL   UNL     1      48.251 -24.075 -42.405  0.00  0.00    -0.127 Cl
ENDBRANCH   5   6
ENDBRANCH   2   5
TORSDOF 2
ENDMDL
MODEL 11
REMARK VINA RESULT:    -3.188     12.359     12.784
REMARK INTER + INTRA:          -1.655
REMARK INTER:                  -3.287
REMARK INTRA:                   1.632
REMARK UNBOUND:                 1.626
REMARK  Name = cpd205.pdb
REMARK  5 active torsions:
REMARK  status: ('A' for Active; 'I' for Inactive)
REMARK    1  A    between atoms: C_1  and  N_2
REMARK    2  A    between atoms: N_2  and  C_3
REMARK    3  A    between atoms: N_2  and  C_4
REMARK    4  A    between atoms: N_2  and  C_5
REMARK    5  A    between atoms: C_5  and  C_6
REMARK                            x       y       z     vdW  Elec       q    Type
REMARK                         _______ _______ _______ _____ _____    ______ ____
ROOT
ATOM      1  C   UNL     1      55.101 -34.692 -45.697  0.00  0.00    -0.101 C 
ATOM      2  N   UNL     1      54.429 -35.215 -46.221  0.00  0.00    +0.375 N 
ATOM      3  C   UNL     1      53.688 -34.731 -45.754  0.00  0.00    -0.101 C 
ATOM      4  C   UNL     1      53.756 -35.738 -46.745  0.00  0.00    -0.101 C 
ENDROOT
BRANCH   2   5
ATOM      5  C   UNL     1      55.169 -35.699 -46.687  0.00  0.00    -0.075 C 
BRANCH   5   6
ATOM      6  C   UNL     1      56.313 -35.430 -48.026  0.00  0.00    +0.008 C 
ATOM      7 CL   UNL     1      57.187 -36.951 -48.385  0.00  0.00    -0.127 Cl
ENDBRANCH   5   6
ENDBRANCH   2   5
TORSDOF 2
ENDMDL
MODEL 12
REMARK VINA RESULT:    -3.116     25.772     26.100
REMARK INTER + INTRA:          -1.581
REMARK INTER:                  -3.295
REMARK INTRA:                   1.713
REMARK UNBOUND:                 1.626
REMARK  Name = cpd205.pdb
REMARK  5 active torsions:
REMARK  status: ('A' for Active; 'I' for Inactive)
REMARK    1  A    between atoms: C_1  and  N_2
REMARK    2  A    between atoms: N_2  and  C_3
REMARK    3  A    between atoms: N_2  and  C_4
REMARK    4  A    between atoms: N_2  and  C_5
REMARK    5  A    between atoms: C_5  and  C_6
REMARK                            x       y       z     vdW  Elec       q    Type
REMARK                         _______ _______ _______ _____ _____    ______ ____
ROOT
ATOM      1  C   UNL     1      41.319 -36.359 -32.578  0.00  0.00    -0.101 C 
ATOM      2  N   UNL     1      41.619 -36.091 -31.662  0.00  0.00    +0.375 N 
ATOM      3  C   UNL     1      42.411 -36.696 -31.745  0.00  0.00    -0.101 C 
ATOM      4  C   UNL     1      41.920 -35.824 -30.746  0.00  0.00    -0.101 C 
ENDROOT
BRANCH   2   5
ATOM      5  C   UNL     1      40.827 -35.487 -31.579  0.00  0.00    -0.075 C 
BRANCH   5   6
ATOM      6  C   UNL     1      39.059 -35.610 -31.401  0.00  0.00    +0.008 C 
ATOM      7 CL   UNL     1      38.662 -36.862 -30.184  0.00  0.00    -0.127 Cl
ENDBRANCH   5   6
ENDBRANCH   2   5
TORSDOF 2
ENDMDL
MODEL 13
REMARK VINA RESULT:    -3.103     26.659     26.983
REMARK INTER + INTRA:          -1.568
REMARK INTER:                  -3.302
REMARK INTRA:                   1.734
REMARK UNBOUND:                 1.626
REMARK  Name = cpd205.pdb
REMARK  5 active torsions:
REMARK  status: ('A' for Active; 'I' for Inactive)
REMARK    1  A    between atoms: C_1  and  N_2
REMARK    2  A    between atoms: N_2  and  C_3
REMARK    3  A    between atoms: N_2  and  C_4
REMARK    4  A    between atoms: N_2  and  C_5
REMARK    5  A    between atoms: C_5  and  C_6
REMARK                            x       y       z     vdW  Elec       q    Type
REMARK                         _______ _______ _______ _____ _____    ______ ____
ROOT
ATOM      1  C   UNL     1      40.275 -35.712 -31.646  0.00  0.00    -0.101 C 
ATOM      2  N   UNL     1      39.583 -34.998 -31.751  0.00  0.00    +0.375 N 
ATOM      3  C   UNL     1      40.301 -34.302 -31.752  0.00  0.00    -0.101 C 
ATOM      4  C   UNL     1      38.891 -34.284 -31.856  0.00  0.00    -0.101 C 
ENDROOT
BRANCH   2   5
ATOM      5  C   UNL     1      38.865 -35.694 -31.750  0.00  0.00    -0.075 C 
BRANCH   5   6
ATOM      6  C   UNL     1      38.314 -37.052 -30.737  0.00  0.00    +0.008 C 
ATOM      7 CL   UNL     1      37.223 -36.443 -29.455  0.00  0.00    -0.127 Cl
ENDBRANCH   5   6
ENDBRANCH   2   5
TORSDOF 2
ENDMDL
MODEL 14
REMARK VINA RESULT:    -3.027     26.292     26.605
REMARK INTER + INTRA:          -1.490
REMARK INTER:                  -3.151
REMARK INTRA:                   1.661
REMARK UNBOUND:                 1.626
REMARK  Name = cpd205.pdb
REMARK  5 active torsions:
REMARK  status: ('A' for Active; 'I' for Inactive)
REMARK    1  A    between atoms: C_1  and  N_2
REMARK    2  A    between atoms: N_2  and  C_3
REMARK    3  A    between atoms: N_2  and  C_4
REMARK    4  A    between atoms: N_2  and  C_5
REMARK    5  A    between atoms: C_5  and  C_6
REMARK                            x       y       z     vdW  Elec       q    Type
REMARK                         _______ _______ _______ _____ _____    ______ ____
ROOT
ATOM      1  C   UNL     1      39.882 -35.906 -31.802  0.00  0.00    -0.101 C 
ATOM      2  N   UNL     1      40.863 -36.098 -31.835  0.00  0.00    +0.375 N 
ATOM      3  C   UNL     1      40.871 -35.893 -32.813  0.00  0.00    -0.101 C 
ATOM      4  C   UNL     1      41.844 -36.290 -31.867  0.00  0.00    -0.101 C 
ENDROOT
BRANCH   2   5
ATOM      5  C   UNL     1      40.856 -36.303 -30.856  0.00  0.00    -0.075 C 
BRANCH   5   6
ATOM      6  C   UNL     1      40.883 -37.726 -29.784  0.00  0.00    +0.008 C 
ATOM      7 CL   UNL     1      39.302 -37.890 -28.961  0.00  0.00    -0.127 Cl
ENDBRANCH   5   6
ENDBRANCH   2   5
TORSDOF 2
ENDMDL
MODEL 15
REMARK VINA RESULT:    -2.995     13.027     13.657
REMARK INTER + INTRA:          -1.457
REMARK INTER:                  -3.077
REMARK INTRA:                   1.620
REMARK UNBOUND:                 1.626
REMARK  Name = cpd205.pdb
REMARK  5 active torsions:
REMARK  status: ('A' for Active; 'I' for Inactive)
REMARK    1  A    between atoms: C_1  and  N_2
REMARK    2  A    between atoms: N_2  and  C_3
REMARK    3  A    between atoms: N_2  and  C_4
REMARK    4  A    between atoms: N_2  and  C_5
REMARK    5  A    between atoms: C_5  and  C_6
REMARK                            x       y       z     vdW  Elec       q    Type
REMARK                         _______ _______ _______ _____ _____    ______ ____
ROOT
ATOM      1  C   UNL     1      56.411 -35.688 -48.170  0.00  0.00    -0.101 C 
ATOM      2  N   UNL     1      56.014 -36.571 -47.922  0.00  0.00    +0.375 N 
ATOM      3  C   UNL     1      56.759 -37.040 -48.396  0.00  0.00    -0.101 C 
ATOM      4  C   UNL     1      55.616 -37.454 -47.673  0.00  0.00    -0.101 C 
ENDROOT
BRANCH   2   5
ATOM      5  C   UNL     1      55.269 -36.102 -47.447  0.00  0.00    -0.075 C 
BRANCH   5   6
ATOM      6  C   UNL     1      54.877 -35.522 -45.809  0.00  0.00    +0.008 C 
ATOM      7 CL   UNL     1      53.149 -35.061 -45.731  0.00  0.00    -0.127 Cl
ENDBRANCH   5   6
ENDBRANCH   2   5
TORSDOF 2
ENDMDL
MODEL 16
REMARK VINA RESULT:    -2.984     11.603     12.258
REMARK INTER + INTRA:          -1.446
REMARK INTER:                  -3.064
REMARK INTRA:                   1.618
REMARK UNBOUND:                 1.626
REMARK  Name = cpd205.pdb
REMARK  5 active torsions:
REMARK  status: ('A' for Active; 'I' for Inactive)
REMARK    1  A    between atoms: C_1  and  N_2
REMARK    2  A    between atoms: N_2  and  C_3
REMARK    3  A    between atoms: N_2  and  C_4
REMARK    4  A    between atoms: N_2  and  C_5
REMARK    5  A    between atoms: C_5  and  C_6
REMARK                            x       y       z     vdW  Elec       q    Type
REMARK                         _______ _______ _______ _____ _____    ______ ____
ROOT
ATOM      1  C   UNL     1      46.371 -22.273 -41.680  0.00  0.00    -0.101 C 
ATOM      2  N   UNL     1      47.187 -22.568 -41.182  0.00  0.00    +0.375 N 
ATOM      3  C   UNL     1      47.283 -23.347 -41.801  0.00  0.00    -0.101 C 
ATOM      4  C   UNL     1      48.002 -22.863 -40.684  0.00  0.00    -0.101 C 
ENDROOT
BRANCH   2   5
ATOM      5  C   UNL     1      47.091 -21.788 -40.563  0.00  0.00    -0.075 C 
BRANCH   5   6
ATOM      6  C   UNL     1      46.277 -21.386 -39.030  0.00  0.00    +0.008 C 
ATOM      7 CL   UNL     1      47.046 -19.942 -38.302  0.00  0.00    -0.127 Cl
ENDBRANCH   5   6
ENDBRANCH   2   5
TORSDOF 2
ENDMDL
MODEL 17
REMARK VINA RESULT:    -2.953      2.227      2.510
REMARK INTER + INTRA:          -1.414
REMARK INTER:                  -3.043
REMARK INTRA:                   1.629
REMARK UNBOUND:                 1.626
REMARK  Name = cpd205.pdb
REMARK  5 active torsions:
REMARK  status: ('A' for Active; 'I' for Inactive)
REMARK    1  A    between atoms: C_1  and  N_2
REMARK    2  A    between atoms: N_2  and  C_3
REMARK    3  A    between atoms: N_2  and  C_4
REMARK    4  A    between atoms: N_2  and  C_5
REMARK    5  A    between atoms: C_5  and  C_6
REMARK                            x       y       z     vdW  Elec       q    Type
REMARK                         _______ _______ _______ _____ _____    ______ ____
ROOT
ATOM      1  C   UNL     1      56.664 -23.937 -47.720  0.00  0.00    -0.101 C 
ATOM      2  N   UNL     1      56.782 -22.944 -47.700  0.00  0.00    +0.375 N 
ATOM      3  C   UNL     1      56.483 -22.929 -46.746  0.00  0.00    -0.101 C 
ATOM      4  C   UNL     1      56.899 -21.952 -47.680  0.00  0.00    -0.101 C 
ENDROOT
BRANCH   2   5
ATOM      5  C   UNL     1      57.080 -22.960 -48.654  0.00  0.00    -0.075 C 
BRANCH   5   6
ATOM      6  C   UNL     1      56.360 -22.976 -50.284  0.00  0.00    +0.008 C 
ATOM      7 CL   UNL     1      57.367 -21.998 -51.396  0.00  0.00    -0.127 Cl
ENDBRANCH   5   6
ENDBRANCH   2   5
TORSDOF 2
ENDMDL
MODEL 18
REMARK VINA RESULT:    -2.863     40.584     40.913
REMARK INTER + INTRA:          -1.321
REMARK INTER:                  -2.937
REMARK INTRA:                   1.616
REMARK UNBOUND:                 1.626
REMARK  Name = cpd205.pdb
REMARK  5 active torsions:
REMARK  status: ('A' for Active; 'I' for Inactive)
REMARK    1  A    between atoms: C_1  and  N_2
REMARK    2  A    between atoms: N_2  and  C_3
REMARK    3  A    between atoms: N_2  and  C_4
REMARK    4  A    between atoms: N_2  and  C_5
REMARK    5  A    between atoms: C_5  and  C_6
REMARK                            x       y       z     vdW  Elec       q    Type
REMARK                         _______ _______ _______ _____ _____    ______ ____
ROOT
ATOM      1  C   UNL     1      63.352 -23.392  -6.252  0.00  0.00    -0.101 C 
ATOM      2  N   UNL     1      63.728 -24.300  -6.066  0.00  0.00    +0.375 N 
ATOM      3  C   UNL     1      64.024 -23.992  -5.162  0.00  0.00    -0.101 C 
ATOM      4  C   UNL     1      64.103 -25.208  -5.880  0.00  0.00    -0.101 C 
ENDROOT
BRANCH   2   5
ATOM      5  C   UNL     1      63.431 -24.607  -6.970  0.00  0.00    -0.075 C 
BRANCH   5   6
ATOM      6  C   UNL     1      62.005 -25.355  -7.732  0.00  0.00    +0.008 C 
ATOM      7 CL   UNL     1      61.934 -24.894  -9.460  0.00  0.00    -0.127 Cl
ENDBRANCH   5   6
ENDBRANCH   2   5
TORSDOF 2
ENDMDL
MODEL 19
REMARK VINA RESULT:    -2.787     31.903     32.290
REMARK INTER + INTRA:          -1.243
REMARK INTER:                  -2.944
REMARK INTRA:                   1.701
REMARK UNBOUND:                 1.626
REMARK  Name = cpd205.pdb
REMARK  5 active torsions:
REMARK  status: ('A' for Active; 'I' for Inactive)
REMARK    1  A    between atoms: C_1  and  N_2
REMARK    2  A    between atoms: N_2  and  C_3
REMARK    3  A    between atoms: N_2  and  C_4
REMARK    4  A    between atoms: N_2  and  C_5
REMARK    5  A    between atoms: C_5  and  C_6
REMARK                            x       y       z     vdW  Elec       q    Type
REMARK                         _______ _______ _______ _____ _____    ______ ____
ROOT
ATOM      1  C   UNL     1      53.470 -50.029 -28.176  0.00  0.00    -0.101 C 
ATOM      2  N   UNL     1      54.297 -49.574 -28.506  0.00  0.00    +0.375 N 
ATOM      3  C   UNL     1      54.275 -48.961 -27.717  0.00  0.00    -0.101 C 
ATOM      4  C   UNL     1      55.124 -49.120 -28.837  0.00  0.00    -0.101 C 
ENDROOT
BRANCH   2   5
ATOM      5  C   UNL     1      54.319 -50.187 -29.296  0.00  0.00    -0.075 C 
BRANCH   5   6
ATOM      6  C   UNL     1      53.294 -50.616 -30.690  0.00  0.00    +0.008 C 
ATOM      7 CL   UNL     1      53.255 -49.253 -31.849  0.00  0.00    -0.127 Cl
ENDBRANCH   5   6
ENDBRANCH   2   5
TORSDOF 2
ENDMDL
MODEL 20
REMARK VINA RESULT:    -2.619     11.521     12.339
REMARK INTER + INTRA:          -1.070
REMARK INTER:                  -2.714
REMARK INTRA:                   1.644
REMARK UNBOUND:                 1.626
REMARK  Name = cpd205.pdb
REMARK  5 active torsions:
REMARK  status: ('A' for Active; 'I' for Inactive)
REMARK    1  A    between atoms: C_1  and  N_2
REMARK    2  A    between atoms: N_2  and  C_3
REMARK    3  A    between atoms: N_2  and  C_4
REMARK    4  A    between atoms: N_2  and  C_5
REMARK    5  A    between atoms: C_5  and  C_6
REMARK                            x       y       z     vdW  Elec       q    Type
REMARK                         _______ _______ _______ _____ _____    ______ ____
ROOT
ATOM      1  C   UNL     1      56.044 -35.731 -49.741  0.00  0.00    -0.101 C 
ATOM      2  N   UNL     1      56.227 -34.815 -49.382  0.00  0.00    +0.375 N 
ATOM      3  C   UNL     1      56.228 -34.451 -50.313  0.00  0.00    -0.101 C 
ATOM      4  C   UNL     1      56.410 -33.900 -49.024  0.00  0.00    -0.101 C 
ENDROOT
BRANCH   2   5
ATOM      5  C   UNL     1      56.226 -35.180 -48.451  0.00  0.00    -0.075 C 
BRANCH   5   6
ATOM      6  C   UNL     1      55.062 -35.526 -47.148  0.00  0.00    +0.008 C 
ATOM      7 CL   UNL     1      55.481 -34.565 -45.696  0.00  0.00    -0.127 Cl
ENDBRANCH   5   6
ENDBRANCH   2   5
TORSDOF 2
ENDMDL
