REMARK  Name = cpd205.pdb
REMARK  5 active torsions:
REMARK  status: ('A' for Active; 'I' for Inactive)
REMARK    1  A    between atoms: C_1  and  N_2
REMARK    2  A    between atoms: N_2  and  C_3
REMARK    3  A    between atoms: N_2  and  C_4
REMARK    4  A    between atoms: N_2  and  C_5
REMARK    5  A    between atoms: C_5  and  C_6
REMARK                            x       y       z     vdW  Elec       q    Type
REMARK                         _______ _______ _______ _____ _____    ______ ____
ROOT
ATOM      1  C   UNL     1       1.000  -1.000   0.000  0.00  0.00    -0.101 C 
ATOM      2  N   UNL     1       1.000   0.000   0.000  0.00  0.00    +0.375 N 
ATOM      3  C   UNL     1       2.000   0.000   0.000  0.00  0.00    -0.101 C 
ATOM      4  C   UNL     1       1.000   1.000   0.000  0.00  0.00    -0.101 C 
ENDROOT
BRANCH   2   5
ATOM      5  C   UNL     1       0.000   0.000   0.000  0.00  0.00    -0.075 C 
BRANCH   5   6
ATOM      6  C   UNL     1      -1.341   1.173   0.006  0.00  0.00    +0.008 C 
ATOM      7 CL   UNL     1      -2.904   0.300  -0.001  0.00  0.00    -0.127 Cl
ENDBRANCH   5   6
ENDBRANCH   2   5
TORSDOF 2
