REMARK  Name = cpd268.pdb
REMARK  5 active torsions:
REMARK  status: ('A' for Active; 'I' for Inactive)
REMARK    1  A    between atoms: C_4  and  C_5
REMARK    2  A    between atoms: C_8  and  N_9
REMARK    3  A    between atoms: N_9  and  C_10
REMARK    4  A    between atoms: C_10  and  C_11
REMARK    5  A    between atoms: C_11  and  N_12
REMARK                            x       y       z     vdW  Elec       q    Type
REMARK                         _______ _______ _______ _____ _____    ______ ____
ROOT
ATOM      1  C   UNL     1       0.815   2.122   0.338  0.00  0.00    +0.093 A 
ATOM      2  C   UNL     1       0.645   3.430  -0.099  0.00  0.00    -0.031 A 
ATOM      3  C   UNL     1       1.700   4.335   0.017  0.00  0.00    -0.018 A 
ATOM      4  C   UNL     1       2.902   3.915   0.562  0.00  0.00    +0.141 A 
ATOM      5  N   UNL     1       3.041   2.647   0.985  0.00  0.00    -0.134 NA
ATOM      6  N   UNL     1       2.001   1.745   0.865  0.00  0.00    -0.147 NA
ENDROOT
BRANCH   1  10
ATOM      7  C   UNL     1      -2.204  -0.939   0.081  0.00  0.00    -0.062 A 
ATOM      8  C   UNL     1      -2.578   0.392   0.235  0.00  0.00    -0.061 A 
ATOM      9  C   UNL     1      -1.602   1.391   0.322  0.00  0.00    -0.053 A 
ATOM     10  C   UNL     1      -0.230   1.083   0.254  0.00  0.00    +0.002 A 
ATOM     11  C   UNL     1       0.118  -0.274   0.107  0.00  0.00    -0.053 A 
ATOM     12  C   UNL     1      -0.856  -1.274   0.019  0.00  0.00    -0.061 A 
ENDBRANCH   1  10
BRANCH   4  13
ATOM     13  N   UNL     1       3.989   4.783   0.703  0.00  0.00    -0.326 N 
ATOM     14  H   UNL     1       4.380   5.021   1.575  0.00  0.00    +0.000 HD
BRANCH  13  15
ATOM     15  C   UNL     1       4.492   5.306  -0.572  0.00  0.00    +0.023 C 
BRANCH  15  16
ATOM     16  C   UNL     1       5.983   5.692  -0.418  0.00  0.00    +0.015 C 
BRANCH  16  17
ATOM     17  N   UNL     1       6.800   4.633   0.212  0.00  0.00    -0.297 N 
ATOM     18  C   UNL     1       8.096   5.179   0.668  0.00  0.00    +0.022 C 
ATOM     19  C   UNL     1       9.142   4.072   0.863  0.00  0.00    +0.060 C 
ATOM     20  O   UNL     1       9.474   3.409  -0.365  0.00  0.00    -0.377 OA
ATOM     21  C   UNL     1       8.394   3.395  -1.307  0.00  0.00    +0.060 C 
ATOM     22  C   UNL     1       7.005   3.446  -0.647  0.00  0.00    +0.022 C 
ATOM     23  H   UNL     1       6.266   4.306   1.018  0.00  0.00    +0.000 HD
ENDBRANCH  16  17
ENDBRANCH  15  16
ENDBRANCH  13  15
ENDBRANCH   4  13
TORSDOF 5
