MODEL 1
REMARK VINA RESULT:    -8.394      0.000      0.000
REMARK INTER + INTRA:         -11.384
REMARK INTER:                 -10.847
REMARK INTRA:                  -0.537
REMARK UNBOUND:                -0.537
REMARK  Name = cpd268.pdb
REMARK  5 active torsions:
REMARK  status: ('A' for Active; 'I' for Inactive)
REMARK    1  A    between atoms: C_4  and  C_5
REMARK    2  A    between atoms: C_8  and  N_9
REMARK    3  A    between atoms: N_9  and  C_10
REMARK    4  A    between atoms: C_10  and  C_11
REMARK    5  A    between atoms: C_11  and  N_12
REMARK                            x       y       z     vdW  Elec       q    Type
REMARK                         _______ _______ _______ _____ _____    ______ ____
ROOT
ATOM      1  C   UNL     1      40.922 -37.133 -30.858  0.00  0.00    +0.093 A 
ATOM      2  C   UNL     1      41.015 -38.025 -29.797  0.00  0.00    -0.031 A 
ATOM      3  C   UNL     1      42.161 -38.807 -29.655  0.00  0.00    -0.018 A 
ATOM      4  C   UNL     1      43.191 -38.680 -30.572  0.00  0.00    +0.141 A 
ATOM      5  N   UNL     1      43.076 -37.816 -31.596  0.00  0.00    -0.134 NA
ATOM      6  N   UNL     1      41.946 -37.034 -31.735  0.00  0.00    -0.147 NA
ENDROOT
BRANCH   1  10
ATOM      7  C   UNL     1      37.507 -34.599 -31.543  0.00  0.00    -0.062 A 
ATOM      8  C   UNL     1      38.778 -34.162 -31.903  0.00  0.00    -0.061 A 
ATOM      9  C   UNL     1      39.892 -34.980 -31.681  0.00  0.00    -0.053 A 
ATOM     10  C   UNL     1      39.761 -36.254 -31.096  0.00  0.00    +0.002 A 
ATOM     11  C   UNL     1      38.464 -36.665 -30.734  0.00  0.00    -0.053 A 
ATOM     12  C   UNL     1      37.349 -35.850 -30.956  0.00  0.00    -0.061 A 
ENDBRANCH   1  10
BRANCH   4  13
ATOM     13  N   UNL     1      44.359 -39.442 -30.477  0.00  0.00    -0.326 N 
ATOM     14  H   UNL     1      45.024 -39.503 -31.201  0.00  0.00    +0.000 HD
BRANCH  13  15
ATOM     15  C   UNL     1      44.501 -40.142 -29.196  0.00  0.00    +0.023 C 
BRANCH  15  16
ATOM     16  C   UNL     1      45.974 -40.064 -28.727  0.00  0.00    +0.015 C 
BRANCH  16  17
ATOM     17  N   UNL     1      46.874 -39.443 -29.722  0.00  0.00    -0.297 N 
ATOM     18  C   UNL     1      47.808 -40.447 -30.274  0.00  0.00    +0.022 C 
ATOM     19  C   UNL     1      49.042 -39.787 -30.908  0.00  0.00    +0.060 C 
ATOM     20  O   UNL     1      49.840 -39.082 -29.947  0.00  0.00    -0.377 OA
ATOM     21  C   UNL     1      49.076 -38.567 -28.849  0.00  0.00    +0.060 C 
ATOM     22  C   UNL     1      47.611 -38.267 -29.210  0.00  0.00    +0.022 C 
ATOM     23  H   UNL     1      46.271 -39.093 -30.468  0.00  0.00    +0.000 HD
ENDBRANCH  16  17
ENDBRANCH  15  16
ENDBRANCH  13  15
ENDBRANCH   4  13
TORSDOF 5
ENDMDL
MODEL 2
REMARK VINA RESULT:    -7.772      5.917     10.130
REMARK INTER + INTRA:         -10.581
REMARK INTER:                  -9.909
REMARK INTRA:                  -0.672
REMARK UNBOUND:                -0.537
REMARK  Name = cpd268.pdb
REMARK  5 active torsions:
REMARK  status: ('A' for Active; 'I' for Inactive)
REMARK    1  A    between atoms: C_4  and  C_5
REMARK    2  A    between atoms: C_8  and  N_9
REMARK    3  A    between atoms: N_9  and  C_10
REMARK    4  A    between atoms: C_10  and  C_11
REMARK    5  A    between atoms: C_11  and  N_12
REMARK                            x       y       z     vdW  Elec       q    Type
REMARK                         _______ _______ _______ _____ _____    ______ ____
ROOT
ATOM      1  C   UNL     1      38.760 -37.204 -29.775  0.00  0.00    +0.093 A 
ATOM      2  C   UNL     1      38.484 -37.919 -28.615  0.00  0.00    -0.031 A 
ATOM      3  C   UNL     1      37.262 -37.733 -27.970  0.00  0.00    -0.018 A 
ATOM      4  C   UNL     1      36.340 -36.844 -28.496  0.00  0.00    +0.141 A 
ATOM      5  N   UNL     1      36.632 -36.158 -29.614  0.00  0.00    -0.134 NA
ATOM      6  N   UNL     1      37.839 -36.344 -30.262  0.00  0.00    -0.147 NA
ENDROOT
BRANCH   1  10
ATOM      7  C   UNL     1      42.403 -37.554 -32.045  0.00  0.00    -0.062 A 
ATOM      8  C   UNL     1      42.296 -38.178 -30.807  0.00  0.00    -0.061 A 
ATOM      9  C   UNL     1      41.116 -38.066 -30.063  0.00  0.00    -0.053 A 
ATOM     10  C   UNL     1      40.015 -37.330 -30.541  0.00  0.00    +0.002 A 
ATOM     11  C   UNL     1      40.157 -36.702 -31.794  0.00  0.00    -0.053 A 
ATOM     12  C   UNL     1      41.335 -36.814 -32.540  0.00  0.00    -0.061 A 
ENDBRANCH   1  10
BRANCH   4  13
ATOM     13  N   UNL     1      35.103 -36.620 -27.886  0.00  0.00    -0.326 N 
ATOM     14  H   UNL     1      34.999 -36.454 -26.921  0.00  0.00    +0.000 HD
BRANCH  13  15
ATOM     15  C   UNL     1      33.972 -36.655 -28.821  0.00  0.00    +0.023 C 
BRANCH  15  16
ATOM     16  C   UNL     1      33.518 -35.209 -29.133  0.00  0.00    +0.015 C 
BRANCH  16  17
ATOM     17  N   UNL     1      34.282 -34.579 -30.231  0.00  0.00    -0.297 N 
ATOM     18  C   UNL     1      34.514 -33.147 -29.947  0.00  0.00    +0.022 C 
ATOM     19  C   UNL     1      34.846 -32.361 -31.223  0.00  0.00    +0.060 C 
ATOM     20  O   UNL     1      33.755 -32.342 -32.155  0.00  0.00    -0.377 OA
ATOM     21  C   UNL     1      32.924 -33.507 -32.071  0.00  0.00    +0.060 C 
ATOM     22  C   UNL     1      33.668 -34.755 -31.565  0.00  0.00    +0.022 C 
ATOM     23  H   UNL     1      35.177 -35.068 -30.268  0.00  0.00    +0.000 HD
ENDBRANCH  16  17
ENDBRANCH  15  16
ENDBRANCH  13  15
ENDBRANCH   4  13
TORSDOF 5
ENDMDL
MODEL 3
REMARK VINA RESULT:    -7.460      5.856     10.207
REMARK INTER + INTRA:         -10.178
REMARK INTER:                  -9.378
REMARK INTRA:                  -0.800
REMARK UNBOUND:                -0.537
REMARK  Name = cpd268.pdb
REMARK  5 active torsions:
REMARK  status: ('A' for Active; 'I' for Inactive)
REMARK    1  A    between atoms: C_4  and  C_5
REMARK    2  A    between atoms: C_8  and  N_9
REMARK    3  A    between atoms: N_9  and  C_10
REMARK    4  A    between atoms: C_10  and  C_11
REMARK    5  A    between atoms: C_11  and  N_12
REMARK                            x       y       z     vdW  Elec       q    Type
REMARK                         _______ _______ _______ _____ _____    ______ ____
ROOT
ATOM      1  C   UNL     1      38.552 -37.010 -29.834  0.00  0.00    +0.093 A 
ATOM      2  C   UNL     1      38.281 -37.679 -28.646  0.00  0.00    -0.031 A 
ATOM      3  C   UNL     1      37.045 -37.500 -28.025  0.00  0.00    -0.018 A 
ATOM      4  C   UNL     1      36.106 -36.663 -28.603  0.00  0.00    +0.141 A 
ATOM      5  N   UNL     1      36.393 -36.021 -29.748  0.00  0.00    -0.134 NA
ATOM      6  N   UNL     1      37.613 -36.201 -30.371  0.00  0.00    -0.147 NA
ENDROOT
BRANCH   1  10
ATOM      7  C   UNL     1      42.236 -37.351 -32.039  0.00  0.00    -0.062 A 
ATOM      8  C   UNL     1      42.080 -38.039 -30.840  0.00  0.00    -0.061 A 
ATOM      9  C   UNL     1      40.887 -37.930 -30.117  0.00  0.00    -0.053 A 
ATOM     10  C   UNL     1      39.821 -37.134 -30.578  0.00  0.00    +0.002 A 
ATOM     11  C   UNL     1      40.012 -36.443 -31.790  0.00  0.00    -0.053 A 
ATOM     12  C   UNL     1      41.204 -36.551 -32.514  0.00  0.00    -0.061 A 
ENDBRANCH   1  10
BRANCH   4  13
ATOM     13  N   UNL     1      34.854 -36.448 -28.019  0.00  0.00    -0.326 N 
ATOM     14  H   UNL     1      34.727 -36.299 -27.054  0.00  0.00    +0.000 HD
BRANCH  13  15
ATOM     15  C   UNL     1      33.746 -36.464 -28.981  0.00  0.00    +0.023 C 
BRANCH  15  16
ATOM     16  C   UNL     1      32.767 -35.310 -28.659  0.00  0.00    +0.015 C 
BRANCH  16  17
ATOM     17  N   UNL     1      32.695 -34.289 -29.726  0.00  0.00    -0.297 N 
ATOM     18  C   UNL     1      33.212 -34.831 -31.000  0.00  0.00    +0.022 C 
ATOM     19  C   UNL     1      33.614 -33.713 -31.972  0.00  0.00    +0.060 C 
ATOM     20  O   UNL     1      34.706 -32.924 -31.479  0.00  0.00    -0.377 OA
ATOM     21  C   UNL     1      34.751 -32.857 -30.048  0.00  0.00    +0.060 C 
ATOM     22  C   UNL     1      33.372 -33.019 -29.384  0.00  0.00    +0.022 C 
ATOM     23  H   UNL     1      31.706 -34.058 -29.830  0.00  0.00    +0.000 HD
ENDBRANCH  16  17
ENDBRANCH  15  16
ENDBRANCH  13  15
ENDBRANCH   4  13
TORSDOF 5
ENDMDL
MODEL 4
REMARK VINA RESULT:    -7.417      6.136     11.258
REMARK INTER + INTRA:         -10.122
REMARK INTER:                  -9.517
REMARK INTRA:                  -0.604
REMARK UNBOUND:                -0.537
REMARK  Name = cpd268.pdb
REMARK  5 active torsions:
REMARK  status: ('A' for Active; 'I' for Inactive)
REMARK    1  A    between atoms: C_4  and  C_5
REMARK    2  A    between atoms: C_8  and  N_9
REMARK    3  A    between atoms: N_9  and  C_10
REMARK    4  A    between atoms: C_10  and  C_11
REMARK    5  A    between atoms: C_11  and  N_12
REMARK                            x       y       z     vdW  Elec       q    Type
REMARK                         _______ _______ _______ _____ _____    ______ ____
ROOT
ATOM      1  C   UNL     1      38.752 -36.445 -30.783  0.00  0.00    +0.093 A 
ATOM      2  C   UNL     1      37.888 -36.791 -29.751  0.00  0.00    -0.031 A 
ATOM      3  C   UNL     1      36.626 -36.199 -29.685  0.00  0.00    -0.018 A 
ATOM      4  C   UNL     1      36.252 -35.280 -30.652  0.00  0.00    +0.141 A 
ATOM      5  N   UNL     1      37.108 -34.955 -31.636  0.00  0.00    -0.134 NA
ATOM      6  N   UNL     1      38.356 -35.544 -31.710  0.00  0.00    -0.147 NA
ENDROOT
BRANCH   1  10
ATOM      7  C   UNL     1      42.693 -38.122 -31.236  0.00  0.00    -0.062 A 
ATOM      8  C   UNL     1      42.161 -37.321 -32.241  0.00  0.00    -0.061 A 
ATOM      9  C   UNL     1      40.880 -36.776 -32.102  0.00  0.00    -0.053 A 
ATOM     10  C   UNL     1      40.103 -37.015 -30.953  0.00  0.00    +0.002 A 
ATOM     11  C   UNL     1      40.664 -37.837 -29.956  0.00  0.00    -0.053 A 
ATOM     12  C   UNL     1      41.945 -38.382 -30.093  0.00  0.00    -0.061 A 
ENDBRANCH   1  10
BRANCH   4  13
ATOM     13  N   UNL     1      35.001 -34.657 -30.629  0.00  0.00    -0.326 N 
ATOM     14  H   UNL     1      34.153 -35.146 -30.738  0.00  0.00    +0.000 HD
BRANCH  13  15
ATOM     15  C   UNL     1      35.071 -33.206 -30.428  0.00  0.00    +0.023 C 
BRANCH  15  16
ATOM     16  C   UNL     1      34.311 -32.490 -31.571  0.00  0.00    +0.015 C 
BRANCH  16  17
ATOM     17  N   UNL     1      32.918 -32.141 -31.219  0.00  0.00    -0.297 N 
ATOM     18  C   UNL     1      32.761 -32.047 -29.752  0.00  0.00    +0.022 C 
ATOM     19  C   UNL     1      31.291 -32.181 -29.328  0.00  0.00    +0.060 C 
ATOM     20  O   UNL     1      30.746 -33.471 -29.639  0.00  0.00    -0.377 OA
ATOM     21  C   UNL     1      31.353 -34.077 -30.787  0.00  0.00    +0.060 C 
ATOM     22  C   UNL     1      31.909 -33.056 -31.796  0.00  0.00    +0.022 C 
ATOM     23  H   UNL     1      32.740 -31.228 -31.639  0.00  0.00    +0.000 HD
ENDBRANCH  16  17
ENDBRANCH  15  16
ENDBRANCH  13  15
ENDBRANCH   4  13
TORSDOF 5
ENDMDL
MODEL 5
REMARK VINA RESULT:    -7.288      1.915      3.471
REMARK INTER + INTRA:          -9.955
REMARK INTER:                  -9.755
REMARK INTRA:                  -0.200
REMARK UNBOUND:                -0.537
REMARK  Name = cpd268.pdb
REMARK  5 active torsions:
REMARK  status: ('A' for Active; 'I' for Inactive)
REMARK    1  A    between atoms: C_4  and  C_5
REMARK    2  A    between atoms: C_8  and  N_9
REMARK    3  A    between atoms: N_9  and  C_10
REMARK    4  A    between atoms: C_10  and  C_11
REMARK    5  A    between atoms: C_11  and  N_12
REMARK                            x       y       z     vdW  Elec       q    Type
REMARK                         _______ _______ _______ _____ _____    ______ ____
ROOT
ATOM      1  C   UNL     1      38.427 -36.159 -30.842  0.00  0.00    +0.093 A 
ATOM      2  C   UNL     1      38.871 -35.687 -32.072  0.00  0.00    -0.031 A 
ATOM      3  C   UNL     1      40.130 -36.067 -32.539  0.00  0.00    -0.018 A 
ATOM      4  C   UNL     1      40.915 -36.911 -31.772  0.00  0.00    +0.141 A 
ATOM      5  N   UNL     1      40.469 -37.349 -30.583  0.00  0.00    -0.134 NA
ATOM      6  N   UNL     1      39.219 -36.981 -30.119  0.00  0.00    -0.147 NA
ENDROOT
BRANCH   1  10
ATOM      7  C   UNL     1      34.591 -35.231 -29.119  0.00  0.00    -0.062 A 
ATOM      8  C   UNL     1      35.098 -34.442 -30.147  0.00  0.00    -0.061 A 
ATOM      9  C   UNL     1      36.345 -34.737 -30.709  0.00  0.00    -0.053 A 
ATOM     10  C   UNL     1      37.113 -35.828 -30.259  0.00  0.00    +0.002 A 
ATOM     11  C   UNL     1      36.577 -36.602 -29.211  0.00  0.00    -0.053 A 
ATOM     12  C   UNL     1      35.331 -36.310 -28.649  0.00  0.00    -0.061 A 
ENDBRANCH   1  10
BRANCH   4  13
ATOM     13  N   UNL     1      42.185 -37.319 -32.193  0.00  0.00    -0.326 N 
ATOM     14  H   UNL     1      42.425 -37.442 -33.140  0.00  0.00    +0.000 HD
BRANCH  13  15
ATOM     15  C   UNL     1      43.124 -37.547 -31.090  0.00  0.00    +0.023 C 
BRANCH  15  16
ATOM     16  C   UNL     1      43.086 -39.040 -30.681  0.00  0.00    +0.015 C 
BRANCH  16  17
ATOM     17  N   UNL     1      44.079 -39.388 -29.643  0.00  0.00    -0.297 N 
ATOM     18  C   UNL     1      45.335 -38.637 -29.853  0.00  0.00    +0.022 C 
ATOM     19  C   UNL     1      46.521 -39.302 -29.140  0.00  0.00    +0.060 C 
ATOM     20  O   UNL     1      46.819 -40.602 -29.668  0.00  0.00    -0.377 OA
ATOM     21  C   UNL     1      45.668 -41.272 -30.199  0.00  0.00    +0.060 C 
ATOM     22  C   UNL     1      44.348 -40.839 -29.536  0.00  0.00    +0.022 C 
ATOM     23  H   UNL     1      43.664 -39.114 -28.752  0.00  0.00    +0.000 HD
ENDBRANCH  16  17
ENDBRANCH  15  16
ENDBRANCH  13  15
ENDBRANCH   4  13
TORSDOF 5
ENDMDL
MODEL 6
REMARK VINA RESULT:    -7.180      7.102     10.559
REMARK INTER + INTRA:          -9.815
REMARK INTER:                  -9.297
REMARK INTRA:                  -0.518
REMARK UNBOUND:                -0.537
REMARK  Name = cpd268.pdb
REMARK  5 active torsions:
REMARK  status: ('A' for Active; 'I' for Inactive)
REMARK    1  A    between atoms: C_4  and  C_5
REMARK    2  A    between atoms: C_8  and  N_9
REMARK    3  A    between atoms: N_9  and  C_10
REMARK    4  A    between atoms: C_10  and  C_11
REMARK    5  A    between atoms: C_11  and  N_12
REMARK                            x       y       z     vdW  Elec       q    Type
REMARK                         _______ _______ _______ _____ _____    ______ ____
ROOT
ATOM      1  C   UNL     1      38.178 -37.097 -29.649  0.00  0.00    +0.093 A 
ATOM      2  C   UNL     1      36.941 -36.464 -29.679  0.00  0.00    -0.031 A 
ATOM      3  C   UNL     1      36.018 -36.712 -28.663  0.00  0.00    -0.018 A 
ATOM      4  C   UNL     1      36.351 -37.581 -27.637  0.00  0.00    +0.141 A 
ATOM      5  N   UNL     1      37.550 -38.187 -27.633  0.00  0.00    -0.134 NA
ATOM      6  N   UNL     1      38.470 -37.939 -28.634  0.00  0.00    -0.147 NA
ENDROOT
BRANCH   1  10
ATOM      7  C   UNL     1      41.274 -36.540 -32.591  0.00  0.00    -0.062 A 
ATOM      8  C   UNL     1      40.025 -35.957 -32.780  0.00  0.00    -0.061 A 
ATOM      9  C   UNL     1      39.014 -36.136 -31.830  0.00  0.00    -0.053 A 
ATOM     10  C   UNL     1      39.229 -36.900 -30.667  0.00  0.00    +0.002 A 
ATOM     11  C   UNL     1      40.500 -37.484 -30.507  0.00  0.00    -0.053 A 
ATOM     12  C   UNL     1      41.512 -37.306 -31.455  0.00  0.00    -0.061 A 
ENDBRANCH   1  10
BRANCH   4  13
ATOM     13  N   UNL     1      35.461 -37.865 -26.596  0.00  0.00    -0.326 N 
ATOM     14  H   UNL     1      35.693 -37.762 -25.645  0.00  0.00    +0.000 HD
BRANCH  13  15
ATOM     15  C   UNL     1      34.149 -38.332 -27.057  0.00  0.00    +0.023 C 
BRANCH  15  16
ATOM     16  C   UNL     1      33.081 -38.006 -25.985  0.00  0.00    +0.015 C 
BRANCH  16  17
ATOM     17  N   UNL     1      33.657 -37.706 -24.656  0.00  0.00    -0.297 N 
ATOM     18  C   UNL     1      33.448 -38.840 -23.731  0.00  0.00    +0.022 C 
ATOM     19  C   UNL     1      33.570 -38.406 -22.264  0.00  0.00    +0.060 C 
ATOM     20  O   UNL     1      32.550 -37.473 -21.881  0.00  0.00    -0.377 OA
ATOM     21  C   UNL     1      32.097 -36.657 -22.969  0.00  0.00    +0.060 C 
ATOM     22  C   UNL     1      33.161 -36.446 -24.061  0.00  0.00    +0.022 C 
ATOM     23  H   UNL     1      34.658 -37.569 -24.807  0.00  0.00    +0.000 HD
ENDBRANCH  16  17
ENDBRANCH  15  16
ENDBRANCH  13  15
ENDBRANCH   4  13
TORSDOF 5
ENDMDL
MODEL 7
REMARK VINA RESULT:    -7.062      6.565      9.767
REMARK INTER + INTRA:          -9.663
REMARK INTER:                  -9.083
REMARK INTRA:                  -0.580
REMARK UNBOUND:                -0.537
REMARK  Name = cpd268.pdb
REMARK  5 active torsions:
REMARK  status: ('A' for Active; 'I' for Inactive)
REMARK    1  A    between atoms: C_4  and  C_5
REMARK    2  A    between atoms: C_8  and  N_9
REMARK    3  A    between atoms: N_9  and  C_10
REMARK    4  A    between atoms: C_10  and  C_11
REMARK    5  A    between atoms: C_11  and  N_12
REMARK                            x       y       z     vdW  Elec       q    Type
REMARK                         _______ _______ _______ _____ _____    ______ ____
ROOT
ATOM      1  C   UNL     1      38.094 -37.066 -29.695  0.00  0.00    +0.093 A 
ATOM      2  C   UNL     1      36.858 -36.432 -29.666  0.00  0.00    -0.031 A 
ATOM      3  C   UNL     1      35.960 -36.726 -28.640  0.00  0.00    -0.018 A 
ATOM      4  C   UNL     1      36.316 -37.642 -27.664  0.00  0.00    +0.141 A 
ATOM      5  N   UNL     1      37.514 -38.248 -27.717  0.00  0.00    -0.134 NA
ATOM      6  N   UNL     1      38.410 -37.955 -28.727  0.00  0.00    -0.147 NA
ENDROOT
BRANCH   1  10
ATOM      7  C   UNL     1      41.120 -36.373 -32.681  0.00  0.00    -0.062 A 
ATOM      8  C   UNL     1      39.841 -35.853 -32.856  0.00  0.00    -0.061 A 
ATOM      9  C   UNL     1      38.853 -36.077 -31.891  0.00  0.00    -0.053 A 
ATOM     10  C   UNL     1      39.121 -36.823 -30.728  0.00  0.00    +0.002 A 
ATOM     11  C   UNL     1      40.421 -37.345 -30.583  0.00  0.00    -0.053 A 
ATOM     12  C   UNL     1      41.411 -37.121 -31.546  0.00  0.00    -0.061 A 
ENDBRANCH   1  10
BRANCH   4  13
ATOM     13  N   UNL     1      35.452 -37.973 -26.616  0.00  0.00    -0.326 N 
ATOM     14  H   UNL     1      35.765 -38.273 -25.732  0.00  0.00    +0.000 HD
BRANCH  13  15
ATOM     15  C   UNL     1      34.032 -37.832 -26.959  0.00  0.00    +0.023 C 
BRANCH  15  16
ATOM     16  C   UNL     1      33.292 -39.155 -26.643  0.00  0.00    +0.015 C 
BRANCH  16  17
ATOM     17  N   UNL     1      34.201 -40.260 -26.273  0.00  0.00    -0.297 N 
ATOM     18  C   UNL     1      34.303 -41.241 -27.375  0.00  0.00    +0.022 C 
ATOM     19  C   UNL     1      34.809 -42.603 -26.879  0.00  0.00    +0.060 C 
ATOM     20  O   UNL     1      33.898 -43.226 -25.963  0.00  0.00    -0.377 OA
ATOM     21  C   UNL     1      33.129 -42.283 -25.205  0.00  0.00    +0.060 C 
ATOM     22  C   UNL     1      33.839 -40.933 -25.006  0.00  0.00    +0.022 C 
ATOM     23  H   UNL     1      35.114 -39.834 -26.112  0.00  0.00    +0.000 HD
ENDBRANCH  16  17
ENDBRANCH  15  16
ENDBRANCH  13  15
ENDBRANCH   4  13
TORSDOF 5
ENDMDL
MODEL 8
REMARK VINA RESULT:    -6.969      5.825      9.385
REMARK INTER + INTRA:          -9.542
REMARK INTER:                  -8.547
REMARK INTRA:                  -0.995
REMARK UNBOUND:                -0.537
REMARK  Name = cpd268.pdb
REMARK  5 active torsions:
REMARK  status: ('A' for Active; 'I' for Inactive)
REMARK    1  A    between atoms: C_4  and  C_5
REMARK    2  A    between atoms: C_8  and  N_9
REMARK    3  A    between atoms: N_9  and  C_10
REMARK    4  A    between atoms: C_10  and  C_11
REMARK    5  A    between atoms: C_11  and  N_12
REMARK                            x       y       z     vdW  Elec       q    Type
REMARK                         _______ _______ _______ _____ _____    ______ ____
ROOT
ATOM      1  C   UNL     1      38.141 -36.398 -30.515  0.00  0.00    +0.093 A 
ATOM      2  C   UNL     1      37.808 -36.959 -29.289  0.00  0.00    -0.031 A 
ATOM      3  C   UNL     1      36.547 -36.719 -28.744  0.00  0.00    -0.018 A 
ATOM      4  C   UNL     1      35.644 -35.929 -29.436  0.00  0.00    +0.141 A 
ATOM      5  N   UNL     1      35.991 -35.391 -30.618  0.00  0.00    -0.134 NA
ATOM      6  N   UNL     1      37.236 -35.632 -31.165  0.00  0.00    -0.147 NA
ENDROOT
BRANCH   1  10
ATOM      7  C   UNL     1      41.952 -36.989 -32.433  0.00  0.00    -0.062 A 
ATOM      8  C   UNL     1      40.976 -36.216 -33.054  0.00  0.00    -0.061 A 
ATOM      9  C   UNL     1      39.735 -36.022 -32.438  0.00  0.00    -0.053 A 
ATOM     10  C   UNL     1      39.442 -36.594 -31.185  0.00  0.00    +0.002 A 
ATOM     11  C   UNL     1      40.446 -37.379 -30.585  0.00  0.00    -0.053 A 
ATOM     12  C   UNL     1      41.688 -37.573 -31.199  0.00  0.00    -0.061 A 
ENDBRANCH   1  10
BRANCH   4  13
ATOM     13  N   UNL     1      34.368 -35.656 -28.933  0.00  0.00    -0.326 N 
ATOM     14  H   UNL     1      33.954 -34.763 -28.967  0.00  0.00    +0.000 HD
BRANCH  13  15
ATOM     15  C   UNL     1      33.705 -36.826 -28.347  0.00  0.00    +0.023 C 
BRANCH  15  16
ATOM     16  C   UNL     1      32.854 -37.531 -29.431  0.00  0.00    +0.015 C 
BRANCH  16  17
ATOM     17  N   UNL     1      33.272 -38.926 -29.689  0.00  0.00    -0.297 N 
ATOM     18  C   UNL     1      34.219 -39.384 -28.650  0.00  0.00    +0.022 C 
ATOM     19  C   UNL     1      35.041 -40.592 -29.123  0.00  0.00    +0.060 C 
ATOM     20  O   UNL     1      35.893 -40.275 -30.232  0.00  0.00    -0.377 OA
ATOM     21  C   UNL     1      35.370 -39.231 -31.063  0.00  0.00    +0.060 C 
ATOM     22  C   UNL     1      33.834 -39.141 -31.040  0.00  0.00    +0.022 C 
ATOM     23  H   UNL     1      32.422 -39.489 -29.646  0.00  0.00    +0.000 HD
ENDBRANCH  16  17
ENDBRANCH  15  16
ENDBRANCH  13  15
ENDBRANCH   4  13
TORSDOF 5
ENDMDL
MODEL 9
REMARK VINA RESULT:    -6.966      6.068     10.470
REMARK INTER + INTRA:          -9.539
REMARK INTER:                  -8.779
REMARK INTRA:                  -0.760
REMARK UNBOUND:                -0.537
REMARK  Name = cpd268.pdb
REMARK  5 active torsions:
REMARK  status: ('A' for Active; 'I' for Inactive)
REMARK    1  A    between atoms: C_4  and  C_5
REMARK    2  A    between atoms: C_8  and  N_9
REMARK    3  A    between atoms: N_9  and  C_10
REMARK    4  A    between atoms: C_10  and  C_11
REMARK    5  A    between atoms: C_11  and  N_12
REMARK                            x       y       z     vdW  Elec       q    Type
REMARK                         _______ _______ _______ _____ _____    ______ ____
ROOT
ATOM      1  C   UNL     1      38.615 -36.909 -29.997  0.00  0.00    +0.093 A 
ATOM      2  C   UNL     1      38.206 -37.615 -28.873  0.00  0.00    -0.031 A 
ATOM      3  C   UNL     1      36.946 -37.367 -28.327  0.00  0.00    -0.018 A 
ATOM      4  C   UNL     1      36.121 -36.424 -28.917  0.00  0.00    +0.141 A 
ATOM      5  N   UNL     1      36.541 -35.748 -30.000  0.00  0.00    -0.134 NA
ATOM      6  N   UNL     1      37.785 -35.996 -30.548  0.00  0.00    -0.147 NA
ENDROOT
BRANCH   1  10
ATOM      7  C   UNL     1      42.408 -37.442 -31.965  0.00  0.00    -0.062 A 
ATOM      8  C   UNL     1      42.160 -38.081 -30.755  0.00  0.00    -0.061 A 
ATOM      9  C   UNL     1      40.930 -37.909 -30.109  0.00  0.00    -0.053 A 
ATOM     10  C   UNL     1      39.920 -37.098 -30.659  0.00  0.00    +0.002 A 
ATOM     11  C   UNL     1      40.204 -36.458 -31.882  0.00  0.00    -0.053 A 
ATOM     12  C   UNL     1      41.432 -36.629 -32.529  0.00  0.00    -0.061 A 
ENDBRANCH   1  10
BRANCH   4  13
ATOM     13  N   UNL     1      34.851 -36.137 -28.408  0.00  0.00    -0.326 N 
ATOM     14  H   UNL     1      34.364 -36.739 -27.799  0.00  0.00    +0.000 HD
BRANCH  13  15
ATOM     15  C   UNL     1      34.311 -34.852 -28.867  0.00  0.00    +0.023 C 
BRANCH  15  16
ATOM     16  C   UNL     1      33.058 -35.102 -29.739  0.00  0.00    +0.015 C 
BRANCH  16  17
ATOM     17  N   UNL     1      33.306 -36.021 -30.871  0.00  0.00    -0.297 N 
ATOM     18  C   UNL     1      33.667 -35.261 -32.087  0.00  0.00    +0.022 C 
ATOM     19  C   UNL     1      33.451 -36.091 -33.360  0.00  0.00    +0.060 C 
ATOM     20  O   UNL     1      32.070 -36.420 -33.572  0.00  0.00    -0.377 OA
ATOM     21  C   UNL     1      31.325 -36.532 -32.353  0.00  0.00    +0.060 C 
ATOM     22  C   UNL     1      32.184 -36.946 -31.146  0.00  0.00    +0.022 C 
ATOM     23  H   UNL     1      34.091 -36.609 -30.591  0.00  0.00    +0.000 HD
ENDBRANCH  16  17
ENDBRANCH  15  16
ENDBRANCH  13  15
ENDBRANCH   4  13
TORSDOF 5
ENDMDL
MODEL 10
REMARK VINA RESULT:    -6.964      6.612     11.706
REMARK INTER + INTRA:          -9.536
REMARK INTER:                  -9.052
REMARK INTRA:                  -0.484
REMARK UNBOUND:                -0.537
REMARK  Name = cpd268.pdb
REMARK  5 active torsions:
REMARK  status: ('A' for Active; 'I' for Inactive)
REMARK    1  A    between atoms: C_4  and  C_5
REMARK    2  A    between atoms: C_8  and  N_9
REMARK    3  A    between atoms: N_9  and  C_10
REMARK    4  A    between atoms: C_10  and  C_11
REMARK    5  A    between atoms: C_11  and  N_12
REMARK                            x       y       z     vdW  Elec       q    Type
REMARK                         _______ _______ _______ _____ _____    ______ ____
ROOT
ATOM      1  C   UNL     1      38.310 -36.575 -30.527  0.00  0.00    +0.093 A 
ATOM      2  C   UNL     1      37.536 -35.884 -31.451  0.00  0.00    -0.031 A 
ATOM      3  C   UNL     1      36.240 -35.498 -31.110  0.00  0.00    -0.018 A 
ATOM      4  C   UNL     1      35.745 -35.806 -29.853  0.00  0.00    +0.141 A 
ATOM      5  N   UNL     1      36.509 -36.482 -28.978  0.00  0.00    -0.134 NA
ATOM      6  N   UNL     1      37.796 -36.860 -29.309  0.00  0.00    -0.147 NA
ENDROOT
BRANCH   1  10
ATOM      7  C   UNL     1      42.343 -37.867 -31.308  0.00  0.00    -0.062 A 
ATOM      8  C   UNL     1      41.733 -38.193 -30.102  0.00  0.00    -0.061 A 
ATOM      9  C   UNL     1      40.423 -37.775 -29.841  0.00  0.00    -0.053 A 
ATOM     10  C   UNL     1      39.693 -37.022 -30.780  0.00  0.00    +0.002 A 
ATOM     11  C   UNL     1      40.341 -36.699 -31.988  0.00  0.00    -0.053 A 
ATOM     12  C   UNL     1      41.650 -37.117 -32.252  0.00  0.00    -0.061 A 
ENDBRANCH   1  10
BRANCH   4  13
ATOM     13  N   UNL     1      34.452 -35.445 -29.463  0.00  0.00    -0.326 N 
ATOM     14  H   UNL     1      33.853 -36.044 -28.961  0.00  0.00    +0.000 HD
BRANCH  13  15
ATOM     15  C   UNL     1      34.073 -34.088 -29.872  0.00  0.00    +0.023 C 
BRANCH  15  16
ATOM     16  C   UNL     1      32.839 -34.157 -30.803  0.00  0.00    +0.015 C 
BRANCH  16  17
ATOM     17  N   UNL     1      31.731 -33.277 -30.373  0.00  0.00    -0.297 N 
ATOM     18  C   UNL     1      30.970 -32.790 -31.543  0.00  0.00    +0.022 C 
ATOM     19  C   UNL     1      30.161 -31.528 -31.209  0.00  0.00    +0.060 C 
ATOM     20  O   UNL     1      30.997 -30.414 -30.868  0.00  0.00    -0.377 OA
ATOM     21  C   UNL     1      32.239 -30.805 -30.268  0.00  0.00    +0.060 C 
ATOM     22  C   UNL     1      32.161 -32.148 -29.520  0.00  0.00    +0.022 C 
ATOM     23  H   UNL     1      31.124 -33.853 -29.788  0.00  0.00    +0.000 HD
ENDBRANCH  16  17
ENDBRANCH  15  16
ENDBRANCH  13  15
ENDBRANCH   4  13
TORSDOF 5
ENDMDL
MODEL 11
REMARK VINA RESULT:    -6.880      7.127     10.804
REMARK INTER + INTRA:          -9.427
REMARK INTER:                  -8.959
REMARK INTRA:                  -0.468
REMARK UNBOUND:                -0.537
REMARK  Name = cpd268.pdb
REMARK  5 active torsions:
REMARK  status: ('A' for Active; 'I' for Inactive)
REMARK    1  A    between atoms: C_4  and  C_5
REMARK    2  A    between atoms: C_8  and  N_9
REMARK    3  A    between atoms: N_9  and  C_10
REMARK    4  A    between atoms: C_10  and  C_11
REMARK    5  A    between atoms: C_11  and  N_12
REMARK                            x       y       z     vdW  Elec       q    Type
REMARK                         _______ _______ _______ _____ _____    ______ ____
ROOT
ATOM      1  C   UNL     1      38.571 -37.032 -29.818  0.00  0.00    +0.093 A 
ATOM      2  C   UNL     1      38.368 -37.865 -28.724  0.00  0.00    -0.031 A 
ATOM      3  C   UNL     1      37.166 -37.793 -28.021  0.00  0.00    -0.018 A 
ATOM      4  C   UNL     1      36.191 -36.896 -28.426  0.00  0.00    +0.141 A 
ATOM      5  N   UNL     1      36.412 -36.096 -29.482  0.00  0.00    -0.134 NA
ATOM      6  N   UNL     1      37.599 -36.168 -30.187  0.00  0.00    -0.147 NA
ENDROOT
BRANCH   1  10
ATOM      7  C   UNL     1      42.134 -37.010 -32.238  0.00  0.00    -0.062 A 
ATOM      8  C   UNL     1      42.093 -37.767 -31.071  0.00  0.00    -0.061 A 
ATOM      9  C   UNL     1      40.940 -37.776 -30.279  0.00  0.00    -0.053 A 
ATOM     10  C   UNL     1      39.799 -37.032 -30.636  0.00  0.00    +0.002 A 
ATOM     11  C   UNL     1      39.874 -36.269 -31.818  0.00  0.00    -0.053 A 
ATOM     12  C   UNL     1      41.025 -36.259 -32.612  0.00  0.00    -0.061 A 
ENDBRANCH   1  10
BRANCH   4  13
ATOM     13  N   UNL     1      34.970 -36.784 -27.754  0.00  0.00    -0.326 N 
ATOM     14  H   UNL     1      34.426 -35.963 -27.758  0.00  0.00    +0.000 HD
BRANCH  13  15
ATOM     15  C   UNL     1      34.577 -38.005 -27.042  0.00  0.00    +0.023 C 
BRANCH  15  16
ATOM     16  C   UNL     1      34.462 -37.703 -25.528  0.00  0.00    +0.015 C 
BRANCH  16  17
ATOM     17  N   UNL     1      33.162 -38.102 -24.949  0.00  0.00    -0.297 N 
ATOM     18  C   UNL     1      32.056 -37.368 -25.600  0.00  0.00    +0.022 C 
ATOM     19  C   UNL     1      30.788 -37.365 -24.734  0.00  0.00    +0.060 C 
ATOM     20  O   UNL     1      30.971 -36.663 -23.496  0.00  0.00    -0.377 OA
ATOM     21  C   UNL     1      32.321 -36.707 -23.018  0.00  0.00    +0.060 C 
ATOM     22  C   UNL     1      33.093 -37.956 -23.478  0.00  0.00    +0.022 C 
ATOM     23  H   UNL     1      33.063 -39.101 -25.135  0.00  0.00    +0.000 HD
ENDBRANCH  16  17
ENDBRANCH  15  16
ENDBRANCH  13  15
ENDBRANCH   4  13
TORSDOF 5
ENDMDL
MODEL 12
REMARK VINA RESULT:    -6.854      5.925     11.027
REMARK INTER + INTRA:          -9.394
REMARK INTER:                  -8.907
REMARK INTRA:                  -0.488
REMARK UNBOUND:                -0.537
REMARK  Name = cpd268.pdb
REMARK  5 active torsions:
REMARK  status: ('A' for Active; 'I' for Inactive)
REMARK    1  A    between atoms: C_4  and  C_5
REMARK    2  A    between atoms: C_8  and  N_9
REMARK    3  A    between atoms: N_9  and  C_10
REMARK    4  A    between atoms: C_10  and  C_11
REMARK    5  A    between atoms: C_11  and  N_12
REMARK                            x       y       z     vdW  Elec       q    Type
REMARK                         _______ _______ _______ _____ _____    ______ ____
ROOT
ATOM      1  C   UNL     1      39.806 -36.434 -30.891  0.00  0.00    +0.093 A 
ATOM      2  C   UNL     1      38.810 -36.832 -30.008  0.00  0.00    -0.031 A 
ATOM      3  C   UNL     1      37.525 -36.307 -30.141  0.00  0.00    -0.018 A 
ATOM      4  C   UNL     1      37.259 -35.401 -31.154  0.00  0.00    +0.141 A 
ATOM      5  N   UNL     1      38.240 -35.025 -31.993  0.00  0.00    -0.134 NA
ATOM      6  N   UNL     1      39.513 -35.548 -31.869  0.00  0.00    -0.147 NA
ENDROOT
BRANCH   1  10
ATOM      7  C   UNL     1      43.844 -37.925 -30.739  0.00  0.00    -0.062 A 
ATOM      8  C   UNL     1      43.604 -36.614 -31.138  0.00  0.00    -0.061 A 
ATOM      9  C   UNL     1      42.294 -36.124 -31.192  0.00  0.00    -0.053 A 
ATOM     10  C   UNL     1      41.194 -36.933 -30.846  0.00  0.00    +0.002 A 
ATOM     11  C   UNL     1      41.468 -38.258 -30.455  0.00  0.00    -0.053 A 
ATOM     12  C   UNL     1      42.777 -38.749 -30.400  0.00  0.00    -0.061 A 
ENDBRANCH   1  10
BRANCH   4  13
ATOM     13  N   UNL     1      35.989 -34.844 -31.329  0.00  0.00    -0.326 N 
ATOM     14  H   UNL     1      35.784 -34.174 -32.022  0.00  0.00    +0.000 HD
BRANCH  13  15
ATOM     15  C   UNL     1      34.990 -35.351 -30.382  0.00  0.00    +0.023 C 
BRANCH  15  16
ATOM     16  C   UNL     1      33.589 -35.306 -31.038  0.00  0.00    +0.015 C 
BRANCH  16  17
ATOM     17  N   UNL     1      33.230 -33.969 -31.559  0.00  0.00    -0.297 N 
ATOM     18  C   UNL     1      32.813 -33.077 -30.457  0.00  0.00    +0.022 C 
ATOM     19  C   UNL     1      31.983 -31.891 -30.970  0.00  0.00    +0.060 C 
ATOM     20  O   UNL     1      30.739 -32.303 -31.553  0.00  0.00    -0.377 OA
ATOM     21  C   UNL     1      30.798 -33.610 -32.139  0.00  0.00    +0.060 C 
ATOM     22  C   UNL     1      32.204 -34.000 -32.625  0.00  0.00    +0.022 C 
ATOM     23  H   UNL     1      34.075 -33.600 -31.995  0.00  0.00    +0.000 HD
ENDBRANCH  16  17
ENDBRANCH  15  16
ENDBRANCH  13  15
ENDBRANCH   4  13
TORSDOF 5
ENDMDL
MODEL 13
REMARK VINA RESULT:    -6.799      5.323     10.294
REMARK INTER + INTRA:          -9.324
REMARK INTER:                  -8.786
REMARK INTRA:                  -0.537
REMARK UNBOUND:                -0.537
REMARK  Name = cpd268.pdb
REMARK  5 active torsions:
REMARK  status: ('A' for Active; 'I' for Inactive)
REMARK    1  A    between atoms: C_4  and  C_5
REMARK    2  A    between atoms: C_8  and  N_9
REMARK    3  A    between atoms: N_9  and  C_10
REMARK    4  A    between atoms: C_10  and  C_11
REMARK    5  A    between atoms: C_11  and  N_12
REMARK                            x       y       z     vdW  Elec       q    Type
REMARK                         _______ _______ _______ _____ _____    ______ ____
ROOT
ATOM      1  C   UNL     1      39.989 -36.199 -31.075  0.00  0.00    +0.093 A 
ATOM      2  C   UNL     1      38.872 -36.812 -30.522  0.00  0.00    -0.031 A 
ATOM      3  C   UNL     1      37.615 -36.230 -30.692  0.00  0.00    -0.018 A 
ATOM      4  C   UNL     1      37.500 -35.054 -31.414  0.00  0.00    +0.141 A 
ATOM      5  N   UNL     1      38.596 -34.475 -31.934  0.00  0.00    -0.134 NA
ATOM      6  N   UNL     1      39.842 -35.052 -31.774  0.00  0.00    -0.147 NA
ENDROOT
BRANCH   1  10
ATOM      7  C   UNL     1      43.976 -37.793 -30.734  0.00  0.00    -0.062 A 
ATOM      8  C   UNL     1      43.791 -36.444 -31.021  0.00  0.00    -0.061 A 
ATOM      9  C   UNL     1      42.498 -35.921 -31.136  0.00  0.00    -0.053 A 
ATOM     10  C   UNL     1      41.361 -36.733 -30.964  0.00  0.00    +0.002 A 
ATOM     11  C   UNL     1      41.580 -38.096 -30.684  0.00  0.00    -0.053 A 
ATOM     12  C   UNL     1      42.871 -38.621 -30.568  0.00  0.00    -0.061 A 
ENDBRANCH   1  10
BRANCH   4  13
ATOM     13  N   UNL     1      36.265 -34.429 -31.611  0.00  0.00    -0.326 N 
ATOM     14  H   UNL     1      36.010 -33.992 -32.455  0.00  0.00    +0.000 HD
BRANCH  13  15
ATOM     15  C   UNL     1      35.385 -34.487 -30.439  0.00  0.00    +0.023 C 
BRANCH  15  16
ATOM     16  C   UNL     1      33.929 -34.186 -30.872  0.00  0.00    +0.015 C 
BRANCH  16  17
ATOM     17  N   UNL     1      32.916 -34.765 -29.964  0.00  0.00    -0.297 N 
ATOM     18  C   UNL     1      33.538 -35.177 -28.688  0.00  0.00    +0.022 C 
ATOM     19  C   UNL     1      32.672 -36.200 -27.938  0.00  0.00    +0.060 C 
ATOM     20  O   UNL     1      32.537 -37.434 -28.656  0.00  0.00    -0.377 OA
ATOM     21  C   UNL     1      32.611 -37.270 -30.078  0.00  0.00    +0.060 C 
ATOM     22  C   UNL     1      32.151 -35.883 -30.558  0.00  0.00    +0.022 C 
ATOM     23  H   UNL     1      32.238 -34.023 -29.789  0.00  0.00    +0.000 HD
ENDBRANCH  16  17
ENDBRANCH  15  16
ENDBRANCH  13  15
ENDBRANCH   4  13
TORSDOF 5
ENDMDL
MODEL 14
REMARK VINA RESULT:    -6.622      8.269     12.889
REMARK INTER + INTRA:          -9.094
REMARK INTER:                  -8.156
REMARK INTRA:                  -0.938
REMARK UNBOUND:                -0.537
REMARK  Name = cpd268.pdb
REMARK  5 active torsions:
REMARK  status: ('A' for Active; 'I' for Inactive)
REMARK    1  A    between atoms: C_4  and  C_5
REMARK    2  A    between atoms: C_8  and  N_9
REMARK    3  A    between atoms: N_9  and  C_10
REMARK    4  A    between atoms: C_10  and  C_11
REMARK    5  A    between atoms: C_11  and  N_12
REMARK                            x       y       z     vdW  Elec       q    Type
REMARK                         _______ _______ _______ _____ _____    ______ ____
ROOT
ATOM      1  C   UNL     1      35.473 -33.873 -30.542  0.00  0.00    +0.093 A 
ATOM      2  C   UNL     1      34.549 -33.689 -29.520  0.00  0.00    -0.031 A 
ATOM      3  C   UNL     1      33.666 -32.611 -29.580  0.00  0.00    -0.018 A 
ATOM      4  C   UNL     1      33.720 -31.744 -30.659  0.00  0.00    +0.141 A 
ATOM      5  N   UNL     1      34.627 -31.938 -31.631  0.00  0.00    -0.134 NA
ATOM      6  N   UNL     1      35.499 -33.008 -31.580  0.00  0.00    -0.147 NA
ENDROOT
BRANCH   1  10
ATOM      7  C   UNL     1      38.297 -37.124 -30.621  0.00  0.00    -0.062 A 
ATOM      8  C   UNL     1      38.360 -36.128 -31.590  0.00  0.00    -0.061 A 
ATOM      9  C   UNL     1      37.444 -35.070 -31.571  0.00  0.00    -0.053 A 
ATOM     10  C   UNL     1      36.446 -34.983 -30.583  0.00  0.00    +0.002 A 
ATOM     11  C   UNL     1      36.401 -36.012 -29.621  0.00  0.00    -0.053 A 
ATOM     12  C   UNL     1      37.316 -37.069 -29.638  0.00  0.00    -0.061 A 
ENDBRANCH   1  10
BRANCH   4  13
ATOM     13  N   UNL     1      32.859 -30.647 -30.765  0.00  0.00    -0.326 N 
ATOM     14  H   UNL     1      33.121 -29.795 -31.182  0.00  0.00    +0.000 HD
BRANCH  13  15
ATOM     15  C   UNL     1      31.529 -30.888 -30.195  0.00  0.00    +0.023 C 
BRANCH  15  16
ATOM     16  C   UNL     1      30.529 -31.201 -31.334  0.00  0.00    +0.015 C 
BRANCH  16  17
ATOM     17  N   UNL     1      29.886 -32.525 -31.201  0.00  0.00    -0.297 N 
ATOM     18  C   UNL     1      30.103 -33.074 -29.846  0.00  0.00    +0.022 C 
ATOM     19  C   UNL     1      29.901 -34.596 -29.811  0.00  0.00    +0.060 C 
ATOM     20  O   UNL     1      30.864 -35.295 -30.612  0.00  0.00    -0.377 OA
ATOM     21  C   UNL     1      31.327 -34.530 -31.731  0.00  0.00    +0.060 C 
ATOM     22  C   UNL     1      30.303 -33.498 -32.234  0.00  0.00    +0.022 C 
ATOM     23  H   UNL     1      28.888 -32.370 -31.349  0.00  0.00    +0.000 HD
ENDBRANCH  16  17
ENDBRANCH  15  16
ENDBRANCH  13  15
ENDBRANCH   4  13
TORSDOF 5
ENDMDL
MODEL 15
REMARK VINA RESULT:    -6.604      6.995     11.736
REMARK INTER + INTRA:          -9.072
REMARK INTER:                  -8.510
REMARK INTRA:                  -0.561
REMARK UNBOUND:                -0.537
REMARK  Name = cpd268.pdb
REMARK  5 active torsions:
REMARK  status: ('A' for Active; 'I' for Inactive)
REMARK    1  A    between atoms: C_4  and  C_5
REMARK    2  A    between atoms: C_8  and  N_9
REMARK    3  A    between atoms: N_9  and  C_10
REMARK    4  A    between atoms: C_10  and  C_11
REMARK    5  A    between atoms: C_11  and  N_12
REMARK                            x       y       z     vdW  Elec       q    Type
REMARK                         _______ _______ _______ _____ _____    ______ ____
ROOT
ATOM      1  C   UNL     1      37.597 -36.352 -30.223  0.00  0.00    +0.093 A 
ATOM      2  C   UNL     1      37.232 -37.141 -29.139  0.00  0.00    -0.031 A 
ATOM      3  C   UNL     1      35.946 -37.028 -28.610  0.00  0.00    -0.018 A 
ATOM      4  C   UNL     1      35.052 -36.135 -29.176  0.00  0.00    +0.141 A 
ATOM      5  N   UNL     1      35.429 -35.377 -30.220  0.00  0.00    -0.134 NA
ATOM      6  N   UNL     1      36.699 -35.491 -30.752  0.00  0.00    -0.147 NA
ENDROOT
BRANCH   1  10
ATOM      7  C   UNL     1      41.490 -36.497 -32.059  0.00  0.00    -0.062 A 
ATOM      8  C   UNL     1      40.416 -35.952 -32.754  0.00  0.00    -0.061 A 
ATOM      9  C   UNL     1      39.148 -35.904 -32.165  0.00  0.00    -0.053 A 
ATOM     10  C   UNL     1      38.925 -36.398 -30.866  0.00  0.00    +0.002 A 
ATOM     11  C   UNL     1      40.030 -36.952 -30.190  0.00  0.00    -0.053 A 
ATOM     12  C   UNL     1      41.298 -37.000 -30.777  0.00  0.00    -0.061 A 
ENDBRANCH   1  10
BRANCH   4  13
ATOM     13  N   UNL     1      33.753 -35.981 -28.682  0.00  0.00    -0.326 N 
ATOM     14  H   UNL     1      33.450 -36.374 -27.831  0.00  0.00    +0.000 HD
BRANCH  13  15
ATOM     15  C   UNL     1      32.884 -35.181 -29.552  0.00  0.00    +0.023 C 
BRANCH  15  16
ATOM     16  C   UNL     1      32.417 -33.917 -28.790  0.00  0.00    +0.015 C 
BRANCH  16  17
ATOM     17  N   UNL     1      32.333 -32.715 -29.647  0.00  0.00    -0.297 N 
ATOM     18  C   UNL     1      31.151 -31.903 -29.288  0.00  0.00    +0.022 C 
ATOM     19  C   UNL     1      30.748 -30.953 -30.425  0.00  0.00    +0.060 C 
ATOM     20  O   UNL     1      30.324 -31.655 -31.602  0.00  0.00    -0.377 OA
ATOM     21  C   UNL     1      30.954 -32.933 -31.752  0.00  0.00    +0.060 C 
ATOM     22  C   UNL     1      32.344 -33.012 -31.096  0.00  0.00    +0.022 C 
ATOM     23  H   UNL     1      33.182 -32.178 -29.465  0.00  0.00    +0.000 HD
ENDBRANCH  16  17
ENDBRANCH  15  16
ENDBRANCH  13  15
ENDBRANCH   4  13
TORSDOF 5
ENDMDL
MODEL 16
REMARK VINA RESULT:    -6.578      5.932      9.716
REMARK INTER + INTRA:          -9.038
REMARK INTER:                  -8.362
REMARK INTRA:                  -0.676
REMARK UNBOUND:                -0.537
REMARK  Name = cpd268.pdb
REMARK  5 active torsions:
REMARK  status: ('A' for Active; 'I' for Inactive)
REMARK    1  A    between atoms: C_4  and  C_5
REMARK    2  A    between atoms: C_8  and  N_9
REMARK    3  A    between atoms: N_9  and  C_10
REMARK    4  A    between atoms: C_10  and  C_11
REMARK    5  A    between atoms: C_11  and  N_12
REMARK                            x       y       z     vdW  Elec       q    Type
REMARK                         _______ _______ _______ _____ _____    ______ ____
ROOT
ATOM      1  C   UNL     1      38.504 -36.920 -29.987  0.00  0.00    +0.093 A 
ATOM      2  C   UNL     1      37.409 -36.141 -30.341  0.00  0.00    -0.031 A 
ATOM      3  C   UNL     1      36.275 -36.141 -29.528  0.00  0.00    -0.018 A 
ATOM      4  C   UNL     1      36.260 -36.914 -28.379  0.00  0.00    +0.141 A 
ATOM      5  N   UNL     1      37.328 -37.666 -28.061  0.00  0.00    -0.134 NA
ATOM      6  N   UNL     1      38.456 -37.663 -28.859  0.00  0.00    -0.147 NA
ENDROOT
BRANCH   1  10
ATOM      7  C   UNL     1      42.132 -37.095 -32.301  0.00  0.00    -0.062 A 
ATOM      8  C   UNL     1      42.043 -37.788 -31.098  0.00  0.00    -0.061 A 
ATOM      9  C   UNL     1      40.868 -37.733 -30.340  0.00  0.00    -0.053 A 
ATOM     10  C   UNL     1      39.754 -36.987 -30.768  0.00  0.00    +0.002 A 
ATOM     11  C   UNL     1      39.877 -36.288 -31.986  0.00  0.00    -0.053 A 
ATOM     12  C   UNL     1      41.051 -36.343 -32.745  0.00  0.00    -0.061 A 
ENDBRANCH   1  10
BRANCH   4  13
ATOM     13  N   UNL     1      35.148 -36.952 -27.532  0.00  0.00    -0.326 N 
ATOM     14  H   UNL     1      35.084 -36.427 -26.701  0.00  0.00    +0.000 HD
BRANCH  13  15
ATOM     15  C   UNL     1      34.084 -37.848 -27.999  0.00  0.00    +0.023 C 
BRANCH  15  16
ATOM     16  C   UNL     1      34.260 -39.240 -27.345  0.00  0.00    +0.015 C 
BRANCH  16  17
ATOM     17  N   UNL     1      34.298 -40.347 -28.324  0.00  0.00    -0.297 N 
ATOM     18  C   UNL     1      34.712 -39.849 -29.654  0.00  0.00    +0.022 C 
ATOM     19  C   UNL     1      34.299 -40.814 -30.774  0.00  0.00    +0.060 C 
ATOM     20  O   UNL     1      32.875 -40.939 -30.894  0.00  0.00    -0.377 OA
ATOM     21  C   UNL     1      32.186 -40.741 -29.652  0.00  0.00    +0.060 C 
ATOM     22  C   UNL     1      33.032 -41.105 -28.419  0.00  0.00    +0.022 C 
ATOM     23  H   UNL     1      34.994 -41.007 -27.976  0.00  0.00    +0.000 HD
ENDBRANCH  16  17
ENDBRANCH  15  16
ENDBRANCH  13  15
ENDBRANCH   4  13
TORSDOF 5
ENDMDL
MODEL 17
REMARK VINA RESULT:    -6.518      6.086      9.877
REMARK INTER + INTRA:          -8.960
REMARK INTER:                  -8.155
REMARK INTRA:                  -0.804
REMARK UNBOUND:                -0.537
REMARK  Name = cpd268.pdb
REMARK  5 active torsions:
REMARK  status: ('A' for Active; 'I' for Inactive)
REMARK    1  A    between atoms: C_4  and  C_5
REMARK    2  A    between atoms: C_8  and  N_9
REMARK    3  A    between atoms: N_9  and  C_10
REMARK    4  A    between atoms: C_10  and  C_11
REMARK    5  A    between atoms: C_11  and  N_12
REMARK                            x       y       z     vdW  Elec       q    Type
REMARK                         _______ _______ _______ _____ _____    ______ ____
ROOT
ATOM      1  C   UNL     1      37.821 -36.037 -31.076  0.00  0.00    +0.093 A 
ATOM      2  C   UNL     1      37.149 -34.878 -31.443  0.00  0.00    -0.031 A 
ATOM      3  C   UNL     1      35.841 -34.674 -31.004  0.00  0.00    -0.018 A 
ATOM      4  C   UNL     1      35.234 -35.629 -30.205  0.00  0.00    +0.141 A 
ATOM      5  N   UNL     1      35.900 -36.747 -29.869  0.00  0.00    -0.134 NA
ATOM      6  N   UNL     1      37.199 -36.949 -30.296  0.00  0.00    -0.147 NA
ENDROOT
BRANCH   1  10
ATOM      7  C   UNL     1      41.875 -36.958 -32.204  0.00  0.00    -0.062 A 
ATOM      8  C   UNL     1      41.065 -36.224 -33.066  0.00  0.00    -0.061 A 
ATOM      9  C   UNL     1      39.747 -35.924 -32.706  0.00  0.00    -0.053 A 
ATOM     10  C   UNL     1      39.208 -36.348 -31.477  0.00  0.00    +0.002 A 
ATOM     11  C   UNL     1      40.048 -37.097 -30.630  0.00  0.00    -0.053 A 
ATOM     12  C   UNL     1      41.367 -37.397 -30.987  0.00  0.00    -0.061 A 
ENDBRANCH   1  10
BRANCH   4  13
ATOM     13  N   UNL     1      33.924 -35.475 -29.741  0.00  0.00    -0.326 N 
ATOM     14  H   UNL     1      33.134 -35.526 -30.328  0.00  0.00    +0.000 HD
BRANCH  13  15
ATOM     15  C   UNL     1      33.838 -35.229 -28.298  0.00  0.00    +0.023 C 
BRANCH  15  16
ATOM     16  C   UNL     1      33.214 -36.463 -27.602  0.00  0.00    +0.015 C 
BRANCH  16  17
ATOM     17  N   UNL     1      34.154 -37.595 -27.465  0.00  0.00    -0.297 N 
ATOM     18  C   UNL     1      33.577 -38.823 -28.052  0.00  0.00    +0.022 C 
ATOM     19  C   UNL     1      34.263 -40.087 -27.513  0.00  0.00    +0.060 C 
ATOM     20  O   UNL     1      34.056 -40.264 -26.105  0.00  0.00    -0.377 OA
ATOM     21  C   UNL     1      33.890 -39.027 -25.400  0.00  0.00    +0.060 C 
ATOM     22  C   UNL     1      34.598 -37.839 -26.074  0.00  0.00    +0.022 C 
ATOM     23  H   UNL     1      34.992 -37.331 -27.983  0.00  0.00    +0.000 HD
ENDBRANCH  16  17
ENDBRANCH  15  16
ENDBRANCH  13  15
ENDBRANCH   4  13
TORSDOF 5
ENDMDL
MODEL 18
REMARK VINA RESULT:    -6.377      9.308     14.617
REMARK INTER + INTRA:          -8.778
REMARK INTER:                  -8.332
REMARK INTRA:                  -0.446
REMARK UNBOUND:                -0.537
REMARK  Name = cpd268.pdb
REMARK  5 active torsions:
REMARK  status: ('A' for Active; 'I' for Inactive)
REMARK    1  A    between atoms: C_4  and  C_5
REMARK    2  A    between atoms: C_8  and  N_9
REMARK    3  A    between atoms: N_9  and  C_10
REMARK    4  A    between atoms: C_10  and  C_11
REMARK    5  A    between atoms: C_11  and  N_12
REMARK                            x       y       z     vdW  Elec       q    Type
REMARK                         _______ _______ _______ _____ _____    ______ ____
ROOT
ATOM      1  C   UNL     1      35.254 -33.956 -30.507  0.00  0.00    +0.093 A 
ATOM      2  C   UNL     1      34.144 -33.908 -29.673  0.00  0.00    -0.031 A 
ATOM      3  C   UNL     1      33.219 -32.875 -29.820  0.00  0.00    -0.018 A 
ATOM      4  C   UNL     1      33.419 -31.914 -30.797  0.00  0.00    +0.141 A 
ATOM      5  N   UNL     1      34.504 -31.976 -31.588  0.00  0.00    -0.134 NA
ATOM      6  N   UNL     1      35.419 -33.003 -31.451  0.00  0.00    -0.147 NA
ENDROOT
BRANCH   1  10
ATOM      7  C   UNL     1      38.254 -37.039 -30.285  0.00  0.00    -0.062 A 
ATOM      8  C   UNL     1      38.343 -36.054 -31.263  0.00  0.00    -0.061 A 
ATOM      9  C   UNL     1      37.370 -35.051 -31.343  0.00  0.00    -0.053 A 
ATOM     10  C   UNL     1      36.288 -35.008 -30.444  0.00  0.00    +0.002 A 
ATOM     11  C   UNL     1      36.219 -36.023 -29.471  0.00  0.00    -0.053 A 
ATOM     12  C   UNL     1      37.191 -37.026 -29.389  0.00  0.00    -0.061 A 
ENDBRANCH   1  10
BRANCH   4  13
ATOM     13  N   UNL     1      32.523 -30.857 -30.984  0.00  0.00    -0.326 N 
ATOM     14  H   UNL     1      32.751 -30.038 -31.481  0.00  0.00    +0.000 HD
BRANCH  13  15
ATOM     15  C   UNL     1      31.212 -31.083 -30.367  0.00  0.00    +0.023 C 
BRANCH  15  16
ATOM     16  C   UNL     1      30.248 -29.943 -30.775  0.00  0.00    +0.015 C 
BRANCH  16  17
ATOM     17  N   UNL     1      29.687 -29.208 -29.621  0.00  0.00    -0.297 N 
ATOM     18  C   UNL     1      29.057 -30.145 -28.666  0.00  0.00    +0.022 C 
ATOM     19  C   UNL     1      28.060 -29.430 -27.743  0.00  0.00    +0.060 C 
ATOM     20  O   UNL     1      26.944 -28.884 -28.459  0.00  0.00    -0.377 OA
ATOM     21  C   UNL     1      27.266 -28.511 -29.805  0.00  0.00    +0.060 C 
ATOM     22  C   UNL     1      28.745 -28.132 -29.998  0.00  0.00    +0.022 C 
ATOM     23  H   UNL     1      30.477 -28.744 -29.171  0.00  0.00    +0.000 HD
ENDBRANCH  16  17
ENDBRANCH  15  16
ENDBRANCH  13  15
ENDBRANCH   4  13
TORSDOF 5
ENDMDL
MODEL 19
REMARK VINA RESULT:    -6.276      7.158     12.058
REMARK INTER + INTRA:          -8.648
REMARK INTER:                  -8.082
REMARK INTRA:                  -0.565
REMARK UNBOUND:                -0.537
REMARK  Name = cpd268.pdb
REMARK  5 active torsions:
REMARK  status: ('A' for Active; 'I' for Inactive)
REMARK    1  A    between atoms: C_4  and  C_5
REMARK    2  A    between atoms: C_8  and  N_9
REMARK    3  A    between atoms: N_9  and  C_10
REMARK    4  A    between atoms: C_10  and  C_11
REMARK    5  A    between atoms: C_11  and  N_12
REMARK                            x       y       z     vdW  Elec       q    Type
REMARK                         _______ _______ _______ _____ _____    ______ ____
ROOT
ATOM      1  C   UNL     1      36.862 -36.803 -29.638  0.00  0.00    +0.093 A 
ATOM      2  C   UNL     1      36.036 -37.127 -28.568  0.00  0.00    -0.031 A 
ATOM      3  C   UNL     1      34.694 -36.750 -28.598  0.00  0.00    -0.018 A 
ATOM      4  C   UNL     1      34.203 -36.061 -29.695  0.00  0.00    +0.141 A 
ATOM      5  N   UNL     1      35.022 -35.751 -30.715  0.00  0.00    -0.134 NA
ATOM      6  N   UNL     1      36.351 -36.130 -30.693  0.00  0.00    -0.147 NA
ENDROOT
BRANCH   1  10
ATOM      7  C   UNL     1      41.033 -37.861 -29.816  0.00  0.00    -0.062 A 
ATOM      8  C   UNL     1      40.466 -37.102 -30.835  0.00  0.00    -0.061 A 
ATOM      9  C   UNL     1      39.111 -36.757 -30.785  0.00  0.00    -0.053 A 
ATOM     10  C   UNL     1      38.292 -37.160 -29.713  0.00  0.00    +0.002 A 
ATOM     11  C   UNL     1      38.891 -37.935 -28.701  0.00  0.00    -0.053 A 
ATOM     12  C   UNL     1      40.246 -38.280 -28.749  0.00  0.00    -0.061 A 
ENDBRANCH   1  10
BRANCH   4  13
ATOM     13  N   UNL     1      32.867 -35.658 -29.773  0.00  0.00    -0.326 N 
ATOM     14  H   UNL     1      32.381 -35.560 -30.624  0.00  0.00    +0.000 HD
BRANCH  13  15
ATOM     15  C   UNL     1      32.256 -35.394 -28.465  0.00  0.00    +0.023 C 
BRANCH  15  16
ATOM     16  C   UNL     1      32.279 -33.872 -28.184  0.00  0.00    +0.015 C 
BRANCH  16  17
ATOM     17  N   UNL     1      31.582 -33.075 -29.216  0.00  0.00    -0.297 N 
ATOM     18  C   UNL     1      32.485 -32.047 -29.776  0.00  0.00    +0.022 C 
ATOM     19  C   UNL     1      31.704 -30.914 -30.456  0.00  0.00    +0.060 C 
ATOM     20  O   UNL     1      30.893 -30.176 -29.532  0.00  0.00    -0.377 OA
ATOM     21  C   UNL     1      30.444 -30.964 -28.422  0.00  0.00    +0.060 C 
ATOM     22  C   UNL     1      30.320 -32.463 -28.747  0.00  0.00    +0.022 C 
ATOM     23  H   UNL     1      31.318 -33.733 -29.950  0.00  0.00    +0.000 HD
ENDBRANCH  16  17
ENDBRANCH  15  16
ENDBRANCH  13  15
ENDBRANCH   4  13
TORSDOF 5
ENDMDL
MODEL 20
REMARK VINA RESULT:    -6.011      8.078     13.296
REMARK INTER + INTRA:          -8.305
REMARK INTER:                  -7.870
REMARK INTRA:                  -0.435
REMARK UNBOUND:                -0.537
REMARK  Name = cpd268.pdb
REMARK  5 active torsions:
REMARK  status: ('A' for Active; 'I' for Inactive)
REMARK    1  A    between atoms: C_4  and  C_5
REMARK    2  A    between atoms: C_8  and  N_9
REMARK    3  A    between atoms: N_9  and  C_10
REMARK    4  A    between atoms: C_10  and  C_11
REMARK    5  A    between atoms: C_11  and  N_12
REMARK                            x       y       z     vdW  Elec       q    Type
REMARK                         _______ _______ _______ _____ _____    ______ ____
ROOT
ATOM      1  C   UNL     1      36.532 -35.506 -30.795  0.00  0.00    +0.093 A 
ATOM      2  C   UNL     1      36.264 -34.146 -30.892  0.00  0.00    -0.031 A 
ATOM      3  C   UNL     1      34.941 -33.704 -30.879  0.00  0.00    -0.018 A 
ATOM      4  C   UNL     1      33.915 -34.627 -30.767  0.00  0.00    +0.141 A 
ATOM      5  N   UNL     1      34.197 -35.938 -30.683  0.00  0.00    -0.134 NA
ATOM      6  N   UNL     1      35.507 -36.380 -30.687  0.00  0.00    -0.147 NA
ENDROOT
BRANCH   1  10
ATOM      7  C   UNL     1      40.493 -37.195 -30.738  0.00  0.00    -0.062 A 
ATOM      8  C   UNL     1      40.126 -36.323 -31.758  0.00  0.00    -0.061 A 
ATOM      9  C   UNL     1      38.840 -35.773 -31.784  0.00  0.00    -0.053 A 
ATOM     10  C   UNL     1      37.892 -36.079 -30.790  0.00  0.00    +0.002 A 
ATOM     11  C   UNL     1      38.289 -36.972 -29.775  0.00  0.00    -0.053 A 
ATOM     12  C   UNL     1      39.575 -37.522 -29.746  0.00  0.00    -0.061 A 
ENDBRANCH   1  10
BRANCH   4  13
ATOM     13  N   UNL     1      32.572 -34.237 -30.753  0.00  0.00    -0.326 N 
ATOM     14  H   UNL     1      31.864 -34.721 -31.237  0.00  0.00    +0.000 HD
BRANCH  13  15
ATOM     15  C   UNL     1      32.318 -33.037 -29.947  0.00  0.00    +0.023 C 
BRANCH  15  16
ATOM     16  C   UNL     1      31.755 -31.917 -30.855  0.00  0.00    +0.015 C 
BRANCH  16  17
ATOM     17  N   UNL     1      30.618 -31.190 -30.251  0.00  0.00    -0.297 N 
ATOM     18  C   UNL     1      29.441 -32.076 -30.131  0.00  0.00    +0.022 C 
ATOM     19  C   UNL     1      28.139 -31.274 -29.987  0.00  0.00    +0.060 C 
ATOM     20  O   UNL     1      27.847 -30.489 -31.151  0.00  0.00    -0.377 OA
ATOM     21  C   UNL     1      29.022 -30.073 -31.859  0.00  0.00    +0.060 C 
ATOM     22  C   UNL     1      30.264 -29.941 -30.960  0.00  0.00    +0.022 C 
ATOM     23  H   UNL     1      30.927 -30.906 -29.321  0.00  0.00    +0.000 HD
ENDBRANCH  16  17
ENDBRANCH  15  16
ENDBRANCH  13  15
ENDBRANCH   4  13
TORSDOF 5
ENDMDL
