@<TRIPOS>MOLECULE
*****
 21 23 0 0 0
SMALL
GASTEIGER

@<TRIPOS>ATOM
      1 C          -0.8660    0.5000    0.0000 C.ar    1  UNL1        0.0000
      2 C          -0.8660    1.5000    0.0000 C.ar    1  UNL1        0.0000
      3 C           0.0000    2.0000    0.0000 C.ar    1  UNL1        0.0016
      4 C           0.8660    1.5000    0.0000 C.ar    1  UNL1        0.0194
      5 C           1.7321    2.0000    0.0000 C.ar    1  UNL1        0.1030
      6 C           1.7321    3.0000    0.0000 C.ar    1  UNL1        0.0239
      7 C           2.5981    3.5000    0.0000 C.ar    1  UNL1        0.0392
      8 C           3.4641    3.0000    0.0000 C.ar    1  UNL1        0.1693
      9 N           4.3301    3.5000    0.0000 N.pl3   1  UNL1       -0.2174
     10 C           4.3301    4.5000    0.0000 C.3     1  UNL1        0.1312
     11 C           5.1962    5.0000    0.0000 C.3     1  UNL1        0.0959
     12 N           6.0622    4.5000    0.0000 N.3     1  UNL1       -0.2669
     13 C           6.9282    5.0000    0.0000 C.3     1  UNL1        0.1047
     14 C           7.7942    4.5000    0.0000 C.3     1  UNL1        0.1595
     15 O           7.7942    3.5000    0.0000 O.3     1  UNL1       -0.3508
     16 C           6.9282    3.0000    0.0000 C.3     1  UNL1        0.1595
     17 C           6.0622    3.5000    0.0000 C.3     1  UNL1        0.1047
     18 N           3.4641    2.0000    0.0000 N.ar    1  UNL1       -0.1314
     19 N           2.5981    1.5000    0.0000 N.ar    1  UNL1       -0.1467
     20 C           0.8660    0.5000    0.0000 C.ar    1  UNL1        0.0016
     21 C           0.0000    0.0000    0.0000 C.ar    1  UNL1        0.0000
@<TRIPOS>BOND
     1     1     2   ar
     2     2     3   ar
     3     3     4   ar
     4     4     5    1
     5     5     6   ar
     6     6     7   ar
     7     7     8   ar
     8     8     9    1
     9     9    10    1
    10    10    11    1
    11    11    12    1
    12    12    13    1
    13    13    14    1
    14    14    15    1
    15    15    16    1
    16    16    17    1
    17    12    17    1
    18     8    18   ar
    19    18    19   ar
    20     5    19   ar
    21     4    20   ar
    22    20    21   ar
    23     1    21   ar
