REMARK  Name = cpd165.pdb
REMARK  1 active torsions:
REMARK  status: ('A' for Active; 'I' for Inactive)
REMARK    1  A    between atoms: C_1  and  C_2
REMARK                            x       y       z     vdW  Elec       q    Type
REMARK                         _______ _______ _______ _____ _____    ______ ____
ROOT
ATOM      1  C   UNL     1       0.466  -4.288  -0.216  0.00  0.00    -0.044 C 
ATOM      2  C   UNL     1       0.362  -2.811  -0.461  0.00  0.00    -0.074 C 
ATOM      3  C   UNL     1       0.800  -2.239  -1.597  0.00  0.00    -0.081 C 
ATOM      4  C   UNL     1       0.707  -0.754  -1.869  0.00  0.00    -0.013 C 
ATOM      5  C   UNL     1       2.053  -0.079  -1.536  0.00  0.00    -0.005 C 
ATOM      6  C   UNL     1       2.236   0.175  -0.055  0.00  0.00    +0.025 A 
ATOM      7  N   UNL     1       3.495   0.578   0.339  0.00  0.00    -0.326 N 
ATOM      8  C   UNL     1       3.861   0.834   1.634  0.00  0.00    +0.249 A 
ATOM      9  O   UNL     1       4.989   1.193   1.950  0.00  0.00    -0.268 OA
ATOM     10  C   UNL     1       2.803   0.638   2.649  0.00  0.00    +0.003 A 
ATOM     11  C   UNL     1       1.581   0.245   2.267  0.00  0.00    -0.050 A 
ATOM     12  C   UNL     1       1.252   0.010   0.862  0.00  0.00    -0.007 A 
ATOM     13  C   UNL     1      -0.182  -0.439   0.459  0.00  0.00    +0.053 C 
ATOM     14  C   UNL     1      -0.271  -1.994   0.650  0.00  0.00    -0.009 C 
ATOM     15  N   UNL     1      -1.204   0.275   1.267  0.00  0.00    -0.306 N 
ATOM     16  C   UNL     1      -2.588   0.077   0.824  0.00  0.00    -0.003 C 
ATOM     17  C   UNL     1      -2.805   0.382  -0.654  0.00  0.00    -0.040 C 
ATOM     18  C   UNL     1      -1.811  -0.372  -1.528  0.00  0.00    -0.047 C 
ATOM     19  C   UNL     1      -0.391  -0.064  -1.038  0.00  0.00    -0.012 C 
ATOM     20  H   UNL     1       4.179   0.690  -0.360  0.00  0.00    +0.000 HD
ATOM     21  H   UNL     1      -0.998   1.273   1.228  0.00  0.00    +0.000 HD
ATOM     22  H   UNL     1      -1.146  -0.112   2.209  0.00  0.00    +0.000 HD
ENDROOT
TORSDOF 0
