@<TRIPOS>MOLECULE
*****
 19 22 0 0 0
SMALL
GASTEIGER

@<TRIPOS>ATOM
      1 C           0.7845   -2.9290    0.0000 C.3     1  UNL1        0.0261
      2 C           0.3315   -2.1441    0.0000 C.2     1  UNL1       -0.0465
      3 C           0.3316   -1.2378    0.0000 C.2     1  UNL1       -0.0344
      4 C           0.7848   -0.4533    0.0000 C.3     1  UNL1        0.0289
      5 C           1.6910   -0.4532    0.0000 C.3     1  UNL1        0.0500
      6 C           1.6909   -1.3595    0.0000 C.ar    1  UNL1        0.0598
      7 N           2.4759   -0.9065    0.0000 N.ar    1  UNL1       -0.2125
      8 C           2.4761   -0.0002    0.0000 C.ar    1  UNL1        0.2790
      9 O           3.2610    0.4528    0.0000 O.2     1  UNL1       -0.2652
     10 C           1.6913    0.4531    0.0000 C.ar    1  UNL1        0.0622
     11 C           0.9063    0.0001    0.0000 C.ar    1  UNL1        0.0031
     12 C           0.9061   -0.9062    0.0000 C.ar    1  UNL1        0.0061
     13 C           0.0001   -0.9062    0.0000 C.3     1  UNL1        0.0831
     14 C          -0.4533   -1.6908    0.0000 C.3     1  UNL1        0.0419
     15 N          -0.7846   -1.3594    0.0000 N.3     1  UNL1       -0.2163
     16 C          -1.5695   -0.9064    0.0000 C.3     1  UNL1        0.0890
     17 C          -1.5696   -0.0002    0.0000 C.3     1  UNL1        0.0189
     18 C          -0.7849    0.4530    0.0000 C.3     1  UNL1        0.0035
     19 C          -0.0000   -0.0000    0.0000 C.3     1  UNL1        0.0234
@<TRIPOS>BOND
     1     1     2    1
     2     2     3    2
     3     3     4    1
     4     4     5    1
     5     5     6    1
     6     6     7   ar
     7     7     8   ar
     8     8     9    2
     9     8    10   ar
    10    10    11   ar
    11    11    12   ar
    12     6    12   ar
    13    12    13    1
    14    13    14    1
    15     2    14    1
    16    13    15    1
    17    15    16    1
    18    16    17    1
    19    17    18    1
    20    18    19    1
    21     4    19    1
    22    13    19    1
