MODEL 1
REMARK VINA RESULT:    -8.050      0.000      0.000
REMARK INTER + INTRA:          -8.050
REMARK INTER:                  -8.050
REMARK INTRA:                   0.000
REMARK UNBOUND:                 0.000
REMARK  Name = cpd165.pdb
REMARK  1 active torsions:
REMARK  status: ('A' for Active; 'I' for Inactive)
REMARK    1  A    between atoms: C_1  and  C_2
REMARK                            x       y       z     vdW  Elec       q    Type
REMARK                         _______ _______ _______ _____ _____    ______ ____
ROOT
ATOM      1  C   UNL     1      42.559 -21.548 -38.980  0.00  0.00    -0.044 C 
ATOM      2  C   UNL     1      43.572 -20.934 -39.901  0.00  0.00    -0.074 C 
ATOM      3  C   UNL     1      43.310 -20.691 -41.198  0.00  0.00    -0.081 C 
ATOM      4  C   UNL     1      44.313 -20.074 -42.147  0.00  0.00    -0.013 C 
ATOM      5  C   UNL     1      45.013 -21.184 -42.957  0.00  0.00    -0.005 C 
ATOM      6  C   UNL     1      46.121 -21.869 -42.186  0.00  0.00    +0.025 A 
ATOM      7  N   UNL     1      46.647 -23.006 -42.764  0.00  0.00    -0.326 N 
ATOM      8  C   UNL     1      47.637 -23.774 -42.210  0.00  0.00    +0.249 A 
ATOM      9  O   UNL     1      48.084 -24.778 -42.751  0.00  0.00    -0.268 OA
ATOM     10  C   UNL     1      48.138 -23.322 -40.893  0.00  0.00    +0.003 A 
ATOM     11  C   UNL     1      47.626 -22.219 -40.332  0.00  0.00    -0.050 A 
ATOM     12  C   UNL     1      46.584 -21.432 -40.989  0.00  0.00    -0.007 A 
ATOM     13  C   UNL     1      46.021 -20.153 -40.306  0.00  0.00    +0.053 C 
ATOM     14  C   UNL     1      44.917 -20.599 -39.283  0.00  0.00    -0.009 C 
ATOM     15  N   UNL     1      47.108 -19.387 -39.644  0.00  0.00    -0.306 N 
ATOM     16  C   UNL     1      46.717 -18.063 -39.150  0.00  0.00    -0.003 C 
ATOM     17  C   UNL     1      46.051 -17.190 -40.208  0.00  0.00    -0.040 C 
ATOM     18  C   UNL     1      44.892 -17.916 -40.878  0.00  0.00    -0.047 C 
ATOM     19  C   UNL     1      45.398 -19.259 -41.419  0.00  0.00    -0.012 C 
ATOM     20  H   UNL     1      46.286 -23.285 -43.636  0.00  0.00    +0.000 HD
ATOM     21  H   UNL     1      47.864 -19.264 -40.318  0.00  0.00    +0.000 HD
ATOM     22  H   UNL     1      47.383 -19.930 -38.825  0.00  0.00    +0.000 HD
ENDROOT
TORSDOF 0
ENDMDL
MODEL 2
REMARK VINA RESULT:    -7.162     18.835     20.972
REMARK INTER + INTRA:          -7.162
REMARK INTER:                  -7.162
REMARK INTRA:                   0.000
REMARK UNBOUND:                 0.000
REMARK  Name = cpd165.pdb
REMARK  1 active torsions:
REMARK  status: ('A' for Active; 'I' for Inactive)
REMARK    1  A    between atoms: C_1  and  C_2
REMARK                            x       y       z     vdW  Elec       q    Type
REMARK                         _______ _______ _______ _____ _____    ______ ____
ROOT
ATOM      1  C   UNL     1      33.355 -37.774 -32.244  0.00  0.00    -0.044 C 
ATOM      2  C   UNL     1      34.241 -36.972 -31.336  0.00  0.00    -0.074 C 
ATOM      3  C   UNL     1      34.189 -37.087 -29.997  0.00  0.00    -0.081 C 
ATOM      4  C   UNL     1      35.070 -36.290 -29.060  0.00  0.00    -0.013 C 
ATOM      5  C   UNL     1      34.297 -35.061 -28.539  0.00  0.00    -0.005 C 
ATOM      6  C   UNL     1      34.269 -33.918 -29.530  0.00  0.00    +0.025 A 
ATOM      7  N   UNL     1      33.423 -32.872 -29.223  0.00  0.00    -0.326 N 
ATOM      8  C   UNL     1      33.243 -31.761 -30.004  0.00  0.00    +0.249 A 
ATOM      9  O   UNL     1      32.484 -30.848 -29.702  0.00  0.00    -0.268 OA
ATOM     10  C   UNL     1      34.021 -31.730 -31.262  0.00  0.00    +0.003 A 
ATOM     11  C   UNL     1      34.841 -32.746 -31.561  0.00  0.00    -0.050 A 
ATOM     12  C   UNL     1      35.002 -33.894 -30.669  0.00  0.00    -0.007 A 
ATOM     13  C   UNL     1      35.971 -35.050 -31.050  0.00  0.00    +0.053 C 
ATOM     14  C   UNL     1      35.206 -36.020 -32.018  0.00  0.00    -0.009 C 
ATOM     15  N   UNL     1      37.210 -34.516 -31.670  0.00  0.00    -0.306 N 
ATOM     16  C   UNL     1      38.272 -35.506 -31.875  0.00  0.00    -0.003 C 
ATOM     17  C   UNL     1      38.631 -36.286 -30.615  0.00  0.00    -0.040 C 
ATOM     18  C   UNL     1      37.394 -36.899 -29.971  0.00  0.00    -0.047 C 
ATOM     19  C   UNL     1      36.360 -35.791 -29.736  0.00  0.00    -0.012 C 
ATOM     20  H   UNL     1      32.913 -32.928 -28.383  0.00  0.00    +0.000 HD
ATOM     21  H   UNL     1      37.575 -33.780 -31.066  0.00  0.00    +0.000 HD
ATOM     22  H   UNL     1      36.946 -34.183 -32.597  0.00  0.00    +0.000 HD
ENDROOT
TORSDOF 0
ENDMDL
MODEL 3
REMARK VINA RESULT:    -7.093     19.123     21.588
REMARK INTER + INTRA:          -7.093
REMARK INTER:                  -7.093
REMARK INTRA:                   0.000
REMARK UNBOUND:                 0.000
REMARK  Name = cpd165.pdb
REMARK  1 active torsions:
REMARK  status: ('A' for Active; 'I' for Inactive)
REMARK    1  A    between atoms: C_1  and  C_2
REMARK                            x       y       z     vdW  Elec       q    Type
REMARK                         _______ _______ _______ _____ _____    ______ ____
ROOT
ATOM      1  C   UNL     1      33.955 -39.098 -31.900  0.00  0.00    -0.044 C 
ATOM      2  C   UNL     1      34.366 -37.948 -31.028  0.00  0.00    -0.074 C 
ATOM      3  C   UNL     1      33.861 -36.711 -31.186  0.00  0.00    -0.081 C 
ATOM      4  C   UNL     1      34.258 -35.535 -30.321  0.00  0.00    -0.013 C 
ATOM      5  C   UNL     1      35.339 -34.702 -31.041  0.00  0.00    -0.005 C 
ATOM      6  C   UNL     1      36.724 -35.298 -30.917  0.00  0.00    +0.025 A 
ATOM      7  N   UNL     1      37.701 -34.729 -31.707  0.00  0.00    -0.326 N 
ATOM      8  C   UNL     1      39.006 -35.143 -31.751  0.00  0.00    +0.249 A 
ATOM      9  O   UNL     1      39.851 -34.614 -32.464  0.00  0.00    -0.268 OA
ATOM     10  C   UNL     1      39.343 -36.293 -30.883  0.00  0.00    +0.003 A 
ATOM     11  C   UNL     1      38.394 -36.847 -30.117  0.00  0.00    -0.050 A 
ATOM     12  C   UNL     1      37.023 -36.340 -30.103  0.00  0.00    -0.007 A 
ATOM     13  C   UNL     1      35.952 -37.007 -29.193  0.00  0.00    +0.053 C 
ATOM     14  C   UNL     1      35.389 -38.260 -29.951  0.00  0.00    -0.009 C 
ATOM     15  N   UNL     1      36.535 -37.376 -27.877  0.00  0.00    -0.306 N 
ATOM     16  C   UNL     1      35.561 -37.821 -26.875  0.00  0.00    -0.003 C 
ATOM     17  C   UNL     1      34.411 -36.842 -26.665  0.00  0.00    -0.040 C 
ATOM     18  C   UNL     1      33.746 -36.476 -27.986  0.00  0.00    -0.047 C 
ATOM     19  C   UNL     1      34.820 -35.965 -28.953  0.00  0.00    -0.012 C 
ATOM     20  H   UNL     1      37.442 -33.972 -32.280  0.00  0.00    +0.000 HD
ATOM     21  H   UNL     1      37.021 -36.559 -27.506  0.00  0.00    +0.000 HD
ATOM     22  H   UNL     1      37.152 -38.169 -28.049  0.00  0.00    +0.000 HD
ENDROOT
TORSDOF 0
ENDMDL
MODEL 4
REMARK VINA RESULT:    -6.943      2.935      4.832
REMARK INTER + INTRA:          -6.943
REMARK INTER:                  -6.943
REMARK INTRA:                   0.000
REMARK UNBOUND:                 0.000
REMARK  Name = cpd165.pdb
REMARK  1 active torsions:
REMARK  status: ('A' for Active; 'I' for Inactive)
REMARK    1  A    between atoms: C_1  and  C_2
REMARK                            x       y       z     vdW  Elec       q    Type
REMARK                         _______ _______ _______ _____ _____    ______ ____
ROOT
ATOM      1  C   UNL     1      44.220 -17.513 -41.571  0.00  0.00    -0.044 C 
ATOM      2  C   UNL     1      44.600 -18.838 -40.978  0.00  0.00    -0.074 C 
ATOM      3  C   UNL     1      43.682 -19.737 -40.581  0.00  0.00    -0.081 C 
ATOM      4  C   UNL     1      44.038 -21.079 -39.981  0.00  0.00    -0.013 C 
ATOM      5  C   UNL     1      43.970 -20.996 -38.443  0.00  0.00    -0.005 C 
ATOM      6  C   UNL     1      45.202 -20.363 -37.831  0.00  0.00    +0.025 A 
ATOM      7  N   UNL     1      45.124 -20.062 -36.487  0.00  0.00    -0.326 N 
ATOM      8  C   UNL     1      46.124 -19.469 -35.763  0.00  0.00    +0.249 A 
ATOM      9  O   UNL     1      46.022 -19.217 -34.568  0.00  0.00    -0.268 OA
ATOM     10  C   UNL     1      47.349 -19.132 -36.519  0.00  0.00    +0.003 A 
ATOM     11  C   UNL     1      47.425 -19.423 -37.824  0.00  0.00    -0.050 A 
ATOM     12  C   UNL     1      46.326 -20.078 -38.532  0.00  0.00    -0.007 A 
ATOM     13  C   UNL     1      46.457 -20.405 -40.047  0.00  0.00    +0.053 C 
ATOM     14  C   UNL     1      46.088 -19.110 -40.853  0.00  0.00    -0.009 C 
ATOM     15  N   UNL     1      47.827 -20.882 -40.367  0.00  0.00    -0.306 N 
ATOM     16  C   UNL     1      47.994 -21.411 -41.725  0.00  0.00    -0.003 C 
ATOM     17  C   UNL     1      46.982 -22.493 -42.087  0.00  0.00    -0.040 C 
ATOM     18  C   UNL     1      45.555 -22.028 -41.825  0.00  0.00    -0.047 C 
ATOM     19  C   UNL     1      45.451 -21.550 -40.372  0.00  0.00    -0.012 C 
ATOM     20  H   UNL     1      44.291 -20.291 -36.015  0.00  0.00    +0.000 HD
ATOM     21  H   UNL     1      48.068 -21.621 -39.707  0.00  0.00    +0.000 HD
ATOM     22  H   UNL     1      48.437 -20.067 -40.300  0.00  0.00    +0.000 HD
ENDROOT
TORSDOF 0
ENDMDL
MODEL 5
REMARK VINA RESULT:    -6.686      1.438      1.715
REMARK INTER + INTRA:          -6.686
REMARK INTER:                  -6.686
REMARK INTRA:                   0.000
REMARK UNBOUND:                 0.000
REMARK  Name = cpd165.pdb
REMARK  1 active torsions:
REMARK  status: ('A' for Active; 'I' for Inactive)
REMARK    1  A    between atoms: C_1  and  C_2
REMARK                            x       y       z     vdW  Elec       q    Type
REMARK                         _______ _______ _______ _____ _____    ______ ____
ROOT
ATOM      1  C   UNL     1      42.892 -21.036 -36.931  0.00  0.00    -0.044 C 
ATOM      2  C   UNL     1      43.695 -20.339 -37.989  0.00  0.00    -0.074 C 
ATOM      3  C   UNL     1      43.134 -19.842 -39.107  0.00  0.00    -0.081 C 
ATOM      4  C   UNL     1      43.921 -19.136 -40.188  0.00  0.00    -0.013 C 
ATOM      5  C   UNL     1      44.246 -20.126 -41.325  0.00  0.00    -0.005 C 
ATOM      6  C   UNL     1      45.427 -21.020 -41.011  0.00  0.00    +0.025 A 
ATOM      7  N   UNL     1      45.643 -22.066 -41.884  0.00  0.00    -0.326 N 
ATOM      8  C   UNL     1      46.643 -22.993 -41.755  0.00  0.00    +0.249 A 
ATOM      9  O   UNL     1      46.809 -23.910 -42.551  0.00  0.00    -0.268 OA
ATOM     10  C   UNL     1      47.521 -22.829 -40.576  0.00  0.00    +0.003 A 
ATOM     11  C   UNL     1      47.310 -21.814 -39.728  0.00  0.00    -0.050 A 
ATOM     12  C   UNL     1      46.235 -20.846 -39.937  0.00  0.00    -0.007 A 
ATOM     13  C   UNL     1      46.028 -19.677 -38.932  0.00  0.00    +0.053 C 
ATOM     14  C   UNL     1      45.185 -20.222 -37.726  0.00  0.00    -0.009 C 
ATOM     15  N   UNL     1      47.335 -19.127 -38.488  0.00  0.00    -0.306 N 
ATOM     16  C   UNL     1      47.248 -17.892 -37.702  0.00  0.00    -0.003 C 
ATOM     17  C   UNL     1      46.440 -16.792 -38.381  0.00  0.00    -0.040 C 
ATOM     18  C   UNL     1      45.067 -17.296 -38.808  0.00  0.00    -0.047 C 
ATOM     19  C   UNL     1      45.249 -18.550 -39.672  0.00  0.00    -0.012 C 
ATOM     20  H   UNL     1      45.035 -22.153 -42.653  0.00  0.00    +0.000 HD
ATOM     21  H   UNL     1      47.897 -18.937 -39.317  0.00  0.00    +0.000 HD
ATOM     22  H   UNL     1      47.747 -19.829 -37.873  0.00  0.00    +0.000 HD
ENDROOT
TORSDOF 0
ENDMDL
MODEL 6
REMARK VINA RESULT:    -6.653     19.484     22.228
REMARK INTER + INTRA:          -6.653
REMARK INTER:                  -6.653
REMARK INTRA:                   0.000
REMARK UNBOUND:                 0.000
REMARK  Name = cpd165.pdb
REMARK  1 active torsions:
REMARK  status: ('A' for Active; 'I' for Inactive)
REMARK    1  A    between atoms: C_1  and  C_2
REMARK                            x       y       z     vdW  Elec       q    Type
REMARK                         _______ _______ _______ _____ _____    ______ ____
ROOT
ATOM      1  C   UNL     1      34.378 -37.416 -26.796  0.00  0.00    -0.044 C 
ATOM      2  C   UNL     1      35.017 -37.452 -28.154  0.00  0.00    -0.074 C 
ATOM      3  C   UNL     1      36.341 -37.297 -28.329  0.00  0.00    -0.081 C 
ATOM      4  C   UNL     1      37.010 -37.330 -29.685  0.00  0.00    -0.013 C 
ATOM      5  C   UNL     1      37.226 -35.890 -30.193  0.00  0.00    -0.005 C 
ATOM      6  C   UNL     1      35.976 -35.282 -30.793  0.00  0.00    +0.025 A 
ATOM      7  N   UNL     1      36.033 -33.933 -31.073  0.00  0.00    -0.326 N 
ATOM      8  C   UNL     1      35.000 -33.201 -31.596  0.00  0.00    +0.249 A 
ATOM      9  O   UNL     1      35.085 -32.002 -31.835  0.00  0.00    -0.268 OA
ATOM     10  C   UNL     1      33.749 -33.950 -31.849  0.00  0.00    +0.003 A 
ATOM     11  C   UNL     1      33.693 -35.259 -31.575  0.00  0.00    -0.050 A 
ATOM     12  C   UNL     1      34.843 -35.984 -31.038  0.00  0.00    -0.007 A 
ATOM     13  C   UNL     1      34.738 -37.508 -30.740  0.00  0.00    +0.053 C 
ATOM     14  C   UNL     1      34.080 -37.678 -29.326  0.00  0.00    -0.009 C 
ATOM     15  N   UNL     1      33.957 -38.198 -31.798  0.00  0.00    -0.306 N 
ATOM     16  C   UNL     1      33.975 -39.663 -31.721  0.00  0.00    -0.003 C 
ATOM     17  C   UNL     1      35.380 -40.253 -31.659  0.00  0.00    -0.040 C 
ATOM     18  C   UNL     1      36.203 -39.611 -30.550  0.00  0.00    -0.047 C 
ATOM     19  C   UNL     1      36.183 -38.089 -30.739  0.00  0.00    -0.012 C 
ATOM     20  H   UNL     1      36.877 -33.462 -30.884  0.00  0.00    +0.000 HD
ATOM     21  H   UNL     1      34.338 -37.924 -32.704  0.00  0.00    +0.000 HD
ATOM     22  H   UNL     1      32.985 -37.916 -31.668  0.00  0.00    +0.000 HD
ENDROOT
TORSDOF 0
ENDMDL
MODEL 7
REMARK VINA RESULT:    -6.537      1.774      3.782
REMARK INTER + INTRA:          -6.537
REMARK INTER:                  -6.537
REMARK INTRA:                   0.000
REMARK UNBOUND:                 0.000
REMARK  Name = cpd165.pdb
REMARK  1 active torsions:
REMARK  status: ('A' for Active; 'I' for Inactive)
REMARK    1  A    between atoms: C_1  and  C_2
REMARK                            x       y       z     vdW  Elec       q    Type
REMARK                         _______ _______ _______ _____ _____    ______ ____
ROOT
ATOM      1  C   UNL     1      45.078 -16.862 -40.721  0.00  0.00    -0.044 C 
ATOM      2  C   UNL     1      45.044 -18.172 -39.990  0.00  0.00    -0.074 C 
ATOM      3  C   UNL     1      45.508 -18.306 -38.734  0.00  0.00    -0.081 C 
ATOM      4  C   UNL     1      45.485 -19.614 -37.975  0.00  0.00    -0.013 C 
ATOM      5  C   UNL     1      46.861 -20.301 -38.081  0.00  0.00    -0.005 C 
ATOM      6  C   UNL     1      47.057 -21.033 -39.391  0.00  0.00    +0.025 A 
ATOM      7  N   UNL     1      48.334 -21.489 -39.645  0.00  0.00    -0.326 N 
ATOM      8  C   UNL     1      48.712 -22.151 -40.783  0.00  0.00    +0.249 A 
ATOM      9  O   UNL     1      49.856 -22.546 -40.976  0.00  0.00    -0.268 OA
ATOM     10  C   UNL     1      47.647 -22.358 -41.788  0.00  0.00    +0.003 A 
ATOM     11  C   UNL     1      46.408 -21.914 -41.543  0.00  0.00    -0.050 A 
ATOM     12  C   UNL     1      46.067 -21.232 -40.295  0.00  0.00    -0.007 A 
ATOM     13  C   UNL     1      44.613 -20.738 -40.046  0.00  0.00    +0.053 C 
ATOM     14  C   UNL     1      44.451 -19.345 -40.750  0.00  0.00    -0.009 C 
ATOM     15  N   UNL     1      43.626 -21.728 -40.549  0.00  0.00    -0.306 N 
ATOM     16  C   UNL     1      42.234 -21.453 -40.178  0.00  0.00    -0.003 C 
ATOM     17  C   UNL     1      42.031 -21.250 -38.681  0.00  0.00    -0.040 C 
ATOM     18  C   UNL     1      42.988 -20.201 -38.128  0.00  0.00    -0.047 C 
ATOM     19  C   UNL     1      44.421 -20.593 -38.507  0.00  0.00    -0.012 C 
ATOM     20  H   UNL     1      49.022 -21.327 -38.960  0.00  0.00    +0.000 HD
ATOM     21  H   UNL     1      43.879 -22.643 -40.178  0.00  0.00    +0.000 HD
ATOM     22  H   UNL     1      43.667 -21.680 -41.567  0.00  0.00    +0.000 HD
ENDROOT
TORSDOF 0
ENDMDL
MODEL 8
REMARK VINA RESULT:    -6.503     21.466     23.593
REMARK INTER + INTRA:          -6.503
REMARK INTER:                  -6.503
REMARK INTRA:                   0.000
REMARK UNBOUND:                 0.000
REMARK  Name = cpd165.pdb
REMARK  1 active torsions:
REMARK  status: ('A' for Active; 'I' for Inactive)
REMARK    1  A    between atoms: C_1  and  C_2
REMARK                            x       y       z     vdW  Elec       q    Type
REMARK                         _______ _______ _______ _____ _____    ______ ____
ROOT
ATOM      1  C   UNL     1      39.118 -37.183 -30.144  0.00  0.00    -0.044 C 
ATOM      2  C   UNL     1      37.668 -37.212 -29.757  0.00  0.00    -0.074 C 
ATOM      3  C   UNL     1      37.250 -36.898 -28.518  0.00  0.00    -0.081 C 
ATOM      4  C   UNL     1      35.796 -36.918 -28.101  0.00  0.00    -0.013 C 
ATOM      5  C   UNL     1      35.478 -38.249 -27.389  0.00  0.00    -0.005 C 
ATOM      6  C   UNL     1      35.248 -39.394 -28.352  0.00  0.00    +0.025 A 
ATOM      7  N   UNL     1      35.169 -40.651 -27.790  0.00  0.00    -0.326 N 
ATOM      8  C   UNL     1      34.987 -41.810 -28.497  0.00  0.00    +0.249 A 
ATOM      9  O   UNL     1      34.920 -42.912 -27.965  0.00  0.00    -0.268 OA
ATOM     10  C   UNL     1      34.887 -41.656 -29.965  0.00  0.00    +0.003 A 
ATOM     11  C   UNL     1      34.965 -40.436 -30.511  0.00  0.00    -0.050 A 
ATOM     12  C   UNL     1      35.138 -39.236 -29.693  0.00  0.00    -0.007 A 
ATOM     13  C   UNL     1      35.217 -37.836 -30.367  0.00  0.00    +0.053 C 
ATOM     14  C   UNL     1      36.694 -37.615 -30.848  0.00  0.00    -0.009 C 
ATOM     15  N   UNL     1      34.250 -37.736 -31.490  0.00  0.00    -0.306 N 
ATOM     16  C   UNL     1      34.100 -36.392 -32.057  0.00  0.00    -0.003 C 
ATOM     17  C   UNL     1      33.781 -35.324 -31.016  0.00  0.00    -0.040 C 
ATOM     18  C   UNL     1      34.780 -35.352 -29.867  0.00  0.00    -0.047 C 
ATOM     19  C   UNL     1      34.833 -36.774 -29.294  0.00  0.00    -0.012 C 
ATOM     20  H   UNL     1      35.249 -40.720 -26.811  0.00  0.00    +0.000 HD
ATOM     21  H   UNL     1      33.338 -38.042 -31.151  0.00  0.00    +0.000 HD
ATOM     22  H   UNL     1      34.619 -38.323 -32.239  0.00  0.00    +0.000 HD
ENDROOT
TORSDOF 0
ENDMDL
MODEL 9
REMARK VINA RESULT:    -6.345     19.775     22.054
REMARK INTER + INTRA:          -6.345
REMARK INTER:                  -6.345
REMARK INTRA:                   0.000
REMARK UNBOUND:                 0.000
REMARK  Name = cpd165.pdb
REMARK  1 active torsions:
REMARK  status: ('A' for Active; 'I' for Inactive)
REMARK    1  A    between atoms: C_1  and  C_2
REMARK                            x       y       z     vdW  Elec       q    Type
REMARK                         _______ _______ _______ _____ _____    ______ ____
ROOT
ATOM      1  C   UNL     1      32.950 -36.829 -32.812  0.00  0.00    -0.044 C 
ATOM      2  C   UNL     1      33.678 -35.971 -31.820  0.00  0.00    -0.074 C 
ATOM      3  C   UNL     1      35.021 -35.903 -31.778  0.00  0.00    -0.081 C 
ATOM      4  C   UNL     1      35.780 -35.046 -30.790  0.00  0.00    -0.013 C 
ATOM      5  C   UNL     1      36.231 -35.908 -29.593  0.00  0.00    -0.005 C 
ATOM      6  C   UNL     1      35.127 -36.144 -28.585  0.00  0.00    +0.025 A 
ATOM      7  N   UNL     1      35.393 -37.075 -27.603  0.00  0.00    -0.326 N 
ATOM      8  C   UNL     1      34.514 -37.441 -26.618  0.00  0.00    +0.249 A 
ATOM      9  O   UNL     1      34.783 -38.271 -25.758  0.00  0.00    -0.268 OA
ATOM     10  C   UNL     1      33.194 -36.774 -26.658  0.00  0.00    +0.003 A 
ATOM     11  C   UNL     1      32.935 -35.870 -27.612  0.00  0.00    -0.050 A 
ATOM     12  C   UNL     1      33.930 -35.511 -28.622  0.00  0.00    -0.007 A 
ATOM     13  C   UNL     1      33.592 -34.451 -29.710  0.00  0.00    +0.053 C 
ATOM     14  C   UNL     1      32.811 -35.176 -30.862  0.00  0.00    -0.009 C 
ATOM     15  N   UNL     1      32.805 -33.333 -29.129  0.00  0.00    -0.306 N 
ATOM     16  C   UNL     1      32.613 -32.185 -30.022  0.00  0.00    -0.003 C 
ATOM     17  C   UNL     1      33.914 -31.643 -30.605  0.00  0.00    -0.040 C 
ATOM     18  C   UNL     1      34.732 -32.748 -31.260  0.00  0.00    -0.047 C 
ATOM     19  C   UNL     1      34.937 -33.878 -30.244  0.00  0.00    -0.012 C 
ATOM     20  H   UNL     1      36.277 -37.508 -27.610  0.00  0.00    +0.000 HD
ATOM     21  H   UNL     1      33.288 -33.007 -28.292  0.00  0.00    +0.000 HD
ATOM     22  H   UNL     1      31.875 -33.706 -28.938  0.00  0.00    +0.000 HD
ENDROOT
TORSDOF 0
ENDMDL
MODEL 10
REMARK VINA RESULT:    -6.308     19.600     22.005
REMARK INTER + INTRA:          -6.308
REMARK INTER:                  -6.308
REMARK INTRA:                   0.000
REMARK UNBOUND:                 0.000
REMARK  Name = cpd165.pdb
REMARK  1 active torsions:
REMARK  status: ('A' for Active; 'I' for Inactive)
REMARK    1  A    between atoms: C_1  and  C_2
REMARK                            x       y       z     vdW  Elec       q    Type
REMARK                         _______ _______ _______ _____ _____    ______ ____
ROOT
ATOM      1  C   UNL     1      63.418  -9.960 -32.245  0.00  0.00    -0.044 C 
ATOM      2  C   UNL     1      62.988 -10.950 -31.201  0.00  0.00    -0.074 C 
ATOM      3  C   UNL     1      63.138 -10.716 -29.885  0.00  0.00    -0.081 C 
ATOM      4  C   UNL     1      62.714 -11.695 -28.814  0.00  0.00    -0.013 C 
ATOM      5  C   UNL     1      63.931 -12.521 -28.352  0.00  0.00    -0.005 C 
ATOM      6  C   UNL     1      64.268 -13.656 -29.296  0.00  0.00    +0.025 A 
ATOM      7  N   UNL     1      65.464 -14.302 -29.063  0.00  0.00    -0.326 N 
ATOM      8  C   UNL     1      65.951 -15.335 -29.820  0.00  0.00    +0.249 A 
ATOM      9  O   UNL     1      67.018 -15.889 -29.584  0.00  0.00    -0.268 OA
ATOM     10  C   UNL     1      65.108 -15.743 -30.965  0.00  0.00    +0.003 A 
ATOM     11  C   UNL     1      63.948 -15.114 -31.192  0.00  0.00    -0.050 A 
ATOM     12  C   UNL     1      63.477 -14.032 -30.329  0.00  0.00    -0.007 A 
ATOM     13  C   UNL     1      62.118 -13.332 -30.624  0.00  0.00    +0.053 C 
ATOM     14  C   UNL     1      62.369 -12.235 -31.717  0.00  0.00    -0.009 C 
ATOM     15  N   UNL     1      61.100 -14.322 -31.059  0.00  0.00    -0.306 N 
ATOM     16  C   UNL     1      59.734 -13.796 -31.161  0.00  0.00    -0.003 C 
ATOM     17  C   UNL     1      59.254 -13.096 -29.895  0.00  0.00    -0.040 C 
ATOM     18  C   UNL     1      60.244 -12.032 -29.439  0.00  0.00    -0.047 C 
ATOM     19  C   UNL     1      61.629 -12.676 -29.299  0.00  0.00    -0.012 C 
ATOM     20  H   UNL     1      66.006 -14.000 -28.299  0.00  0.00    +0.000 HD
ATOM     21  H   UNL     1      61.095 -15.089 -30.387  0.00  0.00    +0.000 HD
ATOM     22  H   UNL     1      61.366 -14.613 -32.000  0.00  0.00    +0.000 HD
ENDROOT
TORSDOF 0
ENDMDL
MODEL 11
REMARK VINA RESULT:    -6.188     20.043     21.574
REMARK INTER + INTRA:          -6.188
REMARK INTER:                  -6.188
REMARK INTRA:                   0.000
REMARK UNBOUND:                 0.000
REMARK  Name = cpd165.pdb
REMARK  1 active torsions:
REMARK  status: ('A' for Active; 'I' for Inactive)
REMARK    1  A    between atoms: C_1  and  C_2
REMARK                            x       y       z     vdW  Elec       q    Type
REMARK                         _______ _______ _______ _____ _____    ______ ____
ROOT
ATOM      1  C   UNL     1      31.391 -35.475 -32.813  0.00  0.00    -0.044 C 
ATOM      2  C   UNL     1      32.243 -34.644 -31.899  0.00  0.00    -0.074 C 
ATOM      3  C   UNL     1      33.421 -34.125 -32.289  0.00  0.00    -0.081 C 
ATOM      4  C   UNL     1      34.298 -33.284 -31.389  0.00  0.00    -0.013 C 
ATOM      5  C   UNL     1      35.400 -34.166 -30.766  0.00  0.00    -0.005 C 
ATOM      6  C   UNL     1      34.911 -34.974 -29.582  0.00  0.00    +0.025 A 
ATOM      7  N   UNL     1      35.776 -35.938 -29.109  0.00  0.00    -0.326 N 
ATOM      8  C   UNL     1      35.505 -36.782 -28.064  0.00  0.00    +0.249 A 
ATOM      9  O   UNL     1      36.298 -37.627 -27.667  0.00  0.00    -0.268 OA
ATOM     10  C   UNL     1      34.174 -36.620 -27.439  0.00  0.00    +0.003 A 
ATOM     11  C   UNL     1      33.334 -35.685 -27.900  0.00  0.00    -0.050 A 
ATOM     12  C   UNL     1      33.696 -34.802 -29.007  0.00  0.00    -0.007 A 
ATOM     13  C   UNL     1      32.693 -33.723 -29.507  0.00  0.00    +0.053 C 
ATOM     14  C   UNL     1      31.696 -34.417 -30.501  0.00  0.00    -0.009 C 
ATOM     15  N   UNL     1      31.983 -33.093 -28.364  0.00  0.00    -0.306 N 
ATOM     16  C   UNL     1      31.169 -31.924 -28.713  0.00  0.00    -0.003 C 
ATOM     17  C   UNL     1      31.936 -30.856 -29.486  0.00  0.00    -0.040 C 
ATOM     18  C   UNL     1      32.639 -31.447 -30.701  0.00  0.00    -0.047 C 
ATOM     19  C   UNL     1      33.512 -32.621 -30.242  0.00  0.00    -0.012 C 
ATOM     20  H   UNL     1      36.650 -36.026 -29.553  0.00  0.00    +0.000 HD
ATOM     21  H   UNL     1      32.680 -32.802 -27.680  0.00  0.00    +0.000 HD
ATOM     22  H   UNL     1      31.336 -33.797 -28.007  0.00  0.00    +0.000 HD
ENDROOT
TORSDOF 0
ENDMDL
MODEL 12
REMARK VINA RESULT:    -6.180      2.996      5.088
REMARK INTER + INTRA:          -6.180
REMARK INTER:                  -6.180
REMARK INTRA:                   0.000
REMARK UNBOUND:                 0.000
REMARK  Name = cpd165.pdb
REMARK  1 active torsions:
REMARK  status: ('A' for Active; 'I' for Inactive)
REMARK    1  A    between atoms: C_1  and  C_2
REMARK                            x       y       z     vdW  Elec       q    Type
REMARK                         _______ _______ _______ _____ _____    ______ ____
ROOT
ATOM      1  C   UNL     1      47.331 -16.286 -40.974  0.00  0.00    -0.044 C 
ATOM      2  C   UNL     1      46.294 -17.355 -40.785  0.00  0.00    -0.074 C 
ATOM      3  C   UNL     1      44.980 -17.077 -40.721  0.00  0.00    -0.081 C 
ATOM      4  C   UNL     1      43.915 -18.135 -40.531  0.00  0.00    -0.013 C 
ATOM      5  C   UNL     1      43.517 -18.210 -39.043  0.00  0.00    -0.005 C 
ATOM      6  C   UNL     1      44.497 -19.006 -38.209  0.00  0.00    +0.025 A 
ATOM      7  N   UNL     1      44.323 -18.939 -36.842  0.00  0.00    -0.326 N 
ATOM      8  C   UNL     1      45.120 -19.570 -35.924  0.00  0.00    +0.249 A 
ATOM      9  O   UNL     1      44.936 -19.492 -34.715  0.00  0.00    -0.268 OA
ATOM     10  C   UNL     1      46.241 -20.357 -36.482  0.00  0.00    +0.003 A 
ATOM     11  C   UNL     1      46.412 -20.420 -37.809  0.00  0.00    -0.050 A 
ATOM     12  C   UNL     1      45.509 -19.738 -38.735  0.00  0.00    -0.007 A 
ATOM     13  C   UNL     1      45.738 -19.844 -40.270  0.00  0.00    +0.053 C 
ATOM     14  C   UNL     1      46.815 -18.775 -40.670  0.00  0.00    -0.009 C 
ATOM     15  N   UNL     1      46.157 -21.218 -40.647  0.00  0.00    -0.306 N 
ATOM     16  C   UNL     1      46.198 -21.475 -42.090  0.00  0.00    -0.003 C 
ATOM     17  C   UNL     1      44.899 -21.125 -42.809  0.00  0.00    -0.040 C 
ATOM     18  C   UNL     1      44.457 -19.702 -42.494  0.00  0.00    -0.047 C 
ATOM     19  C   UNL     1      44.382 -19.535 -40.971  0.00  0.00    -0.012 C 
ATOM     20  H   UNL     1      43.573 -18.400 -36.503  0.00  0.00    +0.000 HD
ATOM     21  H   UNL     1      45.502 -21.876 -40.226  0.00  0.00    +0.000 HD
ATOM     22  H   UNL     1      47.113 -21.329 -40.309  0.00  0.00    +0.000 HD
ENDROOT
TORSDOF 0
ENDMDL
MODEL 13
REMARK VINA RESULT:    -6.064      3.301      4.523
REMARK INTER + INTRA:          -6.064
REMARK INTER:                  -6.064
REMARK INTRA:                   0.000
REMARK UNBOUND:                 0.000
REMARK  Name = cpd165.pdb
REMARK  1 active torsions:
REMARK  status: ('A' for Active; 'I' for Inactive)
REMARK    1  A    between atoms: C_1  and  C_2
REMARK                            x       y       z     vdW  Elec       q    Type
REMARK                         _______ _______ _______ _____ _____    ______ ____
ROOT
ATOM      1  C   UNL     1      42.171 -21.825 -39.727  0.00  0.00    -0.044 C 
ATOM      2  C   UNL     1      43.344 -20.891 -39.772  0.00  0.00    -0.074 C 
ATOM      3  C   UNL     1      44.519 -21.240 -40.328  0.00  0.00    -0.081 C 
ATOM      4  C   UNL     1      45.716 -20.318 -40.387  0.00  0.00    -0.013 C 
ATOM      5  C   UNL     1      46.679 -20.640 -39.226  0.00  0.00    -0.005 C 
ATOM      6  C   UNL     1      46.241 -20.034 -37.910  0.00  0.00    +0.025 A 
ATOM      7  N   UNL     1      46.931 -20.452 -36.791  0.00  0.00    -0.326 N 
ATOM      8  C   UNL     1      46.668 -20.035 -35.513  0.00  0.00    +0.249 A 
ATOM      9  O   UNL     1      47.302 -20.426 -34.540  0.00  0.00    -0.268 OA
ATOM     10  C   UNL     1      45.548 -19.079 -35.369  0.00  0.00    +0.003 A 
ATOM     11  C   UNL     1      44.877 -18.674 -36.455  0.00  0.00    -0.050 A 
ATOM     12  C   UNL     1      45.225 -19.144 -37.795  0.00  0.00    -0.007 A 
ATOM     13  C   UNL     1      44.425 -18.643 -39.032  0.00  0.00    +0.053 C 
ATOM     14  C   UNL     1      43.131 -19.521 -39.155  0.00  0.00    -0.009 C 
ATOM     15  N   UNL     1      44.102 -17.199 -38.900  0.00  0.00    -0.306 N 
ATOM     16  C   UNL     1      43.531 -16.584 -40.103  0.00  0.00    -0.003 C 
ATOM     17  C   UNL     1      44.370 -16.804 -41.357  0.00  0.00    -0.040 C 
ATOM     18  C   UNL     1      44.682 -18.281 -41.563  0.00  0.00    -0.047 C 
ATOM     19  C   UNL     1      45.329 -18.831 -40.286  0.00  0.00    -0.012 C 
ATOM     20  H   UNL     1      47.664 -21.096 -36.920  0.00  0.00    +0.000 HD
ATOM     21  H   UNL     1      44.961 -16.702 -38.666  0.00  0.00    +0.000 HD
ATOM     22  H   UNL     1      43.386 -17.131 -38.176  0.00  0.00    +0.000 HD
ENDROOT
TORSDOF 0
ENDMDL
MODEL 14
REMARK VINA RESULT:    -6.025     20.238     21.921
REMARK INTER + INTRA:          -6.025
REMARK INTER:                  -6.025
REMARK INTRA:                   0.000
REMARK UNBOUND:                 0.000
REMARK  Name = cpd165.pdb
REMARK  1 active torsions:
REMARK  status: ('A' for Active; 'I' for Inactive)
REMARK    1  A    between atoms: C_1  and  C_2
REMARK                            x       y       z     vdW  Elec       q    Type
REMARK                         _______ _______ _______ _____ _____    ______ ____
ROOT
ATOM      1  C   UNL     1      32.655 -36.960 -32.754  0.00  0.00    -0.044 C 
ATOM      2  C   UNL     1      33.267 -36.008 -31.768  0.00  0.00    -0.074 C 
ATOM      3  C   UNL     1      34.230 -35.135 -32.115  0.00  0.00    -0.081 C 
ATOM      4  C   UNL     1      34.862 -34.164 -31.142  0.00  0.00    -0.013 C 
ATOM      5  C   UNL     1      36.194 -34.743 -30.623  0.00  0.00    -0.005 C 
ATOM      6  C   UNL     1      36.005 -35.766 -29.524  0.00  0.00    +0.025 A 
ATOM      7  N   UNL     1      37.129 -36.478 -29.159  0.00  0.00    -0.326 N 
ATOM      8  C   UNL     1      37.153 -37.459 -28.203  0.00  0.00    +0.249 A 
ATOM      9  O   UNL     1      38.171 -38.071 -27.902  0.00  0.00    -0.268 OA
ATOM     10  C   UNL     1      35.858 -37.751 -27.552  0.00  0.00    +0.003 A 
ATOM     11  C   UNL     1      34.766 -37.061 -27.907  0.00  0.00    -0.050 A 
ATOM     12  C   UNL     1      34.815 -36.010 -28.922  0.00  0.00    -0.007 A 
ATOM     13  C   UNL     1      33.525 -35.226 -29.300  0.00  0.00    +0.053 C 
ATOM     14  C   UNL     1      32.733 -36.082 -30.350  0.00  0.00    -0.009 C 
ATOM     15  N   UNL     1      32.709 -34.941 -28.092  0.00  0.00    -0.306 N 
ATOM     16  C   UNL     1      31.580 -34.031 -28.312  0.00  0.00    -0.003 C 
ATOM     17  C   UNL     1      31.976 -32.719 -28.979  0.00  0.00    -0.040 C 
ATOM     18  C   UNL     1      32.772 -32.962 -30.255  0.00  0.00    -0.047 C 
ATOM     19  C   UNL     1      33.963 -33.870 -29.927  0.00  0.00    -0.012 C 
ATOM     20  H   UNL     1      37.973 -36.266 -29.619  0.00  0.00    +0.000 HD
ATOM     21  H   UNL     1      33.319 -34.526 -27.388  0.00  0.00    +0.000 HD
ATOM     22  H   UNL     1      32.307 -35.833 -27.801  0.00  0.00    +0.000 HD
ENDROOT
TORSDOF 0
ENDMDL
MODEL 15
REMARK VINA RESULT:    -5.908     19.734     21.827
REMARK INTER + INTRA:          -5.908
REMARK INTER:                  -5.908
REMARK INTRA:                   0.000
REMARK UNBOUND:                 0.000
REMARK  Name = cpd165.pdb
REMARK  1 active torsions:
REMARK  status: ('A' for Active; 'I' for Inactive)
REMARK    1  A    between atoms: C_1  and  C_2
REMARK                            x       y       z     vdW  Elec       q    Type
REMARK                         _______ _______ _______ _____ _____    ______ ____
ROOT
ATOM      1  C   UNL     1      31.504 -37.080 -31.696  0.00  0.00    -0.044 C 
ATOM      2  C   UNL     1      32.430 -36.330 -30.783  0.00  0.00    -0.074 C 
ATOM      3  C   UNL     1      32.395 -36.476 -29.447  0.00  0.00    -0.081 C 
ATOM      4  C   UNL     1      33.316 -35.732 -28.505  0.00  0.00    -0.013 C 
ATOM      5  C   UNL     1      32.593 -34.492 -27.942  0.00  0.00    -0.005 C 
ATOM      6  C   UNL     1      32.587 -33.324 -28.904  0.00  0.00    +0.025 A 
ATOM      7  N   UNL     1      31.780 -32.259 -28.558  0.00  0.00    -0.326 N 
ATOM      8  C   UNL     1      31.625 -31.124 -29.309  0.00  0.00    +0.249 A 
ATOM      9  O   UNL     1      30.901 -30.195 -28.972  0.00  0.00    -0.268 OA
ATOM     10  C   UNL     1      32.383 -31.087 -30.579  0.00  0.00    +0.003 A 
ATOM     11  C   UNL     1      33.165 -32.121 -30.916  0.00  0.00    -0.050 A 
ATOM     12  C   UNL     1      33.302 -33.295 -30.055  0.00  0.00    -0.007 A 
ATOM     13  C   UNL     1      34.226 -34.473 -30.479  0.00  0.00    +0.053 C 
ATOM     14  C   UNL     1      33.415 -35.393 -31.457  0.00  0.00    -0.009 C 
ATOM     15  N   UNL     1      35.473 -33.964 -31.107  0.00  0.00    -0.306 N 
ATOM     16  C   UNL     1      36.498 -34.983 -31.354  0.00  0.00    -0.003 C 
ATOM     17  C   UNL     1      36.851 -35.805 -30.119  0.00  0.00    -0.040 C 
ATOM     18  C   UNL     1      35.604 -36.393 -29.470  0.00  0.00    -0.047 C 
ATOM     19  C   UNL     1      34.612 -35.258 -29.191  0.00  0.00    -0.012 C 
ATOM     20  H   UNL     1      31.282 -32.319 -27.712  0.00  0.00    +0.000 HD
ATOM     21  H   UNL     1      35.871 -33.255 -30.492  0.00  0.00    +0.000 HD
ATOM     22  H   UNL     1      35.204 -33.599 -32.021  0.00  0.00    +0.000 HD
ENDROOT
TORSDOF 0
ENDMDL
MODEL 16
REMARK VINA RESULT:    -5.905      1.763      2.586
REMARK INTER + INTRA:          -5.905
REMARK INTER:                  -5.905
REMARK INTRA:                   0.000
REMARK UNBOUND:                 0.000
REMARK  Name = cpd165.pdb
REMARK  1 active torsions:
REMARK  status: ('A' for Active; 'I' for Inactive)
REMARK    1  A    between atoms: C_1  and  C_2
REMARK                            x       y       z     vdW  Elec       q    Type
REMARK                         _______ _______ _______ _____ _____    ______ ____
ROOT
ATOM      1  C   UNL     1      45.448 -19.386 -36.458  0.00  0.00    -0.044 C 
ATOM      2  C   UNL     1      44.933 -19.337 -37.866  0.00  0.00    -0.074 C 
ATOM      3  C   UNL     1      43.882 -20.071 -38.273  0.00  0.00    -0.081 C 
ATOM      4  C   UNL     1      43.343 -20.040 -39.686  0.00  0.00    -0.013 C 
ATOM      5  C   UNL     1      43.915 -21.227 -40.487  0.00  0.00    -0.005 C 
ATOM      6  C   UNL     1      45.321 -20.980 -40.988  0.00  0.00    +0.025 A 
ATOM      7  N   UNL     1      45.973 -22.070 -41.525  0.00  0.00    -0.326 N 
ATOM      8  C   UNL     1      47.255 -22.051 -42.009  0.00  0.00    +0.249 A 
ATOM      9  O   UNL     1      47.804 -23.038 -42.483  0.00  0.00    -0.268 OA
ATOM     10  C   UNL     1      47.955 -20.751 -41.916  0.00  0.00    +0.003 A 
ATOM     11  C   UNL     1      47.323 -19.692 -41.392  0.00  0.00    -0.050 A 
ATOM     12  C   UNL     1      45.944 -19.778 -40.913  0.00  0.00    -0.007 A 
ATOM     13  C   UNL     1      45.243 -18.523 -40.318  0.00  0.00    +0.053 C 
ATOM     14  C   UNL     1      45.667 -18.404 -38.812  0.00  0.00    -0.009 C 
ATOM     15  N   UNL     1      45.600 -17.305 -41.089  0.00  0.00    -0.306 N 
ATOM     16  C   UNL     1      44.832 -16.106 -40.738  0.00  0.00    -0.003 C 
ATOM     17  C   UNL     1      43.322 -16.313 -40.786  0.00  0.00    -0.040 C 
ATOM     18  C   UNL     1      42.902 -17.524 -39.963  0.00  0.00    -0.047 C 
ATOM     19  C   UNL     1      43.705 -18.743 -40.433  0.00  0.00    -0.012 C 
ATOM     20  H   UNL     1      45.483 -22.923 -41.565  0.00  0.00    +0.000 HD
ATOM     21  H   UNL     1      45.449 -17.501 -42.079  0.00  0.00    +0.000 HD
ATOM     22  H   UNL     1      46.574 -17.099 -40.864  0.00  0.00    +0.000 HD
ENDROOT
TORSDOF 0
ENDMDL
MODEL 17
REMARK VINA RESULT:    -5.867      2.973      5.379
REMARK INTER + INTRA:          -5.867
REMARK INTER:                  -5.867
REMARK INTRA:                   0.000
REMARK UNBOUND:                 0.000
REMARK  Name = cpd165.pdb
REMARK  1 active torsions:
REMARK  status: ('A' for Active; 'I' for Inactive)
REMARK    1  A    between atoms: C_1  and  C_2
REMARK                            x       y       z     vdW  Elec       q    Type
REMARK                         _______ _______ _______ _____ _____    ______ ____
ROOT
ATOM      1  C   UNL     1      43.224 -20.747 -37.214  0.00  0.00    -0.044 C 
ATOM      2  C   UNL     1      44.389 -20.404 -38.096  0.00  0.00    -0.074 C 
ATOM      3  C   UNL     1      45.562 -19.972 -37.600  0.00  0.00    -0.081 C 
ATOM      4  C   UNL     1      46.751 -19.619 -38.465  0.00  0.00    -0.013 C 
ATOM      5  C   UNL     1      46.795 -18.095 -38.693  0.00  0.00    -0.005 C 
ATOM      6  C   UNL     1      45.837 -17.630 -39.769  0.00  0.00    +0.025 A 
ATOM      7  N   UNL     1      45.667 -16.266 -39.880  0.00  0.00    -0.326 N 
ATOM      8  C   UNL     1      44.829 -15.656 -40.775  0.00  0.00    +0.249 A 
ATOM      9  O   UNL     1      44.702 -14.439 -40.849  0.00  0.00    -0.268 OA
ATOM     10  C   UNL     1      44.062 -16.564 -41.656  0.00  0.00    +0.003 A 
ATOM     11  C   UNL     1      44.226 -17.889 -41.548  0.00  0.00    -0.050 A 
ATOM     12  C   UNL     1      45.156 -18.473 -40.582  0.00  0.00    -0.007 A 
ATOM     13  C   UNL     1      45.323 -20.017 -40.493  0.00  0.00    +0.053 C 
ATOM     14  C   UNL     1      44.169 -20.574 -39.587  0.00  0.00    -0.009 C 
ATOM     15  N   UNL     1      45.305 -20.628 -41.847  0.00  0.00    -0.306 N 
ATOM     16  C   UNL     1      45.660 -22.050 -41.886  0.00  0.00    -0.003 C 
ATOM     17  C   UNL     1      46.987 -22.366 -41.204  0.00  0.00    -0.040 C 
ATOM     18  C   UNL     1      47.031 -21.804 -39.789  0.00  0.00    -0.047 C 
ATOM     19  C   UNL     1      46.709 -20.306 -39.844  0.00  0.00    -0.012 C 
ATOM     20  H   UNL     1      46.185 -15.689 -39.273  0.00  0.00    +0.000 HD
ATOM     21  H   UNL     1      45.966 -20.119 -42.433  0.00  0.00    +0.000 HD
ATOM     22  H   UNL     1      44.342 -20.564 -42.177  0.00  0.00    +0.000 HD
ENDROOT
TORSDOF 0
ENDMDL
MODEL 18
REMARK VINA RESULT:    -5.749      7.029      9.568
REMARK INTER + INTRA:          -5.749
REMARK INTER:                  -5.749
REMARK INTRA:                   0.000
REMARK UNBOUND:                 0.000
REMARK  Name = cpd165.pdb
REMARK  1 active torsions:
REMARK  status: ('A' for Active; 'I' for Inactive)
REMARK    1  A    between atoms: C_1  and  C_2
REMARK                            x       y       z     vdW  Elec       q    Type
REMARK                         _______ _______ _______ _____ _____    ______ ____
ROOT
ATOM      1  C   UNL     1      41.921 -19.413 -32.864  0.00  0.00    -0.044 C 
ATOM      2  C   UNL     1      40.719 -20.215 -33.272  0.00  0.00    -0.074 C 
ATOM      3  C   UNL     1      40.564 -21.504 -32.920  0.00  0.00    -0.081 C 
ATOM      4  C   UNL     1      39.363 -22.334 -33.317  0.00  0.00    -0.013 C 
ATOM      5  C   UNL     1      39.703 -23.178 -34.562  0.00  0.00    -0.005 C 
ATOM      6  C   UNL     1      39.619 -22.389 -35.851  0.00  0.00    +0.025 A 
ATOM      7  N   UNL     1      40.113 -23.015 -36.977  0.00  0.00    -0.326 N 
ATOM      8  C   UNL     1      40.145 -22.457 -38.228  0.00  0.00    +0.249 A 
ATOM      9  O   UNL     1      40.589 -23.042 -39.208  0.00  0.00    -0.268 OA
ATOM     10  C   UNL     1      39.616 -21.079 -38.327  0.00  0.00    +0.003 A 
ATOM     11  C   UNL     1      39.138 -20.470 -37.234  0.00  0.00    -0.050 A 
ATOM     12  C   UNL     1      39.114 -21.134 -35.932  0.00  0.00    -0.007 A 
ATOM     13  C   UNL     1      38.544 -20.395 -34.687  0.00  0.00    +0.053 C 
ATOM     14  C   UNL     1      39.682 -19.485 -34.105  0.00  0.00    -0.009 C 
ATOM     15  N   UNL     1      37.339 -19.606 -35.050  0.00  0.00    -0.306 N 
ATOM     16  C   UNL     1      36.608 -19.039 -33.911  0.00  0.00    -0.003 C 
ATOM     17  C   UNL     1      36.240 -20.069 -32.849  0.00  0.00    -0.040 C 
ATOM     18  C   UNL     1      37.459 -20.869 -32.406  0.00  0.00    -0.047 C 
ATOM     19  C   UNL     1      38.128 -21.475 -33.646  0.00  0.00    -0.012 C 
ATOM     20  H   UNL     1      40.467 -23.928 -36.875  0.00  0.00    +0.000 HD
ATOM     21  H   UNL     1      36.703 -20.216 -35.563  0.00  0.00    +0.000 HD
ATOM     22  H   UNL     1      37.670 -18.814 -35.601  0.00  0.00    +0.000 HD
ENDROOT
TORSDOF 0
ENDMDL
MODEL 19
REMARK VINA RESULT:    -5.459      6.052      8.590
REMARK INTER + INTRA:          -5.459
REMARK INTER:                  -5.459
REMARK INTRA:                   0.000
REMARK UNBOUND:                 0.000
REMARK  Name = cpd165.pdb
REMARK  1 active torsions:
REMARK  status: ('A' for Active; 'I' for Inactive)
REMARK    1  A    between atoms: C_1  and  C_2
REMARK                            x       y       z     vdW  Elec       q    Type
REMARK                         _______ _______ _______ _____ _____    ______ ____
ROOT
ATOM      1  C   UNL     1      39.546 -17.455 -35.485  0.00  0.00    -0.044 C 
ATOM      2  C   UNL     1      40.270 -18.495 -34.682  0.00  0.00    -0.074 C 
ATOM      3  C   UNL     1      40.596 -18.307 -33.391  0.00  0.00    -0.081 C 
ATOM      4  C   UNL     1      41.326 -19.339 -32.559  0.00  0.00    -0.013 C 
ATOM      5  C   UNL     1      42.831 -19.008 -32.524  0.00  0.00    -0.005 C 
ATOM      6  C   UNL     1      43.563 -19.454 -33.772  0.00  0.00    +0.025 A 
ATOM      7  N   UNL     1      44.861 -19.006 -33.905  0.00  0.00    -0.326 N 
ATOM      8  C   UNL     1      45.675 -19.284 -34.971  0.00  0.00    +0.249 A 
ATOM      9  O   UNL     1      46.826 -18.871 -35.057  0.00  0.00    -0.268 OA
ATOM     10  C   UNL     1      45.074 -20.114 -36.037  0.00  0.00    +0.003 A 
ATOM     11  C   UNL     1      43.813 -20.548 -35.909  0.00  0.00    -0.050 A 
ATOM     12  C   UNL     1      43.006 -20.232 -34.731  0.00  0.00    -0.007 A 
ATOM     13  C   UNL     1      41.547 -20.761 -34.618  0.00  0.00    +0.053 C 
ATOM     14  C   UNL     1      40.616 -19.780 -35.412  0.00  0.00    -0.009 C 
ATOM     15  N   UNL     1      41.450 -22.151 -35.132  0.00  0.00    -0.306 N 
ATOM     16  C   UNL     1      40.166 -22.813 -34.880  0.00  0.00    -0.003 C 
ATOM     17  C   UNL     1      39.741 -22.782 -33.416  0.00  0.00    -0.040 C 
ATOM     18  C   UNL     1      39.774 -21.365 -32.858  0.00  0.00    -0.047 C 
ATOM     19  C   UNL     1      41.164 -20.769 -33.108  0.00  0.00    -0.012 C 
ATOM     20  H   UNL     1      45.229 -18.448 -33.182  0.00  0.00    +0.000 HD
ATOM     21  H   UNL     1      42.184 -22.705 -34.690  0.00  0.00    +0.000 HD
ATOM     22  H   UNL     1      41.547 -22.089 -36.146  0.00  0.00    +0.000 HD
ENDROOT
TORSDOF 0
ENDMDL
MODEL 20
REMARK VINA RESULT:    -5.419     17.062     20.157
REMARK INTER + INTRA:          -5.419
REMARK INTER:                  -5.419
REMARK INTRA:                   0.000
REMARK UNBOUND:                 0.000
REMARK  Name = cpd165.pdb
REMARK  1 active torsions:
REMARK  status: ('A' for Active; 'I' for Inactive)
REMARK    1  A    between atoms: C_1  and  C_2
REMARK                            x       y       z     vdW  Elec       q    Type
REMARK                         _______ _______ _______ _____ _____    ______ ____
ROOT
ATOM      1  C   UNL     1      48.620 -36.789 -57.113  0.00  0.00    -0.044 C 
ATOM      2  C   UNL     1      47.389 -36.281 -56.421  0.00  0.00    -0.074 C 
ATOM      3  C   UNL     1      46.333 -35.797 -57.099  0.00  0.00    -0.081 C 
ATOM      4  C   UNL     1      45.080 -35.279 -56.428  0.00  0.00    -0.013 C 
ATOM      5  C   UNL     1      45.147 -33.743 -56.315  0.00  0.00    -0.005 C 
ATOM      6  C   UNL     1      45.998 -33.272 -55.155  0.00  0.00    +0.025 A 
ATOM      7  N   UNL     1      46.277 -31.921 -55.118  0.00  0.00    -0.326 N 
ATOM      8  C   UNL     1      47.047 -31.311 -54.164  0.00  0.00    +0.249 A 
ATOM      9  O   UNL     1      47.273 -30.107 -54.159  0.00  0.00    -0.268 OA
ATOM     10  C   UNL     1      47.608 -32.204 -53.127  0.00  0.00    +0.003 A 
ATOM     11  C   UNL     1      47.339 -33.515 -53.163  0.00  0.00    -0.050 A 
ATOM     12  C   UNL     1      46.490 -34.098 -54.201  0.00  0.00    -0.007 A 
ATOM     13  C   UNL     1      46.196 -35.626 -54.204  0.00  0.00    +0.053 C 
ATOM     14  C   UNL     1      47.400 -36.347 -54.905  0.00  0.00    -0.009 C 
ATOM     15  N   UNL     1      45.985 -36.124 -52.820  0.00  0.00    -0.306 N 
ATOM     16  C   UNL     1      45.499 -37.505 -52.730  0.00  0.00    -0.003 C 
ATOM     17  C   UNL     1      44.247 -37.766 -53.560  0.00  0.00    -0.040 C 
ATOM     18  C   UNL     1      44.435 -37.319 -55.004  0.00  0.00    -0.047 C 
ATOM     19  C   UNL     1      44.884 -35.853 -55.012  0.00  0.00    -0.012 C 
ATOM     20  H   UNL     1      45.896 -31.356 -55.829  0.00  0.00    +0.000 HD
ATOM     21  H   UNL     1      45.304 -35.517 -52.365  0.00  0.00    +0.000 HD
ATOM     22  H   UNL     1      46.900 -36.112 -52.369  0.00  0.00    +0.000 HD
ENDROOT
TORSDOF 0
ENDMDL
