REMARK  Name = cpd17.pdb
REMARK  18 active torsions:
REMARK  status: ('A' for Active; 'I' for Inactive)
REMARK    1  A    between atoms: C_1  and  C_2
REMARK    2  A    between atoms: C_6  and  N_7
REMARK    3  A    between atoms: N_7  and  C_8
REMARK    4  A    between atoms: C_13  and  C_14
REMARK    5  A    between atoms: N_16  and  C_17
REMARK    6  A    between atoms: C_17  and  C_18
REMARK    7  A    between atoms: C_18  and  C_19
REMARK    8  A    between atoms: C_19  and  C_20
REMARK    9  A    between atoms: N_22  and  C_23
REMARK   10  A    between atoms: C_23  and  C_24
REMARK   11  A    between atoms: C_24  and  C_25
REMARK   12  A    between atoms: C_25  and  C_26
REMARK   13  A    between atoms: C_26  and  C_27
REMARK   14  A    between atoms: C_27  and  C_28
REMARK   15  A    between atoms: C_28  and  C_29
REMARK   16  A    between atoms: C_29  and  N_30
REMARK   17  A    between atoms: N_30  and  C_31
REMARK   18  A    between atoms: C_46  and  C_47
REMARK                            x       y       z     vdW  Elec       q    Type
REMARK                         _______ _______ _______ _____ _____    ______ ____
ROOT
ATOM      1  C   UNL A   1      -4.991  -5.543  -0.415  0.00  0.00    +0.213 C 
ATOM      2  O   UNL A   1      -4.709  -6.279   0.523  0.00  0.00    -0.276 OA
ATOM      3  N   UNL A   1      -5.986  -5.816  -1.329  0.00  0.00    -0.315 N 
ATOM      4  H   UNL A   1      -6.157  -5.170  -2.052  0.00  0.00    +0.000 HD
ENDROOT
BRANCH   1   5
ATOM      5  C   UNL A   1      -4.298  -4.222  -0.689  0.00  0.00    +0.025 C 
BRANCH   5   6
ATOM      6  C   UNL A   1      -3.091  -4.002   0.222  0.00  0.00    -0.029 C 
BRANCH   6   7
ATOM      7  C   UNL A   1      -2.405  -2.659  -0.028  0.00  0.00    +0.012 C 
BRANCH   7  10
ATOM      8  C   UNL A   1      -0.765  -3.137  -1.899  0.00  0.00    +0.246 C 
ATOM      9  O   UNL A   1      -0.634  -3.265  -3.112  0.00  0.00    -0.270 OA
ATOM     10  N   UNL A   1      -1.890  -2.538  -1.384  0.00  0.00    -0.311 N 
ATOM     11  H   UNL A   1      -2.403  -1.965  -1.999  0.00  0.00    +0.000 HD
BRANCH   8  17
ATOM     12  C   UNL A   1       1.045  -2.730  -0.195  0.00  0.00    +0.044 A 
ATOM     13  C   UNL A   1       2.002  -3.288   0.668  0.00  0.00    -0.040 A 
ATOM     14  C   UNL A   1       2.243  -4.666   0.692  0.00  0.00    -0.060 A 
ATOM     15  C   UNL A   1       1.523  -5.519  -0.140  0.00  0.00    -0.061 A 
ATOM     16  C   UNL A   1       0.544  -4.996  -0.982  0.00  0.00    -0.048 A 
ATOM     17  C   UNL A   1       0.287  -3.618  -0.983  0.00  0.00    +0.058 A 
BRANCH  12  18
ATOM     18  N   UNL A   1       0.801  -1.332  -0.191  0.00  0.00    -0.314 N 
ATOM     19  H   UNL A   1      -0.137  -1.058  -0.312  0.00  0.00    +0.000 HD
BRANCH  18  25
ATOM     20  C   UNL A   1       1.803   3.420   1.011  0.00  0.00    -0.039 C 
ATOM     21  C   UNL A   1       2.213   2.061   0.507  0.00  0.00    -0.046 A 
ATOM     22  C   UNL A   1       3.538   1.874   0.087  0.00  0.00    -0.058 A 
ATOM     23  C   UNL A   1       3.960   0.643  -0.405  0.00  0.00    -0.060 A 
ATOM     24  C   UNL A   1       3.063  -0.419  -0.479  0.00  0.00    -0.040 A 
ATOM     25  C   UNL A   1       1.740  -0.278  -0.035  0.00  0.00    +0.035 A 
ATOM     26  C   UNL A   1       1.308   0.974   0.467  0.00  0.00    -0.026 A 
ATOM     27  C   UNL A   1      -0.125   1.154   0.908  0.00  0.00    -0.038 C 
ENDBRANCH  18  25
ENDBRANCH  12  18
ENDBRANCH   8  17
ENDBRANCH   7  10
ENDBRANCH   6   7
ENDBRANCH   5   6
ENDBRANCH   1   5
BRANCH   3  28
ATOM     28  C   UNL A   1      -6.788  -7.020  -1.264  0.00  0.00    +0.012 C 
BRANCH  28  29
ATOM     29  C   UNL A   1      -7.936  -6.922  -0.260  0.00  0.00    -0.037 C 
BRANCH  29  30
ATOM     30  C   UNL A   1      -8.901  -5.774  -0.573  0.00  0.00    -0.052 C 
BRANCH  30  31
ATOM     31  C   UNL A   1     -10.140  -5.829   0.325  0.00  0.00    -0.053 C 
BRANCH  31  32
ATOM     32  C   UNL A   1     -11.022  -4.594   0.128  0.00  0.00    -0.052 C 
BRANCH  32  33
ATOM     33  C   UNL A   1     -12.310  -4.646   0.954  0.00  0.00    -0.037 C 
BRANCH  33  34
ATOM     34  C   UNL A   1     -13.369  -5.565   0.340  0.00  0.00    +0.009 C 
BRANCH  34  35
ATOM     35  N   UNL A   1     -14.557  -5.577   1.207  0.00  0.00    -0.343 N 
ATOM     36  H   UNL A   1     -14.608  -5.131   2.083  0.00  0.00    +0.000 HD
BRANCH  35  37
ATOM     37  C   UNL A   1     -15.627  -6.316   0.620  0.00  0.00    +0.041 A 
ATOM     38  C   UNL A   1     -15.733  -7.693   0.900  0.00  0.00    -0.005 A 
ATOM     39  C   UNL A   1     -16.766  -8.402   0.284  0.00  0.00    +0.047 A 
ATOM     40  N   UNL A   1     -17.630  -7.838  -0.593  0.00  0.00    -0.251 NA
ATOM     41  C   UNL A   1     -17.520  -6.535  -0.872  0.00  0.00    +0.074 A 
ATOM     42  C   UNL A   1     -18.428  -5.993  -1.770  0.00  0.00    -0.017 A 
ATOM     43  C   UNL A   1     -18.385  -4.647  -2.122  0.00  0.00    +0.043 A 
ATOM     44 CL   UNL A   1     -19.528  -4.014  -3.240  0.00  0.00    -0.083 Cl
ATOM     45  C   UNL A   1     -17.421  -3.813  -1.576  0.00  0.00    -0.043 A 
ATOM     46  C   UNL A   1     -16.500  -4.340  -0.672  0.00  0.00    -0.049 A 
ATOM     47  C   UNL A   1     -16.530  -5.708  -0.300  0.00  0.00    +0.022 A 
ATOM     48  C   UNL A   1     -16.959  -9.879   0.512  0.00  0.00    -0.010 C 
ATOM     49  C   UNL A   1     -16.315 -10.380   1.799  0.00  0.00    -0.047 C 
ATOM     50  C   UNL A   1     -14.880  -9.883   1.885  0.00  0.00    -0.049 C 
ATOM     51  C   UNL A   1     -14.844  -8.356   1.927  0.00  0.00    -0.024 C 
ENDBRANCH  35  37
ENDBRANCH  34  35
ENDBRANCH  33  34
ENDBRANCH  32  33
ENDBRANCH  31  32
ENDBRANCH  30  31
ENDBRANCH  29  30
ENDBRANCH  28  29
ENDBRANCH   3  28
TORSDOF 16
