@<TRIPOS>MOLECULE
*****
 47 51 0 0 0
SMALL
GASTEIGER

@<TRIPOS>ATOM
      1 C           0.8660    1.5000    0.0000 C.3     1  UNL1        0.0307
      2 C           0.8660    0.5000    0.0000 C.ar    1  UNL1       -0.0245
      3 C           1.7321   -0.0000    0.0000 C.ar    1  UNL1       -0.0045
      4 C           1.7321   -1.0000    0.0000 C.ar    1  UNL1        0.0010
      5 C           0.8660   -1.5000    0.0000 C.ar    1  UNL1        0.0162
      6 C          -0.0000   -1.0000    0.0000 C.ar    1  UNL1        0.0662
      7 N          -0.8660   -1.5000    0.0000 N.pl3   1  UNL1       -0.2127
      8 C          -0.8660   -2.5000    0.0000 C.ar    1  UNL1        0.0749
      9 C          -0.0000   -3.0000    0.0000 C.ar    1  UNL1        0.0167
     10 C          -0.0000   -4.0000    0.0000 C.ar    1  UNL1        0.0013
     11 C          -0.8660   -4.5000    0.0000 C.ar    1  UNL1        0.0002
     12 C          -1.7321   -4.0000    0.0000 C.ar    1  UNL1        0.0059
     13 C          -1.7321   -3.0000    0.0000 C.ar    1  UNL1        0.0702
     14 C          -2.5981   -2.5000    0.0000 C.2     1  UNL1        0.2660
     15 O          -2.5981   -1.5000    0.0000 O.2     1  UNL1       -0.2683
     16 N          -3.4641   -3.0000    0.0000 N.am    1  UNL1       -0.2016
     17 C          -3.4641   -4.0000    0.0000 C.3     1  UNL1        0.1160
     18 C          -4.3301   -4.5000    0.0000 C.3     1  UNL1        0.0331
     19 C          -5.1962   -4.0000    0.0000 C.3     1  UNL1        0.0886
     20 C          -6.0622   -4.5000    0.0000 C.2     1  UNL1        0.2414
     21 O          -6.9282   -4.0000    0.0000 O.2     1  UNL1       -0.2733
     22 N          -6.0622   -5.5000    0.0000 N.am    1  UNL1       -0.2054
     23 C          -6.9282   -6.0000    0.0000 C.3     1  UNL1        0.1151
     24 C          -7.7942   -5.5000    0.0000 C.3     1  UNL1        0.0234
     25 C          -8.6603   -6.0000    0.0000 C.3     1  UNL1        0.0018
     26 C          -9.5263   -5.5000    0.0000 C.3     1  UNL1        0.0001
     27 C         -10.3923   -6.0000    0.0000 C.3     1  UNL1        0.0018
     28 C         -11.2583   -5.5000    0.0000 C.3     1  UNL1        0.0233
     29 C         -12.1244   -6.0000    0.0000 C.3     1  UNL1        0.1122
     30 N         -12.9904   -5.5000    0.0000 N.pl3   1  UNL1       -0.2378
     31 C         -13.8564   -6.0000    0.0000 C.ar    1  UNL1        0.0638
     32 C         -13.8564   -7.0000    0.0000 C.ar    1  UNL1        0.0062
     33 C         -14.7224   -7.5000    0.0000 C.ar    1  UNL1        0.0562
     34 N         -15.5885   -7.0000    0.0000 N.ar    1  UNL1       -0.2499
     35 C         -15.5885   -6.0000    0.0000 C.ar    1  UNL1        0.0829
     36 C         -16.4545   -5.5000    0.0000 C.ar    1  UNL1        0.0305
     37 C         -16.4545   -4.5000    0.0000 C.ar    1  UNL1        0.0592
     38 CL        -17.3205   -4.0000    0.0000 Cl      1  UNL1       -0.0822
     39 C         -15.5885   -4.0000    0.0000 C.ar    1  UNL1        0.0115
     40 C         -14.7224   -4.5000    0.0000 C.ar    1  UNL1        0.0036
     41 C         -14.7224   -5.5000    0.0000 C.ar    1  UNL1        0.0323
     42 C         -14.7224   -8.5000    0.0000 C.3     1  UNL1        0.0455
     43 C         -13.8564   -9.0000    0.0000 C.3     1  UNL1        0.0066
     44 C         -12.9904   -8.5000    0.0000 C.3     1  UNL1        0.0052
     45 C         -12.9904   -7.5000    0.0000 C.3     1  UNL1        0.0289
     46 C           0.0000   -0.0000    0.0000 C.ar    1  UNL1       -0.0105
     47 C          -0.8660    0.5000    0.0000 C.3     1  UNL1        0.0321
@<TRIPOS>BOND
     1     1     2    1
     2     2     3   ar
     3     3     4   ar
     4     4     5   ar
     5     5     6   ar
     6     6     7    1
     7     7     8    1
     8     8     9   ar
     9     9    10   ar
    10    10    11   ar
    11    11    12   ar
    12    12    13   ar
    13     8    13   ar
    14    13    14    1
    15    14    15    2
    16    14    16   am
    17    16    17    1
    18    17    18    1
    19    18    19    1
    20    19    20    1
    21    20    21    2
    22    20    22   am
    23    22    23    1
    24    23    24    1
    25    24    25    1
    26    25    26    1
    27    26    27    1
    28    27    28    1
    29    28    29    1
    30    29    30    1
    31    30    31    1
    32    31    32   ar
    33    32    33   ar
    34    33    34   ar
    35    34    35   ar
    36    35    36   ar
    37    36    37   ar
    38    37    38    1
    39    37    39   ar
    40    39    40   ar
    41    40    41   ar
    42    31    41   ar
    43    35    41   ar
    44    33    42    1
    45    42    43    1
    46    43    44    1
    47    44    45    1
    48    32    45    1
    49     6    46   ar
    50     2    46   ar
    51    46    47    1
