MODEL 1
REMARK VINA RESULT:    -7.394      0.000      0.000
REMARK INTER + INTRA:         -18.223
REMARK INTER:                 -13.446
REMARK INTRA:                  -4.777
REMARK UNBOUND:                -4.777
REMARK  Name = cpd47.pdb
REMARK  16 active torsions:
REMARK  status: ('A' for Active; 'I' for Inactive)
REMARK    1  A    between atoms: C_1  and  C_2
REMARK    2  A    between atoms: C_6  and  N_7
REMARK    3  A    between atoms: N_7  and  C_8
REMARK    4  A    between atoms: C_13  and  C_14
REMARK    5  A    between atoms: N_16  and  C_17
REMARK    6  A    between atoms: C_17  and  C_18
REMARK    7  A    between atoms: C_18  and  C_19
REMARK    8  A    between atoms: C_19  and  C_20
REMARK    9  A    between atoms: C_20  and  C_21
REMARK   10  A    between atoms: C_21  and  C_22
REMARK   11  A    between atoms: N_24  and  C_25
REMARK   12  A    between atoms: C_25  and  C_26
REMARK   13  A    between atoms: C_26  and  C_27
REMARK   14  A    between atoms: C_27  and  N_28
REMARK   15  A    between atoms: N_28  and  C_29
REMARK   16  A    between atoms: C_44  and  C_45
REMARK                            x       y       z     vdW  Elec       q    Type
REMARK                         _______ _______ _______ _____ _____    ______ ____
ROOT
ATOM      1  C   UNL A   1      43.493 -17.180 -34.151  0.00  0.00    +0.024 C 
ENDROOT
BRANCH   1   2
ATOM      2  C   UNL A   1      44.886 -17.688 -33.833  0.00  0.00    +0.213 C 
ATOM      3  O   UNL A   1      45.298 -17.893 -32.699  0.00  0.00    -0.276 OA
ATOM      4  N   UNL A   1      45.642 -17.897 -34.968  0.00  0.00    -0.315 N 
ATOM      5  H   UNL A   1      45.243 -17.708 -35.848  0.00  0.00    +0.000 HD
BRANCH   4   6
ATOM      6  C   UNL A   1      47.005 -18.386 -34.907  0.00  0.00    +0.013 C 
BRANCH   6   7
ATOM      7  C   UNL A   1      47.110 -19.839 -35.361  0.00  0.00    -0.022 C 
BRANCH   7   8
ATOM      8  C   UNL A   1      46.356 -20.052 -36.671  0.00  0.00    +0.011 C 
BRANCH   8   9
ATOM      9  N   UNL A   1      47.261 -19.810 -37.804  0.00  0.00    -0.343 N 
ATOM     10  H   UNL A   1      48.222 -19.616 -37.711  0.00  0.00    +0.000 HD
BRANCH   9  11
ATOM     11  C   UNL A   1      46.575 -19.890 -39.053  0.00  0.00    +0.041 A 
ATOM     12  C   UNL A   1      46.863 -20.965 -39.917  0.00  0.00    -0.005 A 
ATOM     13  C   UNL A   1      46.210 -20.998 -41.149  0.00  0.00    +0.047 A 
ATOM     14  N   UNL A   1      45.358 -20.029 -41.562  0.00  0.00    -0.251 NA
ATOM     15  C   UNL A   1      45.096 -19.000 -40.749  0.00  0.00    +0.074 A 
ATOM     16  C   UNL A   1      44.213 -18.032 -41.205  0.00  0.00    -0.017 A 
ATOM     17  C   UNL A   1      43.887 -16.925 -40.427  0.00  0.00    +0.043 A 
ATOM     18 CL   UNL A   1      42.788 -15.746 -41.028  0.00  0.00    -0.083 Cl
ATOM     19  C   UNL A   1      44.444 -16.767 -39.167  0.00  0.00    -0.043 A 
ATOM     20  C   UNL A   1      45.335 -17.729 -38.692  0.00  0.00    -0.049 A 
ATOM     21  C   UNL A   1      45.678 -18.865 -39.471  0.00  0.00    +0.022 A 
ATOM     22  C   UNL A   1      46.454 -22.100 -42.147  0.00  0.00    -0.010 C 
ATOM     23  C   UNL A   1      47.015 -23.370 -41.516  0.00  0.00    -0.047 C 
ATOM     24  C   UNL A   1      48.192 -23.022 -40.619  0.00  0.00    -0.049 C 
ATOM     25  C   UNL A   1      47.745 -22.110 -39.476  0.00  0.00    -0.024 C 
ENDBRANCH   9  11
ENDBRANCH   8   9
ENDBRANCH   7   8
ENDBRANCH   6   7
ENDBRANCH   4   6
ENDBRANCH   1   2
BRANCH   1  26
ATOM     26  C   UNL A   1      42.780 -18.033 -35.197  0.00  0.00    -0.045 C 
BRANCH  26  27
ATOM     27  C   UNL A   1      41.651 -18.849 -34.565  0.00  0.00    -0.051 C 
BRANCH  27  28
ATOM     28  C   UNL A   1      42.106 -20.272 -34.227  0.00  0.00    -0.037 C 
BRANCH  28  29
ATOM     29  C   UNL A   1      41.465 -20.802 -32.943  0.00  0.00    +0.012 C 
BRANCH  29  32
ATOM     30  C   UNL A   1      39.702 -22.419 -33.766  0.00  0.00    +0.246 C 
ATOM     31  O   UNL A   1      39.523 -23.532 -34.249  0.00  0.00    -0.270 OA
ATOM     32  N   UNL A   1      40.880 -22.125 -33.118  0.00  0.00    -0.311 N 
ATOM     33  H   UNL A   1      41.377 -22.884 -32.736  0.00  0.00    +0.000 HD
BRANCH  30  39
ATOM     34  C   UNL A   1      38.280 -20.829 -35.115  0.00  0.00    +0.044 A 
ATOM     35  C   UNL A   1      37.263 -19.863 -35.112  0.00  0.00    -0.040 A 
ATOM     36  C   UNL A   1      36.674 -19.428 -33.919  0.00  0.00    -0.060 A 
ATOM     37  C   UNL A   1      37.092 -19.955 -32.699  0.00  0.00    -0.061 A 
ATOM     38  C   UNL A   1      38.084 -20.931 -32.673  0.00  0.00    -0.048 A 
ATOM     39  C   UNL A   1      38.653 -21.384 -33.872  0.00  0.00    +0.058 A 
BRANCH  34  40
ATOM     40  N   UNL A   1      38.877 -21.249 -36.327  0.00  0.00    -0.314 N 
ATOM     41  H   UNL A   1      38.605 -22.144 -36.636  0.00  0.00    +0.000 HD
BRANCH  40  47
ATOM     42  C   UNL A   1      43.276 -21.182 -38.710  0.00  0.00    -0.039 C 
ATOM     43  C   UNL A   1      41.968 -20.550 -38.316  0.00  0.00    -0.046 A 
ATOM     44  C   UNL A   1      41.693 -19.250 -38.763  0.00  0.00    -0.058 A 
ATOM     45  C   UNL A   1      40.503 -18.618 -38.418  0.00  0.00    -0.060 A 
ATOM     46  C   UNL A   1      39.572 -19.278 -37.620  0.00  0.00    -0.040 A 
ATOM     47  C   UNL A   1      39.805 -20.584 -37.166  0.00  0.00    +0.035 A 
ATOM     48  C   UNL A   1      41.007 -21.238 -37.535  0.00  0.00    -0.026 A 
ATOM     49  C   UNL A   1      41.280 -22.643 -37.055  0.00  0.00    -0.038 C 
ENDBRANCH  40  47
ENDBRANCH  34  40
ENDBRANCH  30  39
ENDBRANCH  29  32
ENDBRANCH  28  29
ENDBRANCH  27  28
ENDBRANCH  26  27
ENDBRANCH   1  26
TORSDOF 14
ENDMDL
MODEL 2
REMARK VINA RESULT:    -7.319      2.409      7.985
REMARK INTER + INTRA:         -18.087
REMARK INTER:                 -13.987
REMARK INTRA:                  -4.100
REMARK UNBOUND:                -4.777
REMARK  Name = cpd47.pdb
REMARK  16 active torsions:
REMARK  status: ('A' for Active; 'I' for Inactive)
REMARK    1  A    between atoms: C_1  and  C_2
REMARK    2  A    between atoms: C_6  and  N_7
REMARK    3  A    between atoms: N_7  and  C_8
REMARK    4  A    between atoms: C_13  and  C_14
REMARK    5  A    between atoms: N_16  and  C_17
REMARK    6  A    between atoms: C_17  and  C_18
REMARK    7  A    between atoms: C_18  and  C_19
REMARK    8  A    between atoms: C_19  and  C_20
REMARK    9  A    between atoms: C_20  and  C_21
REMARK   10  A    between atoms: C_21  and  C_22
REMARK   11  A    between atoms: N_24  and  C_25
REMARK   12  A    between atoms: C_25  and  C_26
REMARK   13  A    between atoms: C_26  and  C_27
REMARK   14  A    between atoms: C_27  and  N_28
REMARK   15  A    between atoms: N_28  and  C_29
REMARK   16  A    between atoms: C_44  and  C_45
REMARK                            x       y       z     vdW  Elec       q    Type
REMARK                         _______ _______ _______ _____ _____    ______ ____
ROOT
ATOM      1  C   UNL A   1      41.697 -19.012 -34.195  0.00  0.00    +0.024 C 
ENDROOT
BRANCH   1   2
ATOM      2  C   UNL A   1      41.110 -19.894 -33.109  0.00  0.00    +0.213 C 
ATOM      3  O   UNL A   1      40.338 -19.496 -32.247  0.00  0.00    -0.276 OA
ATOM      4  N   UNL A   1      41.543 -21.201 -33.200  0.00  0.00    -0.315 N 
ATOM      5  H   UNL A   1      42.167 -21.447 -33.921  0.00  0.00    +0.000 HD
BRANCH   4   6
ATOM      6  C   UNL A   1      41.109 -22.222 -32.270  0.00  0.00    +0.013 C 
BRANCH   6   7
ATOM      7  C   UNL A   1      40.232 -23.274 -32.945  0.00  0.00    -0.022 C 
BRANCH   7   8
ATOM      8  C   UNL A   1      40.374 -23.201 -34.464  0.00  0.00    +0.011 C 
BRANCH   8   9
ATOM      9  N   UNL A   1      39.044 -23.073 -35.076  0.00  0.00    -0.343 N 
ATOM     10  H   UNL A   1      38.401 -23.814 -35.161  0.00  0.00    +0.000 HD
BRANCH   9  11
ATOM     11  C   UNL A   1      38.799 -21.742 -35.531  0.00  0.00    +0.041 A 
ATOM     12  C   UNL A   1      39.382 -21.323 -36.743  0.00  0.00    -0.005 A 
ATOM     13  C   UNL A   1      39.162 -20.004 -37.144  0.00  0.00    +0.047 A 
ATOM     14  N   UNL A   1      38.461 -19.113 -36.406  0.00  0.00    -0.251 NA
ATOM     15  C   UNL A   1      37.920 -19.506 -35.247  0.00  0.00    +0.074 A 
ATOM     16  C   UNL A   1      37.203 -18.565 -34.523  0.00  0.00    -0.017 A 
ATOM     17  C   UNL A   1      36.610 -18.886 -33.305  0.00  0.00    +0.043 A 
ATOM     18 CL   UNL A   1      35.730 -17.691 -32.436  0.00  0.00    -0.083 Cl
ATOM     19  C   UNL A   1      36.728 -20.166 -32.787  0.00  0.00    -0.043 A 
ATOM     20  C   UNL A   1      37.446 -21.125 -33.500  0.00  0.00    -0.049 A 
ATOM     21  C   UNL A   1      38.055 -20.816 -34.744  0.00  0.00    +0.022 A 
ATOM     22  C   UNL A   1      39.748 -19.456 -38.421  0.00  0.00    -0.010 C 
ATOM     23  C   UNL A   1      40.112 -20.539 -39.429  0.00  0.00    -0.047 C 
ATOM     24  C   UNL A   1      40.927 -21.627 -38.746  0.00  0.00    -0.049 C 
ATOM     25  C   UNL A   1      40.108 -22.296 -37.642  0.00  0.00    -0.024 C 
ENDBRANCH   9  11
ENDBRANCH   8   9
ENDBRANCH   7   8
ENDBRANCH   6   7
ENDBRANCH   4   6
ENDBRANCH   1   2
BRANCH   1  26
ATOM     26  C   UNL A   1      42.366 -19.817 -35.307  0.00  0.00    -0.045 C 
BRANCH  26  27
ATOM     27  C   UNL A   1      43.804 -19.347 -35.537  0.00  0.00    -0.051 C 
BRANCH  27  28
ATOM     28  C   UNL A   1      44.011 -17.910 -35.049  0.00  0.00    -0.037 C 
BRANCH  28  29
ATOM     29  C   UNL A   1      45.254 -17.764 -34.168  0.00  0.00    +0.012 C 
BRANCH  29  32
ATOM     30  C   UNL A   1      47.262 -18.864 -35.241  0.00  0.00    +0.246 C 
ATOM     31  O   UNL A   1      48.234 -19.581 -35.028  0.00  0.00    -0.270 OA
ATOM     32  N   UNL A   1      46.204 -18.851 -34.362  0.00  0.00    -0.311 N 
ATOM     33  H   UNL A   1      46.076 -19.656 -33.810  0.00  0.00    +0.000 HD
BRANCH  30  39
ATOM     34  C   UNL A   1      46.891 -18.531 -37.714  0.00  0.00    +0.044 A 
ATOM     35  C   UNL A   1      46.863 -17.634 -38.794  0.00  0.00    -0.040 A 
ATOM     36  C   UNL A   1      47.196 -16.285 -38.629  0.00  0.00    -0.060 A 
ATOM     37  C   UNL A   1      47.564 -15.802 -37.375  0.00  0.00    -0.061 A 
ATOM     38  C   UNL A   1      47.580 -16.664 -36.282  0.00  0.00    -0.048 A 
ATOM     39  C   UNL A   1      47.219 -18.009 -36.445  0.00  0.00    +0.058 A 
BRANCH  34  40
ATOM     40  N   UNL A   1      46.565 -19.895 -37.898  0.00  0.00    -0.314 N 
ATOM     41  H   UNL A   1      46.479 -20.417 -37.067  0.00  0.00    +0.000 HD
BRANCH  40  47
ATOM     42  C   UNL A   1      43.492 -21.356 -41.566  0.00  0.00    -0.039 C 
ATOM     43  C   UNL A   1      44.829 -21.353 -40.874  0.00  0.00    -0.046 A 
ATOM     44  C   UNL A   1      45.860 -22.137 -41.411  0.00  0.00    -0.058 A 
ATOM     45  C   UNL A   1      47.111 -22.177 -40.803  0.00  0.00    -0.060 A 
ATOM     46  C   UNL A   1      47.345 -21.434 -39.649  0.00  0.00    -0.040 A 
ATOM     47  C   UNL A   1      46.344 -20.628 -39.090  0.00  0.00    +0.035 A 
ATOM     48  C   UNL A   1      45.076 -20.568 -39.721  0.00  0.00    -0.026 A 
ATOM     49  C   UNL A   1      43.981 -19.709 -39.135  0.00  0.00    -0.038 C 
ENDBRANCH  40  47
ENDBRANCH  34  40
ENDBRANCH  30  39
ENDBRANCH  29  32
ENDBRANCH  28  29
ENDBRANCH  27  28
ENDBRANCH  26  27
ENDBRANCH   1  26
TORSDOF 14
ENDMDL
MODEL 3
REMARK VINA RESULT:    -7.316     18.257     22.529
REMARK INTER + INTRA:         -18.082
REMARK INTER:                 -14.165
REMARK INTRA:                  -3.916
REMARK UNBOUND:                -4.777
REMARK  Name = cpd47.pdb
REMARK  16 active torsions:
REMARK  status: ('A' for Active; 'I' for Inactive)
REMARK    1  A    between atoms: C_1  and  C_2
REMARK    2  A    between atoms: C_6  and  N_7
REMARK    3  A    between atoms: N_7  and  C_8
REMARK    4  A    between atoms: C_13  and  C_14
REMARK    5  A    between atoms: N_16  and  C_17
REMARK    6  A    between atoms: C_17  and  C_18
REMARK    7  A    between atoms: C_18  and  C_19
REMARK    8  A    between atoms: C_19  and  C_20
REMARK    9  A    between atoms: C_20  and  C_21
REMARK   10  A    between atoms: C_21  and  C_22
REMARK   11  A    between atoms: N_24  and  C_25
REMARK   12  A    between atoms: C_25  and  C_26
REMARK   13  A    between atoms: C_26  and  C_27
REMARK   14  A    between atoms: C_27  and  N_28
REMARK   15  A    between atoms: N_28  and  C_29
REMARK   16  A    between atoms: C_44  and  C_45
REMARK                            x       y       z     vdW  Elec       q    Type
REMARK                         _______ _______ _______ _____ _____    ______ ____
ROOT
ATOM      1  C   UNL A   1      30.706 -34.986 -30.464  0.00  0.00    +0.024 C 
ENDROOT
BRANCH   1   2
ATOM      2  C   UNL A   1      31.589 -33.839 -30.920  0.00  0.00    +0.213 C 
ATOM      3  O   UNL A   1      31.274 -32.659 -30.842  0.00  0.00    -0.276 OA
ATOM      4  N   UNL A   1      32.793 -34.274 -31.434  0.00  0.00    -0.315 N 
ATOM      5  H   UNL A   1      32.976 -35.242 -31.466  0.00  0.00    +0.000 HD
BRANCH   4   6
ATOM      6  C   UNL A   1      33.797 -33.354 -31.928  0.00  0.00    +0.013 C 
BRANCH   6   7
ATOM      7  C   UNL A   1      34.756 -32.911 -30.826  0.00  0.00    -0.022 C 
BRANCH   7   8
ATOM      8  C   UNL A   1      36.155 -33.473 -31.068  0.00  0.00    +0.011 C 
BRANCH   8   9
ATOM      9  N   UNL A   1      36.052 -34.855 -31.557  0.00  0.00    -0.343 N 
ATOM     10  H   UNL A   1      35.495 -35.131 -32.320  0.00  0.00    +0.000 HD
BRANCH   9  11
ATOM     11  C   UNL A   1      36.859 -35.747 -30.788  0.00  0.00    +0.041 A 
ATOM     12  C   UNL A   1      36.341 -36.263 -29.584  0.00  0.00    -0.005 A 
ATOM     13  C   UNL A   1      37.165 -37.099 -28.831  0.00  0.00    +0.047 A 
ATOM     14  N   UNL A   1      38.439 -37.395 -29.181  0.00  0.00    -0.251 NA
ATOM     15  C   UNL A   1      38.937 -36.893 -30.317  0.00  0.00    +0.074 A 
ATOM     16  C   UNL A   1      40.243 -37.224 -30.645  0.00  0.00    -0.017 A 
ATOM     17  C   UNL A   1      40.843 -36.743 -31.805  0.00  0.00    +0.043 A 
ATOM     18 CL   UNL A   1      42.466 -37.176 -32.177  0.00  0.00    -0.083 Cl
ATOM     19  C   UNL A   1      40.138 -35.914 -32.665  0.00  0.00    -0.043 A 
ATOM     20  C   UNL A   1      38.824 -35.569 -32.351  0.00  0.00    -0.049 A 
ATOM     21  C   UNL A   1      38.196 -36.052 -31.173  0.00  0.00    +0.022 A 
ATOM     22  C   UNL A   1      36.708 -37.696 -27.524  0.00  0.00    -0.010 C 
ATOM     23  C   UNL A   1      35.191 -37.746 -27.384  0.00  0.00    -0.047 C 
ATOM     24  C   UNL A   1      34.596 -36.391 -27.732  0.00  0.00    -0.049 C 
ATOM     25  C   UNL A   1      34.902 -36.027 -29.185  0.00  0.00    -0.024 C 
ENDBRANCH   9  11
ENDBRANCH   8   9
ENDBRANCH   7   8
ENDBRANCH   6   7
ENDBRANCH   4   6
ENDBRANCH   1   2
BRANCH   1  26
ATOM     26  C   UNL A   1      30.731 -35.180 -28.950  0.00  0.00    -0.045 C 
BRANCH  26  27
ATOM     27  C   UNL A   1      31.014 -36.639 -28.588  0.00  0.00    -0.051 C 
BRANCH  27  28
ATOM     28  C   UNL A   1      30.996 -37.540 -29.826  0.00  0.00    -0.037 C 
BRANCH  28  29
ATOM     29  C   UNL A   1      32.095 -38.605 -29.792  0.00  0.00    +0.012 C 
BRANCH  29  32
ATOM     30  C   UNL A   1      32.783 -40.643 -31.122  0.00  0.00    +0.246 C 
ATOM     31  O   UNL A   1      32.370 -41.542 -31.846  0.00  0.00    -0.270 OA
ATOM     32  N   UNL A   1      32.036 -39.502 -30.938  0.00  0.00    -0.311 N 
ATOM     33  H   UNL A   1      31.399 -39.269 -31.651  0.00  0.00    +0.000 HD
BRANCH  30  39
ATOM     34  C   UNL A   1      34.260 -41.616 -29.322  0.00  0.00    +0.044 A 
ATOM     35  C   UNL A   1      35.543 -41.685 -28.757  0.00  0.00    -0.040 A 
ATOM     36  C   UNL A   1      36.599 -40.912 -29.252  0.00  0.00    -0.060 A 
ATOM     37  C   UNL A   1      36.394 -40.053 -30.329  0.00  0.00    -0.061 A 
ATOM     38  C   UNL A   1      35.138 -39.980 -30.924  0.00  0.00    -0.048 A 
ATOM     39  C   UNL A   1      34.088 -40.776 -30.443  0.00  0.00    +0.058 A 
BRANCH  34  40
ATOM     40  N   UNL A   1      33.197 -42.392 -28.803  0.00  0.00    -0.314 N 
ATOM     41  H   UNL A   1      32.304 -41.989 -28.897  0.00  0.00    +0.000 HD
BRANCH  40  47
ATOM     42  C   UNL A   1      33.209 -45.132 -24.616  0.00  0.00    -0.039 C 
ATOM     43  C   UNL A   1      33.240 -44.994 -26.114  0.00  0.00    -0.046 A 
ATOM     44  C   UNL A   1      33.338 -46.158 -26.890  0.00  0.00    -0.058 A 
ATOM     45  C   UNL A   1      33.381 -46.084 -28.278  0.00  0.00    -0.060 A 
ATOM     46  C   UNL A   1      33.329 -44.844 -28.909  0.00  0.00    -0.040 A 
ATOM     47  C   UNL A   1      33.217 -43.659 -28.169  0.00  0.00    +0.035 A 
ATOM     48  C   UNL A   1      33.151 -43.734 -26.755  0.00  0.00    -0.026 A 
ATOM     49  C   UNL A   1      33.034 -42.470 -25.937  0.00  0.00    -0.038 C 
ENDBRANCH  40  47
ENDBRANCH  34  40
ENDBRANCH  30  39
ENDBRANCH  29  32
ENDBRANCH  28  29
ENDBRANCH  27  28
ENDBRANCH  26  27
ENDBRANCH   1  26
TORSDOF 14
ENDMDL
MODEL 4
REMARK VINA RESULT:    -7.090      3.027      7.932
REMARK INTER + INTRA:         -17.671
REMARK INTER:                 -13.066
REMARK INTRA:                  -4.604
REMARK UNBOUND:                -4.777
REMARK  Name = cpd47.pdb
REMARK  16 active torsions:
REMARK  status: ('A' for Active; 'I' for Inactive)
REMARK    1  A    between atoms: C_1  and  C_2
REMARK    2  A    between atoms: C_6  and  N_7
REMARK    3  A    between atoms: N_7  and  C_8
REMARK    4  A    between atoms: C_13  and  C_14
REMARK    5  A    between atoms: N_16  and  C_17
REMARK    6  A    between atoms: C_17  and  C_18
REMARK    7  A    between atoms: C_18  and  C_19
REMARK    8  A    between atoms: C_19  and  C_20
REMARK    9  A    between atoms: C_20  and  C_21
REMARK   10  A    between atoms: C_21  and  C_22
REMARK   11  A    between atoms: N_24  and  C_25
REMARK   12  A    between atoms: C_25  and  C_26
REMARK   13  A    between atoms: C_26  and  C_27
REMARK   14  A    between atoms: C_27  and  N_28
REMARK   15  A    between atoms: N_28  and  C_29
REMARK   16  A    between atoms: C_44  and  C_45
REMARK                            x       y       z     vdW  Elec       q    Type
REMARK                         _______ _______ _______ _____ _____    ______ ____
ROOT
ATOM      1  C   UNL A   1      43.304 -17.182 -38.840  0.00  0.00    +0.024 C 
ENDROOT
BRANCH   1   2
ATOM      2  C   UNL A   1      43.066 -16.647 -37.441  0.00  0.00    +0.213 C 
ATOM      3  O   UNL A   1      42.712 -15.501 -37.196  0.00  0.00    -0.276 OA
ATOM      4  N   UNL A   1      43.293 -17.598 -36.467  0.00  0.00    -0.315 N 
ATOM      5  H   UNL A   1      43.578 -18.501 -36.740  0.00  0.00    +0.000 HD
BRANCH   4   6
ATOM      6  C   UNL A   1      43.124 -17.313 -35.057  0.00  0.00    +0.013 C 
BRANCH   6   7
ATOM      7  C   UNL A   1      43.524 -18.499 -34.184  0.00  0.00    -0.022 C 
BRANCH   7   8
ATOM      8  C   UNL A   1      44.161 -19.601 -35.028  0.00  0.00    +0.011 C 
BRANCH   8   9
ATOM      9  N   UNL A   1      43.475 -20.876 -34.770  0.00  0.00    -0.343 N 
ATOM     10  H   UNL A   1      43.816 -21.574 -34.165  0.00  0.00    +0.000 HD
BRANCH   9  11
ATOM     11  C   UNL A   1      42.254 -20.974 -35.503  0.00  0.00    +0.041 A 
ATOM     12  C   UNL A   1      42.304 -20.931 -36.910  0.00  0.00    -0.005 A 
ATOM     13  C   UNL A   1      41.094 -20.987 -37.603  0.00  0.00    +0.047 A 
ATOM     14  N   UNL A   1      39.890 -21.035 -36.986  0.00  0.00    -0.251 NA
ATOM     15  C   UNL A   1      39.841 -21.060 -35.650  0.00  0.00    +0.074 A 
ATOM     16  C   UNL A   1      38.589 -21.116 -35.055  0.00  0.00    -0.017 A 
ATOM     17  C   UNL A   1      38.445 -21.142 -33.671  0.00  0.00    +0.043 A 
ATOM     18 CL   UNL A   1      36.874 -21.210 -32.971  0.00  0.00    -0.083 Cl
ATOM     19  C   UNL A   1      39.562 -21.111 -32.851  0.00  0.00    -0.043 A 
ATOM     20  C   UNL A   1      40.829 -21.053 -33.430  0.00  0.00    -0.049 A 
ATOM     21  C   UNL A   1      40.995 -21.028 -34.839  0.00  0.00    +0.022 A 
ATOM     22  C   UNL A   1      41.039 -20.940 -39.108  0.00  0.00    -0.010 C 
ATOM     23  C   UNL A   1      42.348 -21.350 -39.772  0.00  0.00    -0.047 C 
ATOM     24  C   UNL A   1      43.507 -20.600 -39.132  0.00  0.00    -0.049 C 
ATOM     25  C   UNL A   1      43.622 -20.955 -37.650  0.00  0.00    -0.024 C 
ENDBRANCH   9  11
ENDBRANCH   8   9
ENDBRANCH   7   8
ENDBRANCH   6   7
ENDBRANCH   4   6
ENDBRANCH   1   2
BRANCH   1  26
ATOM     26  C   UNL A   1      42.127 -16.921 -39.777  0.00  0.00    -0.045 C 
BRANCH  26  27
ATOM     27  C   UNL A   1      42.399 -15.714 -40.677  0.00  0.00    -0.051 C 
BRANCH  27  28
ATOM     28  C   UNL A   1      43.866 -15.657 -41.115  0.00  0.00    -0.037 C 
BRANCH  28  29
ATOM     29  C   UNL A   1      44.682 -14.651 -40.300  0.00  0.00    +0.012 C 
BRANCH  29  32
ATOM     30  C   UNL A   1      47.074 -15.443 -40.516  0.00  0.00    +0.246 C 
ATOM     31  O   UNL A   1      48.029 -15.522 -41.281  0.00  0.00    -0.270 OA
ATOM     32  N   UNL A   1      46.059 -14.547 -40.763  0.00  0.00    -0.311 N 
ATOM     33  H   UNL A   1      46.286 -13.758 -41.307  0.00  0.00    +0.000 HD
BRANCH  30  39
ATOM     34  C   UNL A   1      47.058 -17.713 -39.416  0.00  0.00    +0.044 A 
ATOM     35  C   UNL A   1      47.001 -18.445 -38.219  0.00  0.00    -0.040 A 
ATOM     36  C   UNL A   1      46.849 -17.808 -36.982  0.00  0.00    -0.060 A 
ATOM     37  C   UNL A   1      46.752 -16.420 -36.916  0.00  0.00    -0.061 A 
ATOM     38  C   UNL A   1      46.827 -15.667 -38.084  0.00  0.00    -0.048 A 
ATOM     39  C   UNL A   1      47.007 -16.306 -39.320  0.00  0.00    +0.058 A 
BRANCH  34  40
ATOM     40  N   UNL A   1      47.198 -18.370 -40.661  0.00  0.00    -0.314 N 
ATOM     41  H   UNL A   1      48.072 -18.251 -41.097  0.00  0.00    +0.000 HD
BRANCH  40  47
ATOM     42  C   UNL A   1      45.982 -22.766 -42.719  0.00  0.00    -0.039 C 
ATOM     43  C   UNL A   1      45.694 -21.324 -42.397  0.00  0.00    -0.046 A 
ATOM     44  C   UNL A   1      44.497 -20.761 -42.864  0.00  0.00    -0.058 A 
ATOM     45  C   UNL A   1      44.190 -19.431 -42.602  0.00  0.00    -0.060 A 
ATOM     46  C   UNL A   1      45.076 -18.644 -41.871  0.00  0.00    -0.040 A 
ATOM     47  C   UNL A   1      46.276 -19.174 -41.377  0.00  0.00    +0.035 A 
ATOM     48  C   UNL A   1      46.581 -20.536 -41.623  0.00  0.00    -0.026 A 
ATOM     49  C   UNL A   1      47.869 -21.127 -41.102  0.00  0.00    -0.038 C 
ENDBRANCH  40  47
ENDBRANCH  34  40
ENDBRANCH  30  39
ENDBRANCH  29  32
ENDBRANCH  28  29
ENDBRANCH  27  28
ENDBRANCH  26  27
ENDBRANCH   1  26
TORSDOF 14
ENDMDL
MODEL 5
REMARK VINA RESULT:    -7.052      2.592      5.460
REMARK INTER + INTRA:         -17.601
REMARK INTER:                 -12.687
REMARK INTRA:                  -4.914
REMARK UNBOUND:                -4.777
REMARK  Name = cpd47.pdb
REMARK  16 active torsions:
REMARK  status: ('A' for Active; 'I' for Inactive)
REMARK    1  A    between atoms: C_1  and  C_2
REMARK    2  A    between atoms: C_6  and  N_7
REMARK    3  A    between atoms: N_7  and  C_8
REMARK    4  A    between atoms: C_13  and  C_14
REMARK    5  A    between atoms: N_16  and  C_17
REMARK    6  A    between atoms: C_17  and  C_18
REMARK    7  A    between atoms: C_18  and  C_19
REMARK    8  A    between atoms: C_19  and  C_20
REMARK    9  A    between atoms: C_20  and  C_21
REMARK   10  A    between atoms: C_21  and  C_22
REMARK   11  A    between atoms: N_24  and  C_25
REMARK   12  A    between atoms: C_25  and  C_26
REMARK   13  A    between atoms: C_26  and  C_27
REMARK   14  A    between atoms: C_27  and  N_28
REMARK   15  A    between atoms: N_28  and  C_29
REMARK   16  A    between atoms: C_44  and  C_45
REMARK                            x       y       z     vdW  Elec       q    Type
REMARK                         _______ _______ _______ _____ _____    ______ ____
ROOT
ATOM      1  C   UNL A   1      43.327 -17.008 -39.709  0.00  0.00    +0.024 C 
ENDROOT
BRANCH   1   2
ATOM      2  C   UNL A   1      43.686 -16.011 -38.624  0.00  0.00    +0.213 C 
ATOM      3  O   UNL A   1      43.996 -14.847 -38.839  0.00  0.00    -0.276 OA
ATOM      4  N   UNL A   1      43.623 -16.562 -37.360  0.00  0.00    -0.315 N 
ATOM      5  H   UNL A   1      43.367 -17.508 -37.265  0.00  0.00    +0.000 HD
BRANCH   4   6
ATOM      6  C   UNL A   1      43.922 -15.794 -36.169  0.00  0.00    +0.013 C 
BRANCH   6   7
ATOM      7  C   UNL A   1      45.316 -16.099 -35.629  0.00  0.00    -0.022 C 
BRANCH   7   8
ATOM      8  C   UNL A   1      45.771 -17.491 -36.062  0.00  0.00    +0.011 C 
BRANCH   8   9
ATOM      9  N   UNL A   1      47.138 -17.417 -36.597  0.00  0.00    -0.343 N 
ATOM     10  H   UNL A   1      47.943 -17.293 -36.043  0.00  0.00    +0.000 HD
BRANCH   9  11
ATOM     11  C   UNL A   1      47.155 -17.546 -38.019  0.00  0.00    +0.041 A 
ATOM     12  C   UNL A   1      47.303 -16.386 -38.803  0.00  0.00    -0.005 A 
ATOM     13  C   UNL A   1      47.273 -16.534 -40.190  0.00  0.00    +0.047 A 
ATOM     14  N   UNL A   1      47.066 -17.723 -40.804  0.00  0.00    -0.251 NA
ATOM     15  C   UNL A   1      46.909 -18.823 -40.059  0.00  0.00    +0.074 A 
ATOM     16  C   UNL A   1      46.706 -20.023 -40.724  0.00  0.00    -0.017 A 
ATOM     17  C   UNL A   1      46.529 -21.216 -40.029  0.00  0.00    +0.043 A 
ATOM     18 CL   UNL A   1      46.278 -22.684 -40.891  0.00  0.00    -0.083 Cl
ATOM     19  C   UNL A   1      46.553 -21.228 -38.643  0.00  0.00    -0.043 A 
ATOM     20  C   UNL A   1      46.755 -20.031 -37.957  0.00  0.00    -0.049 A 
ATOM     21  C   UNL A   1      46.939 -18.806 -38.649  0.00  0.00    +0.022 A 
ATOM     22  C   UNL A   1      47.416 -15.354 -41.117  0.00  0.00    -0.010 C 
ATOM     23  C   UNL A   1      48.094 -14.155 -40.465  0.00  0.00    -0.047 C 
ATOM     24  C   UNL A   1      47.442 -13.861 -39.122  0.00  0.00    -0.049 C 
ATOM     25  C   UNL A   1      47.613 -15.048 -38.173  0.00  0.00    -0.024 C 
ENDBRANCH   9  11
ENDBRANCH   8   9
ENDBRANCH   7   8
ENDBRANCH   6   7
ENDBRANCH   4   6
ENDBRANCH   1   2
BRANCH   1  26
ATOM     26  C   UNL A   1      43.297 -18.447 -39.199  0.00  0.00    -0.045 C 
BRANCH  26  27
ATOM     27  C   UNL A   1      43.229 -19.440 -40.361  0.00  0.00    -0.051 C 
BRANCH  27  28
ATOM     28  C   UNL A   1      42.919 -20.858 -39.873  0.00  0.00    -0.037 C 
BRANCH  28  29
ATOM     29  C   UNL A   1      41.496 -20.990 -39.325  0.00  0.00    +0.012 C 
BRANCH  29  32
ATOM     30  C   UNL A   1      41.135 -22.275 -37.176  0.00  0.00    +0.246 C 
ATOM     31  O   UNL A   1      40.557 -23.236 -36.678  0.00  0.00    -0.270 OA
ATOM     32  N   UNL A   1      41.314 -22.203 -38.539  0.00  0.00    -0.311 N 
ATOM     33  H   UNL A   1      41.319 -23.056 -39.031  0.00  0.00    +0.000 HD
BRANCH  30  39
ATOM     34  C   UNL A   1      40.779 -20.310 -35.635  0.00  0.00    +0.044 A 
ATOM     35  C   UNL A   1      41.363 -19.318 -34.831  0.00  0.00    -0.040 A 
ATOM     36  C   UNL A   1      42.753 -19.174 -34.748  0.00  0.00    -0.060 A 
ATOM     37  C   UNL A   1      43.590 -20.023 -35.468  0.00  0.00    -0.061 A 
ATOM     38  C   UNL A   1      43.039 -21.029 -36.257  0.00  0.00    -0.048 A 
ATOM     39  C   UNL A   1      41.647 -21.189 -36.317  0.00  0.00    +0.058 A 
BRANCH  34  40
ATOM     40  N   UNL A   1      39.373 -20.435 -35.722  0.00  0.00    -0.314 N 
ATOM     41  H   UNL A   1      38.995 -20.268 -36.615  0.00  0.00    +0.000 HD
BRANCH  40  47
ATOM     42  C   UNL A   1      35.588 -19.083 -32.740  0.00  0.00    -0.039 C 
ATOM     43  C   UNL A   1      36.581 -20.091 -33.254  0.00  0.00    -0.046 A 
ATOM     44  C   UNL A   1      36.585 -21.374 -32.687  0.00  0.00    -0.058 A 
ATOM     45  C   UNL A   1      37.489 -22.338 -33.119  0.00  0.00    -0.060 A 
ATOM     46  C   UNL A   1      38.404 -22.031 -34.123  0.00  0.00    -0.040 A 
ATOM     47  C   UNL A   1      38.423 -20.765 -34.723  0.00  0.00    +0.035 A 
ATOM     48  C   UNL A   1      37.487 -19.788 -34.300  0.00  0.00    -0.026 A 
ATOM     49  C   UNL A   1      37.491 -18.416 -34.931  0.00  0.00    -0.038 C 
ENDBRANCH  40  47
ENDBRANCH  34  40
ENDBRANCH  30  39
ENDBRANCH  29  32
ENDBRANCH  28  29
ENDBRANCH  27  28
ENDBRANCH  26  27
ENDBRANCH   1  26
TORSDOF 14
ENDMDL
MODEL 6
REMARK VINA RESULT:    -7.034      2.156      4.143
REMARK INTER + INTRA:         -17.567
REMARK INTER:                 -11.587
REMARK INTRA:                  -5.980
REMARK UNBOUND:                -4.777
REMARK  Name = cpd47.pdb
REMARK  16 active torsions:
REMARK  status: ('A' for Active; 'I' for Inactive)
REMARK    1  A    between atoms: C_1  and  C_2
REMARK    2  A    between atoms: C_6  and  N_7
REMARK    3  A    between atoms: N_7  and  C_8
REMARK    4  A    between atoms: C_13  and  C_14
REMARK    5  A    between atoms: N_16  and  C_17
REMARK    6  A    between atoms: C_17  and  C_18
REMARK    7  A    between atoms: C_18  and  C_19
REMARK    8  A    between atoms: C_19  and  C_20
REMARK    9  A    between atoms: C_20  and  C_21
REMARK   10  A    between atoms: C_21  and  C_22
REMARK   11  A    between atoms: N_24  and  C_25
REMARK   12  A    between atoms: C_25  and  C_26
REMARK   13  A    between atoms: C_26  and  C_27
REMARK   14  A    between atoms: C_27  and  N_28
REMARK   15  A    between atoms: N_28  and  C_29
REMARK   16  A    between atoms: C_44  and  C_45
REMARK                            x       y       z     vdW  Elec       q    Type
REMARK                         _______ _______ _______ _____ _____    ______ ____
ROOT
ATOM      1  C   UNL A   1      42.914 -20.174 -33.789  0.00  0.00    +0.024 C 
ENDROOT
BRANCH   1   2
ATOM      2  C   UNL A   1      44.125 -19.261 -33.818  0.00  0.00    +0.213 C 
ATOM      3  O   UNL A   1      44.277 -18.301 -33.073  0.00  0.00    -0.276 OA
ATOM      4  N   UNL A   1      45.042 -19.632 -34.780  0.00  0.00    -0.315 N 
ATOM      5  H   UNL A   1      44.850 -20.416 -35.344  0.00  0.00    +0.000 HD
BRANCH   4   6
ATOM      6  C   UNL A   1      46.278 -18.905 -34.986  0.00  0.00    +0.013 C 
BRANCH   6   7
ATOM      7  C   UNL A   1      47.232 -19.657 -35.910  0.00  0.00    -0.022 C 
BRANCH   7   8
ATOM      8  C   UNL A   1      46.506 -20.134 -37.166  0.00  0.00    +0.011 C 
BRANCH   8   9
ATOM      9  N   UNL A   1      47.331 -19.848 -38.349  0.00  0.00    -0.343 N 
ATOM     10  H   UNL A   1      48.306 -19.979 -38.387  0.00  0.00    +0.000 HD
BRANCH   9  11
ATOM     11  C   UNL A   1      46.543 -19.358 -39.434  0.00  0.00    +0.041 A 
ATOM     12  C   UNL A   1      46.204 -20.241 -40.478  0.00  0.00    -0.005 A 
ATOM     13  C   UNL A   1      45.470 -19.726 -41.547  0.00  0.00    +0.047 A 
ATOM     14  N   UNL A   1      45.114 -18.424 -41.643  0.00  0.00    -0.251 NA
ATOM     15  C   UNL A   1      45.449 -17.582 -40.659  0.00  0.00    +0.074 A 
ATOM     16  C   UNL A   1      45.061 -16.257 -40.790  0.00  0.00    -0.017 A 
ATOM     17  C   UNL A   1      45.370 -15.311 -39.817  0.00  0.00    +0.043 A 
ATOM     18 CL   UNL A   1      44.871 -13.676 -40.016  0.00  0.00    -0.083 Cl
ATOM     19  C   UNL A   1      46.081 -15.680 -38.685  0.00  0.00    -0.043 A 
ATOM     20  C   UNL A   1      46.482 -17.007 -38.536  0.00  0.00    -0.049 A 
ATOM     21  C   UNL A   1      46.173 -17.985 -39.518  0.00  0.00    +0.022 A 
ATOM     22  C   UNL A   1      45.064 -20.586 -42.717  0.00  0.00    -0.010 C 
ATOM     23  C   UNL A   1      45.052 -22.076 -42.393  0.00  0.00    -0.047 C 
ATOM     24  C   UNL A   1      46.353 -22.466 -41.710  0.00  0.00    -0.049 C 
ATOM     25  C   UNL A   1      46.509 -21.718 -40.386  0.00  0.00    -0.024 C 
ENDBRANCH   9  11
ENDBRANCH   8   9
ENDBRANCH   7   8
ENDBRANCH   6   7
ENDBRANCH   4   6
ENDBRANCH   1   2
BRANCH   1  26
ATOM     26  C   UNL A   1      41.852 -19.712 -32.794  0.00  0.00    -0.045 C 
BRANCH  26  27
ATOM     27  C   UNL A   1      40.455 -19.770 -33.415  0.00  0.00    -0.051 C 
BRANCH  27  28
ATOM     28  C   UNL A   1      40.380 -18.956 -34.710  0.00  0.00    -0.037 C 
BRANCH  28  29
ATOM     29  C   UNL A   1      39.834 -19.772 -35.884  0.00  0.00    +0.012 C 
BRANCH  29  32
ATOM     30  C   UNL A   1      39.489 -19.229 -38.330  0.00  0.00    +0.246 C 
ATOM     31  O   UNL A   1      38.721 -18.709 -39.133  0.00  0.00    -0.270 OA
ATOM     32  N   UNL A   1      39.396 -18.931 -36.990  0.00  0.00    -0.311 N 
ATOM     33  H   UNL A   1      38.993 -18.063 -36.755  0.00  0.00    +0.000 HD
BRANCH  30  39
ATOM     34  C   UNL A   1      41.744 -19.733 -39.342  0.00  0.00    +0.044 A 
ATOM     35  C   UNL A   1      42.666 -20.713 -39.742  0.00  0.00    -0.040 A 
ATOM     36  C   UNL A   1      42.366 -22.077 -39.648  0.00  0.00    -0.060 A 
ATOM     37  C   UNL A   1      41.134 -22.491 -39.149  0.00  0.00    -0.061 A 
ATOM     38  C   UNL A   1      40.207 -21.542 -38.725  0.00  0.00    -0.048 A 
ATOM     39  C   UNL A   1      40.521 -20.177 -38.795  0.00  0.00    +0.058 A 
BRANCH  34  40
ATOM     40  N   UNL A   1      42.054 -18.358 -39.456  0.00  0.00    -0.314 N 
ATOM     41  H   UNL A   1      42.052 -18.006 -40.375  0.00  0.00    +0.000 HD
BRANCH  40  47
ATOM     42  C   UNL A   1      42.028 -13.628 -37.822  0.00  0.00    -0.039 C 
ATOM     43  C   UNL A   1      42.367 -15.087 -37.666  0.00  0.00    -0.046 A 
ATOM     44  C   UNL A   1      43.050 -15.494 -36.511  0.00  0.00    -0.058 A 
ATOM     45  C   UNL A   1      43.395 -16.829 -36.325  0.00  0.00    -0.060 A 
ATOM     46  C   UNL A   1      43.062 -17.773 -37.292  0.00  0.00    -0.040 A 
ATOM     47  C   UNL A   1      42.367 -17.407 -38.452  0.00  0.00    +0.035 A 
ATOM     48  C   UNL A   1      41.995 -16.052 -38.634  0.00  0.00    -0.026 A 
ATOM     49  C   UNL A   1      41.248 -15.634 -39.879  0.00  0.00    -0.038 C 
ENDBRANCH  40  47
ENDBRANCH  34  40
ENDBRANCH  30  39
ENDBRANCH  29  32
ENDBRANCH  28  29
ENDBRANCH  27  28
ENDBRANCH  26  27
ENDBRANCH   1  26
TORSDOF 14
ENDMDL
MODEL 7
REMARK VINA RESULT:    -7.021      1.837      3.457
REMARK INTER + INTRA:         -17.545
REMARK INTER:                 -13.320
REMARK INTRA:                  -4.225
REMARK UNBOUND:                -4.777
REMARK  Name = cpd47.pdb
REMARK  16 active torsions:
REMARK  status: ('A' for Active; 'I' for Inactive)
REMARK    1  A    between atoms: C_1  and  C_2
REMARK    2  A    between atoms: C_6  and  N_7
REMARK    3  A    between atoms: N_7  and  C_8
REMARK    4  A    between atoms: C_13  and  C_14
REMARK    5  A    between atoms: N_16  and  C_17
REMARK    6  A    between atoms: C_17  and  C_18
REMARK    7  A    between atoms: C_18  and  C_19
REMARK    8  A    between atoms: C_19  and  C_20
REMARK    9  A    between atoms: C_20  and  C_21
REMARK   10  A    between atoms: C_21  and  C_22
REMARK   11  A    between atoms: N_24  and  C_25
REMARK   12  A    between atoms: C_25  and  C_26
REMARK   13  A    between atoms: C_26  and  C_27
REMARK   14  A    between atoms: C_27  and  N_28
REMARK   15  A    between atoms: N_28  and  C_29
REMARK   16  A    between atoms: C_44  and  C_45
REMARK                            x       y       z     vdW  Elec       q    Type
REMARK                         _______ _______ _______ _____ _____    ______ ____
ROOT
ATOM      1  C   UNL A   1      43.647 -18.097 -33.036  0.00  0.00    +0.024 C 
ENDROOT
BRANCH   1   2
ATOM      2  C   UNL A   1      45.075 -18.385 -33.462  0.00  0.00    +0.213 C 
ATOM      3  O   UNL A   1      46.057 -17.834 -32.983  0.00  0.00    -0.276 OA
ATOM      4  N   UNL A   1      45.146 -19.341 -34.454  0.00  0.00    -0.315 N 
ATOM      5  H   UNL A   1      44.311 -19.740 -34.793  0.00  0.00    +0.000 HD
BRANCH   4   6
ATOM      6  C   UNL A   1      46.408 -19.778 -35.014  0.00  0.00    +0.013 C 
BRANCH   6   7
ATOM      7  C   UNL A   1      46.991 -18.748 -35.977  0.00  0.00    -0.022 C 
BRANCH   7   8
ATOM      8  C   UNL A   1      47.017 -19.294 -37.403  0.00  0.00    +0.011 C 
BRANCH   8   9
ATOM      9  N   UNL A   1      46.461 -20.654 -37.418  0.00  0.00    -0.343 N 
ATOM     10  H   UNL A   1      46.624 -21.325 -36.716  0.00  0.00    +0.000 HD
BRANCH   9  11
ATOM     11  C   UNL A   1      45.656 -20.882 -38.575  0.00  0.00    +0.041 A 
ATOM     12  C   UNL A   1      46.222 -21.564 -39.670  0.00  0.00    -0.005 A 
ATOM     13  C   UNL A   1      45.428 -21.737 -40.805  0.00  0.00    +0.047 A 
ATOM     14  N   UNL A   1      44.172 -21.244 -40.911  0.00  0.00    -0.251 NA
ATOM     15  C   UNL A   1      43.640 -20.582 -39.878  0.00  0.00    +0.074 A 
ATOM     16  C   UNL A   1      42.348 -20.098 -40.023  0.00  0.00    -0.017 A 
ATOM     17  C   UNL A   1      41.718 -19.395 -39.001  0.00  0.00    +0.043 A 
ATOM     18 CL   UNL A   1      40.116 -18.809 -39.220  0.00  0.00    -0.083 Cl
ATOM     19  C   UNL A   1      42.378 -19.161 -37.804  0.00  0.00    -0.043 A 
ATOM     20  C   UNL A   1      43.677 -19.639 -37.639  0.00  0.00    -0.049 A 
ATOM     21  C   UNL A   1      44.334 -20.360 -38.670  0.00  0.00    +0.022 A 
ATOM     22  C   UNL A   1      45.942 -22.447 -42.031  0.00  0.00    -0.010 C 
ATOM     23  C   UNL A   1      47.120 -23.369 -41.743  0.00  0.00    -0.047 C 
ATOM     24  C   UNL A   1      48.167 -22.628 -40.925  0.00  0.00    -0.049 C 
ATOM     25  C   UNL A   1      47.589 -22.201 -39.576  0.00  0.00    -0.024 C 
ENDBRANCH   9  11
ENDBRANCH   8   9
ENDBRANCH   7   8
ENDBRANCH   6   7
ENDBRANCH   4   6
ENDBRANCH   1   2
BRANCH   1  26
ATOM     26  C   UNL A   1      42.675 -18.079 -34.212  0.00  0.00    -0.045 C 
BRANCH  26  27
ATOM     27  C   UNL A   1      41.611 -19.168 -34.062  0.00  0.00    -0.051 C 
BRANCH  27  28
ATOM     28  C   UNL A   1      41.478 -19.629 -32.608  0.00  0.00    -0.037 C 
BRANCH  28  29
ATOM     29  C   UNL A   1      41.069 -21.100 -32.494  0.00  0.00    +0.012 C 
BRANCH  29  32
ATOM     30  C   UNL A   1      38.745 -21.829 -33.172  0.00  0.00    +0.246 C 
ATOM     31  O   UNL A   1      37.700 -22.325 -32.763  0.00  0.00    -0.270 OA
ATOM     32  N   UNL A   1      39.637 -21.264 -32.290  0.00  0.00    -0.311 N 
ATOM     33  H   UNL A   1      39.270 -20.938 -31.436  0.00  0.00    +0.000 HD
BRANCH  30  39
ATOM     34  C   UNL A   1      38.556 -20.835 -35.484  0.00  0.00    +0.044 A 
ATOM     35  C   UNL A   1      38.918 -20.918 -36.838  0.00  0.00    -0.040 A 
ATOM     36  C   UNL A   1      39.699 -21.975 -37.320  0.00  0.00    -0.060 A 
ATOM     37  C   UNL A   1      40.138 -22.973 -36.454  0.00  0.00    -0.061 A 
ATOM     38  C   UNL A   1      39.813 -22.906 -35.102  0.00  0.00    -0.048 A 
ATOM     39  C   UNL A   1      39.053 -21.832 -34.617  0.00  0.00    +0.058 A 
BRANCH  34  40
ATOM     40  N   UNL A   1      37.754 -19.769 -35.012  0.00  0.00    -0.314 N 
ATOM     41  H   UNL A   1      36.804 -19.991 -34.881  0.00  0.00    +0.000 HD
BRANCH  40  47
ATOM     42  C   UNL A   1      37.437 -15.818 -31.959  0.00  0.00    -0.039 C 
ATOM     43  C   UNL A   1      37.932 -16.496 -33.209  0.00  0.00    -0.046 A 
ATOM     44  C   UNL A   1      38.725 -15.759 -34.100  0.00  0.00    -0.058 A 
ATOM     45  C   UNL A   1      39.199 -16.336 -35.273  0.00  0.00    -0.060 A 
ATOM     46  C   UNL A   1      38.884 -17.659 -35.571  0.00  0.00    -0.040 A 
ATOM     47  C   UNL A   1      38.106 -18.433 -34.699  0.00  0.00    +0.035 A 
ATOM     48  C   UNL A   1      37.641 -17.853 -33.492  0.00  0.00    -0.026 A 
ATOM     49  C   UNL A   1      36.798 -18.667 -32.539  0.00  0.00    -0.038 C 
ENDBRANCH  40  47
ENDBRANCH  34  40
ENDBRANCH  30  39
ENDBRANCH  29  32
ENDBRANCH  28  29
ENDBRANCH  27  28
ENDBRANCH  26  27
ENDBRANCH   1  26
TORSDOF 14
ENDMDL
MODEL 8
REMARK VINA RESULT:    -7.003      2.659      8.140
REMARK INTER + INTRA:         -17.513
REMARK INTER:                 -13.145
REMARK INTRA:                  -4.368
REMARK UNBOUND:                -4.777
REMARK  Name = cpd47.pdb
REMARK  16 active torsions:
REMARK  status: ('A' for Active; 'I' for Inactive)
REMARK    1  A    between atoms: C_1  and  C_2
REMARK    2  A    between atoms: C_6  and  N_7
REMARK    3  A    between atoms: N_7  and  C_8
REMARK    4  A    between atoms: C_13  and  C_14
REMARK    5  A    between atoms: N_16  and  C_17
REMARK    6  A    between atoms: C_17  and  C_18
REMARK    7  A    between atoms: C_18  and  C_19
REMARK    8  A    between atoms: C_19  and  C_20
REMARK    9  A    between atoms: C_20  and  C_21
REMARK   10  A    between atoms: C_21  and  C_22
REMARK   11  A    between atoms: N_24  and  C_25
REMARK   12  A    between atoms: C_25  and  C_26
REMARK   13  A    between atoms: C_26  and  C_27
REMARK   14  A    between atoms: C_27  and  N_28
REMARK   15  A    between atoms: N_28  and  C_29
REMARK   16  A    between atoms: C_44  and  C_45
REMARK                            x       y       z     vdW  Elec       q    Type
REMARK                         _______ _______ _______ _____ _____    ______ ____
ROOT
ATOM      1  C   UNL A   1      43.270 -17.274 -38.987  0.00  0.00    +0.024 C 
ENDROOT
BRANCH   1   2
ATOM      2  C   UNL A   1      43.226 -16.689 -37.588  0.00  0.00    +0.213 C 
ATOM      3  O   UNL A   1      42.978 -15.515 -37.344  0.00  0.00    -0.276 OA
ATOM      4  N   UNL A   1      43.495 -17.629 -36.615  0.00  0.00    -0.315 N 
ATOM      5  H   UNL A   1      43.687 -18.556 -36.887  0.00  0.00    +0.000 HD
BRANCH   4   6
ATOM      6  C   UNL A   1      43.504 -17.298 -35.205  0.00  0.00    +0.013 C 
BRANCH   6   7
ATOM      7  C   UNL A   1      43.815 -18.513 -34.335  0.00  0.00    -0.022 C 
BRANCH   7   8
ATOM      8  C   UNL A   1      44.156 -19.724 -35.201  0.00  0.00    +0.011 C 
BRANCH   8   9
ATOM      9  N   UNL A   1      43.372 -20.884 -34.753  0.00  0.00    -0.343 N 
ATOM     10  H   UNL A   1      43.684 -21.538 -34.087  0.00  0.00    +0.000 HD
BRANCH   9  11
ATOM     11  C   UNL A   1      42.102 -20.944 -35.404  0.00  0.00    +0.041 A 
ATOM     12  C   UNL A   1      40.935 -20.909 -34.616  0.00  0.00    -0.005 A 
ATOM     13  C   UNL A   1      39.708 -21.012 -35.272  0.00  0.00    +0.047 A 
ATOM     14  N   UNL A   1      39.596 -21.185 -36.610  0.00  0.00    -0.251 NA
ATOM     15  C   UNL A   1      40.704 -21.234 -37.357  0.00  0.00    +0.074 A 
ATOM     16  C   UNL A   1      40.549 -21.406 -38.724  0.00  0.00    -0.017 A 
ATOM     17  C   UNL A   1      41.647 -21.471 -39.577  0.00  0.00    +0.043 A 
ATOM     18 CL   UNL A   1      41.412 -21.687 -41.267  0.00  0.00    -0.083 Cl
ATOM     19  C   UNL A   1      42.933 -21.366 -39.069  0.00  0.00    -0.043 A 
ATOM     20  C   UNL A   1      43.110 -21.194 -37.697  0.00  0.00    -0.049 A 
ATOM     21  C   UNL A   1      42.001 -21.122 -36.813  0.00  0.00    +0.022 A 
ATOM     22  C   UNL A   1      38.402 -20.993 -34.519  0.00  0.00    -0.010 C 
ATOM     23  C   UNL A   1      38.511 -20.349 -33.142  0.00  0.00    -0.047 C 
ATOM     24  C   UNL A   1      39.695 -20.936 -32.390  0.00  0.00    -0.049 C 
ATOM     25  C   UNL A   1      41.000 -20.641 -33.130  0.00  0.00    -0.024 C 
ENDBRANCH   9  11
ENDBRANCH   8   9
ENDBRANCH   7   8
ENDBRANCH   6   7
ENDBRANCH   4   6
ENDBRANCH   1   2
BRANCH   1  26
ATOM     26  C   UNL A   1      42.115 -16.794 -39.862  0.00  0.00    -0.045 C 
BRANCH  26  27
ATOM     27  C   UNL A   1      42.577 -15.704 -40.832  0.00  0.00    -0.051 C 
BRANCH  27  28
ATOM     28  C   UNL A   1      44.082 -15.791 -41.100  0.00  0.00    -0.037 C 
BRANCH  28  29
ATOM     29  C   UNL A   1      44.863 -14.659 -40.427  0.00  0.00    +0.012 C 
BRANCH  29  32
ATOM     30  C   UNL A   1      47.232 -15.520 -40.639  0.00  0.00    +0.246 C 
ATOM     31  O   UNL A   1      48.189 -15.618 -41.400  0.00  0.00    -0.270 OA
ATOM     32  N   UNL A   1      46.245 -14.591 -40.880  0.00  0.00    -0.311 N 
ATOM     33  H   UNL A   1      46.500 -13.802 -41.412  0.00  0.00    +0.000 HD
BRANCH  30  39
ATOM     34  C   UNL A   1      47.086 -17.803 -39.574  0.00  0.00    +0.044 A 
ATOM     35  C   UNL A   1      47.005 -18.550 -38.389  0.00  0.00    -0.040 A 
ATOM     36  C   UNL A   1      46.920 -17.925 -37.139  0.00  0.00    -0.060 A 
ATOM     37  C   UNL A   1      46.917 -16.535 -37.049  0.00  0.00    -0.061 A 
ATOM     38  C   UNL A   1      47.019 -15.769 -38.207  0.00  0.00    -0.048 A 
ATOM     39  C   UNL A   1      47.131 -16.398 -39.456  0.00  0.00    +0.058 A 
BRANCH  34  40
ATOM     40  N   UNL A   1      47.157 -18.447 -40.832  0.00  0.00    -0.314 N 
ATOM     41  H   UNL A   1      47.915 -18.173 -41.397  0.00  0.00    +0.000 HD
BRANCH  40  47
ATOM     42  C   UNL A   1      46.413 -23.132 -42.425  0.00  0.00    -0.039 C 
ATOM     43  C   UNL A   1      45.954 -21.716 -42.200  0.00  0.00    -0.046 A 
ATOM     44  C   UNL A   1      44.664 -21.358 -42.614  0.00  0.00    -0.058 A 
ATOM     45  C   UNL A   1      44.197 -20.059 -42.438  0.00  0.00    -0.060 A 
ATOM     46  C   UNL A   1      45.016 -19.102 -41.846  0.00  0.00    -0.040 A 
ATOM     47  C   UNL A   1      46.306 -19.425 -41.406  0.00  0.00    +0.035 A 
ATOM     48  C   UNL A   1      46.776 -20.753 -41.564  0.00  0.00    -0.026 A 
ATOM     49  C   UNL A   1      48.165 -21.123 -41.100  0.00  0.00    -0.038 C 
ENDBRANCH  40  47
ENDBRANCH  34  40
ENDBRANCH  30  39
ENDBRANCH  29  32
ENDBRANCH  28  29
ENDBRANCH  27  28
ENDBRANCH  26  27
ENDBRANCH   1  26
TORSDOF 14
ENDMDL
MODEL 9
REMARK VINA RESULT:    -6.904      2.659      7.202
REMARK INTER + INTRA:         -17.331
REMARK INTER:                 -12.895
REMARK INTRA:                  -4.436
REMARK UNBOUND:                -4.777
REMARK  Name = cpd47.pdb
REMARK  16 active torsions:
REMARK  status: ('A' for Active; 'I' for Inactive)
REMARK    1  A    between atoms: C_1  and  C_2
REMARK    2  A    between atoms: C_6  and  N_7
REMARK    3  A    between atoms: N_7  and  C_8
REMARK    4  A    between atoms: C_13  and  C_14
REMARK    5  A    between atoms: N_16  and  C_17
REMARK    6  A    between atoms: C_17  and  C_18
REMARK    7  A    between atoms: C_18  and  C_19
REMARK    8  A    between atoms: C_19  and  C_20
REMARK    9  A    between atoms: C_20  and  C_21
REMARK   10  A    between atoms: C_21  and  C_22
REMARK   11  A    between atoms: N_24  and  C_25
REMARK   12  A    between atoms: C_25  and  C_26
REMARK   13  A    between atoms: C_26  and  C_27
REMARK   14  A    between atoms: C_27  and  N_28
REMARK   15  A    between atoms: N_28  and  C_29
REMARK   16  A    between atoms: C_44  and  C_45
REMARK                            x       y       z     vdW  Elec       q    Type
REMARK                         _______ _______ _______ _____ _____    ______ ____
ROOT
ATOM      1  C   UNL A   1      46.122 -17.053 -34.903  0.00  0.00    +0.024 C 
ENDROOT
BRANCH   1   2
ATOM      2  C   UNL A   1      45.101 -16.993 -33.783  0.00  0.00    +0.213 C 
ATOM      3  O   UNL A   1      45.285 -17.448 -32.662  0.00  0.00    -0.276 OA
ATOM      4  N   UNL A   1      43.935 -16.362 -34.167  0.00  0.00    -0.315 N 
ATOM      5  H   UNL A   1      43.858 -16.022 -35.088  0.00  0.00    +0.000 HD
BRANCH   4   6
ATOM      6  C   UNL A   1      42.820 -16.185 -33.259  0.00  0.00    +0.013 C 
BRANCH   6   7
ATOM      7  C   UNL A   1      41.811 -17.326 -33.366  0.00  0.00    -0.022 C 
BRANCH   7   8
ATOM      8  C   UNL A   1      40.654 -16.940 -34.284  0.00  0.00    +0.011 C 
BRANCH   8   9
ATOM      9  N   UNL A   1      39.536 -17.873 -34.084  0.00  0.00    -0.343 N 
ATOM     10  H   UNL A   1      38.752 -17.682 -33.520  0.00  0.00    +0.000 HD
BRANCH   9  11
ATOM     11  C   UNL A   1      39.729 -19.088 -34.807  0.00  0.00    +0.041 A 
ATOM     12  C   UNL A   1      39.508 -19.091 -36.199  0.00  0.00    -0.005 A 
ATOM     13  C   UNL A   1      39.662 -20.301 -36.876  0.00  0.00    +0.047 A 
ATOM     14  N   UNL A   1      39.965 -21.464 -36.254  0.00  0.00    -0.251 NA
ATOM     15  C   UNL A   1      40.159 -21.466 -34.931  0.00  0.00    +0.074 A 
ATOM     16  C   UNL A   1      40.475 -22.676 -34.330  0.00  0.00    -0.017 A 
ATOM     17  C   UNL A   1      40.690 -22.771 -32.959  0.00  0.00    +0.043 A 
ATOM     18 CL   UNL A   1      41.078 -24.290 -32.252  0.00  0.00    -0.083 Cl
ATOM     19  C   UNL A   1      40.590 -21.645 -32.156  0.00  0.00    -0.043 A 
ATOM     20  C   UNL A   1      40.272 -20.419 -32.741  0.00  0.00    -0.049 A 
ATOM     21  C   UNL A   1      40.052 -20.304 -34.138  0.00  0.00    +0.022 A 
ATOM     22  C   UNL A   1      39.442 -20.411 -38.363  0.00  0.00    -0.010 C 
ATOM     23  C   UNL A   1      39.566 -19.077 -39.090  0.00  0.00    -0.047 C 
ATOM     24  C   UNL A   1      38.733 -18.022 -38.378  0.00  0.00    -0.049 C 
ATOM     25  C   UNL A   1      39.243 -17.808 -36.953  0.00  0.00    -0.024 C 
ENDBRANCH   9  11
ENDBRANCH   8   9
ENDBRANCH   7   8
ENDBRANCH   6   7
ENDBRANCH   4   6
ENDBRANCH   1   2
BRANCH   1  26
ATOM     26  C   UNL A   1      47.055 -18.256 -34.784  0.00  0.00    -0.045 C 
BRANCH  26  27
ATOM     27  C   UNL A   1      46.865 -19.217 -35.960  0.00  0.00    -0.051 C 
BRANCH  27  28
ATOM     28  C   UNL A   1      46.101 -20.476 -35.541  0.00  0.00    -0.037 C 
BRANCH  28  29
ATOM     29  C   UNL A   1      44.677 -20.170 -35.074  0.00  0.00    +0.012 C 
BRANCH  29  32
ATOM     30  C   UNL A   1      43.345 -20.565 -37.188  0.00  0.00    +0.246 C 
ATOM     31  O   UNL A   1      42.847 -21.430 -37.901  0.00  0.00    -0.270 OA
ATOM     32  N   UNL A   1      43.670 -20.846 -35.880  0.00  0.00    -0.311 N 
ATOM     33  H   UNL A   1      43.172 -21.578 -35.447  0.00  0.00    +0.000 HD
BRANCH  30  39
ATOM     34  C   UNL A   1      44.613 -18.968 -38.674  0.00  0.00    +0.044 A 
ATOM     35  C   UNL A   1      44.764 -17.650 -39.134  0.00  0.00    -0.040 A 
ATOM     36  C   UNL A   1      43.972 -16.610 -38.634  0.00  0.00    -0.060 A 
ATOM     37  C   UNL A   1      43.008 -16.866 -37.663  0.00  0.00    -0.061 A 
ATOM     38  C   UNL A   1      42.821 -18.167 -37.203  0.00  0.00    -0.048 A 
ATOM     39  C   UNL A   1      43.597 -19.213 -37.725  0.00  0.00    +0.058 A 
BRANCH  34  40
ATOM     40  N   UNL A   1      45.429 -20.009 -39.176  0.00  0.00    -0.314 N 
ATOM     41  H   UNL A   1      46.191 -20.252 -38.603  0.00  0.00    +0.000 HD
BRANCH  40  47
ATOM     42  C   UNL A   1      47.254 -23.470 -42.296  0.00  0.00    -0.039 C 
ATOM     43  C   UNL A   1      46.227 -22.439 -41.907  0.00  0.00    -0.046 A 
ATOM     44  C   UNL A   1      45.164 -22.190 -42.787  0.00  0.00    -0.058 A 
ATOM     45  C   UNL A   1      44.196 -21.240 -42.479  0.00  0.00    -0.060 A 
ATOM     46  C   UNL A   1      44.280 -20.526 -41.287  0.00  0.00    -0.040 A 
ATOM     47  C   UNL A   1      45.319 -20.756 -40.376  0.00  0.00    +0.035 A 
ATOM     48  C   UNL A   1      46.295 -21.739 -40.678  0.00  0.00    -0.026 A 
ATOM     49  C   UNL A   1      47.426 -22.001 -39.712  0.00  0.00    -0.038 C 
ENDBRANCH  40  47
ENDBRANCH  34  40
ENDBRANCH  30  39
ENDBRANCH  29  32
ENDBRANCH  28  29
ENDBRANCH  27  28
ENDBRANCH  26  27
ENDBRANCH   1  26
TORSDOF 14
ENDMDL
MODEL 10
REMARK VINA RESULT:    -6.817      2.502      4.152
REMARK INTER + INTRA:         -17.173
REMARK INTER:                 -11.917
REMARK INTRA:                  -5.256
REMARK UNBOUND:                -4.777
REMARK  Name = cpd47.pdb
REMARK  16 active torsions:
REMARK  status: ('A' for Active; 'I' for Inactive)
REMARK    1  A    between atoms: C_1  and  C_2
REMARK    2  A    between atoms: C_6  and  N_7
REMARK    3  A    between atoms: N_7  and  C_8
REMARK    4  A    between atoms: C_13  and  C_14
REMARK    5  A    between atoms: N_16  and  C_17
REMARK    6  A    between atoms: C_17  and  C_18
REMARK    7  A    between atoms: C_18  and  C_19
REMARK    8  A    between atoms: C_19  and  C_20
REMARK    9  A    between atoms: C_20  and  C_21
REMARK   10  A    between atoms: C_21  and  C_22
REMARK   11  A    between atoms: N_24  and  C_25
REMARK   12  A    between atoms: C_25  and  C_26
REMARK   13  A    between atoms: C_26  and  C_27
REMARK   14  A    between atoms: C_27  and  N_28
REMARK   15  A    between atoms: N_28  and  C_29
REMARK   16  A    between atoms: C_44  and  C_45
REMARK                            x       y       z     vdW  Elec       q    Type
REMARK                         _______ _______ _______ _____ _____    ______ ____
ROOT
ATOM      1  C   UNL A   1      43.356 -14.733 -36.563  0.00  0.00    +0.024 C 
ENDROOT
BRANCH   1   2
ATOM      2  C   UNL A   1      43.740 -14.925 -38.018  0.00  0.00    +0.213 C 
ATOM      3  O   UNL A   1      42.937 -14.945 -38.941  0.00  0.00    -0.276 OA
ATOM      4  N   UNL A   1      45.101 -15.074 -38.188  0.00  0.00    -0.315 N 
ATOM      5  H   UNL A   1      45.686 -15.049 -37.397  0.00  0.00    +0.000 HD
BRANCH   4   6
ATOM      6  C   UNL A   1      45.697 -15.267 -39.494  0.00  0.00    +0.013 C 
BRANCH   6   7
ATOM      7  C   UNL A   1      47.027 -16.010 -39.409  0.00  0.00    -0.022 C 
BRANCH   7   8
ATOM      8  C   UNL A   1      46.800 -17.518 -39.331  0.00  0.00    +0.011 C 
BRANCH   8   9
ATOM      9  N   UNL A   1      46.144 -17.981 -40.562  0.00  0.00    -0.343 N 
ATOM     10  H   UNL A   1      46.105 -17.460 -41.397  0.00  0.00    +0.000 HD
BRANCH   9  11
ATOM     11  C   UNL A   1      45.572 -19.278 -40.398  0.00  0.00    +0.041 A 
ATOM     12  C   UNL A   1      46.333 -20.406 -40.763  0.00  0.00    -0.005 A 
ATOM     13  C   UNL A   1      45.735 -21.660 -40.633  0.00  0.00    +0.047 A 
ATOM     14  N   UNL A   1      44.458 -21.832 -40.220  0.00  0.00    -0.251 NA
ATOM     15  C   UNL A   1      43.729 -20.761 -39.889  0.00  0.00    +0.074 A 
ATOM     16  C   UNL A   1      42.426 -20.978 -39.464  0.00  0.00    -0.017 A 
ATOM     17  C   UNL A   1      41.596 -19.921 -39.103  0.00  0.00    +0.043 A 
ATOM     18 CL   UNL A   1      39.986 -20.232 -38.582  0.00  0.00    -0.083 Cl
ATOM     19  C   UNL A   1      42.059 -18.616 -39.163  0.00  0.00    -0.043 A 
ATOM     20  C   UNL A   1      43.365 -18.377 -39.589  0.00  0.00    -0.049 A 
ATOM     21  C   UNL A   1      44.227 -19.443 -39.959  0.00  0.00    +0.022 A 
ATOM     22  C   UNL A   1      46.463 -22.927 -41.003  0.00  0.00    -0.010 C 
ATOM     23  C   UNL A   1      47.979 -22.771 -41.009  0.00  0.00    -0.047 C 
ATOM     24  C   UNL A   1      48.367 -21.535 -41.804  0.00  0.00    -0.049 C 
ATOM     25  C   UNL A   1      47.787 -20.277 -41.156  0.00  0.00    -0.024 C 
ENDBRANCH   9  11
ENDBRANCH   8   9
ENDBRANCH   7   8
ENDBRANCH   6   7
ENDBRANCH   4   6
ENDBRANCH   1   2
BRANCH   1  26
ATOM     26  C   UNL A   1      41.900 -15.099 -36.285  0.00  0.00    -0.045 C 
BRANCH  26  27
ATOM     27  C   UNL A   1      41.805 -16.265 -35.299  0.00  0.00    -0.051 C 
BRANCH  27  28
ATOM     28  C   UNL A   1      41.227 -17.519 -35.963  0.00  0.00    -0.037 C 
BRANCH  28  29
ATOM     29  C   UNL A   1      40.010 -18.068 -35.216  0.00  0.00    +0.012 C 
BRANCH  29  32
ATOM     30  C   UNL A   1      40.227 -18.205 -32.700  0.00  0.00    +0.246 C 
ATOM     31  O   UNL A   1      40.535 -17.575 -31.694  0.00  0.00    -0.270 OA
ATOM     32  N   UNL A   1      39.904 -17.542 -33.862  0.00  0.00    -0.311 N 
ATOM     33  H   UNL A   1      39.569 -16.621 -33.769  0.00  0.00    +0.000 HD
BRANCH  30  39
ATOM     34  C   UNL A   1      41.376 -20.451 -32.761  0.00  0.00    +0.044 A 
ATOM     35  C   UNL A   1      41.242 -21.847 -32.711  0.00  0.00    -0.040 A 
ATOM     36  C   UNL A   1      39.984 -22.456 -32.628  0.00  0.00    -0.060 A 
ATOM     37  C   UNL A   1      38.830 -21.677 -32.590  0.00  0.00    -0.061 A 
ATOM     38  C   UNL A   1      38.933 -20.289 -32.616  0.00  0.00    -0.048 A 
ATOM     39  C   UNL A   1      40.196 -19.682 -32.672  0.00  0.00    +0.058 A 
BRANCH  34  40
ATOM     40  N   UNL A   1      42.652 -19.848 -32.860  0.00  0.00    -0.314 N 
ATOM     41  H   UNL A   1      43.044 -19.563 -32.003  0.00  0.00    +0.000 HD
BRANCH  40  47
ATOM     42  C   UNL A   1      46.031 -17.010 -35.218  0.00  0.00    -0.039 C 
ATOM     43  C   UNL A   1      45.096 -18.188 -35.155  0.00  0.00    -0.046 A 
ATOM     44  C   UNL A   1      44.993 -19.020 -36.280  0.00  0.00    -0.058 A 
ATOM     45  C   UNL A   1      44.136 -20.115 -36.276  0.00  0.00    -0.060 A 
ATOM     46  C   UNL A   1      43.368 -20.391 -35.147  0.00  0.00    -0.040 A 
ATOM     47  C   UNL A   1      43.454 -19.592 -34.000  0.00  0.00    +0.035 A 
ATOM     48  C   UNL A   1      44.344 -18.488 -33.994  0.00  0.00    -0.026 A 
ATOM     49  C   UNL A   1      44.450 -17.611 -32.769  0.00  0.00    -0.038 C 
ENDBRANCH  40  47
ENDBRANCH  34  40
ENDBRANCH  30  39
ENDBRANCH  29  32
ENDBRANCH  28  29
ENDBRANCH  27  28
ENDBRANCH  26  27
ENDBRANCH   1  26
TORSDOF 14
ENDMDL
MODEL 11
REMARK VINA RESULT:    -6.776      2.557      7.938
REMARK INTER + INTRA:         -17.099
REMARK INTER:                 -12.564
REMARK INTRA:                  -4.535
REMARK UNBOUND:                -4.777
REMARK  Name = cpd47.pdb
REMARK  16 active torsions:
REMARK  status: ('A' for Active; 'I' for Inactive)
REMARK    1  A    between atoms: C_1  and  C_2
REMARK    2  A    between atoms: C_6  and  N_7
REMARK    3  A    between atoms: N_7  and  C_8
REMARK    4  A    between atoms: C_13  and  C_14
REMARK    5  A    between atoms: N_16  and  C_17
REMARK    6  A    between atoms: C_17  and  C_18
REMARK    7  A    between atoms: C_18  and  C_19
REMARK    8  A    between atoms: C_19  and  C_20
REMARK    9  A    between atoms: C_20  and  C_21
REMARK   10  A    between atoms: C_21  and  C_22
REMARK   11  A    between atoms: N_24  and  C_25
REMARK   12  A    between atoms: C_25  and  C_26
REMARK   13  A    between atoms: C_26  and  C_27
REMARK   14  A    between atoms: C_27  and  N_28
REMARK   15  A    between atoms: N_28  and  C_29
REMARK   16  A    between atoms: C_44  and  C_45
REMARK                            x       y       z     vdW  Elec       q    Type
REMARK                         _______ _______ _______ _____ _____    ______ ____
ROOT
ATOM      1  C   UNL A   1      43.723 -19.889 -35.419  0.00  0.00    +0.024 C 
ENDROOT
BRANCH   1   2
ATOM      2  C   UNL A   1      43.063 -19.989 -34.056  0.00  0.00    +0.213 C 
ATOM      3  O   UNL A   1      43.352 -19.280 -33.102  0.00  0.00    -0.276 OA
ATOM      4  N   UNL A   1      42.094 -20.970 -34.011  0.00  0.00    -0.315 N 
ATOM      5  H   UNL A   1      41.917 -21.503 -34.820  0.00  0.00    +0.000 HD
BRANCH   4   6
ATOM      6  C   UNL A   1      41.329 -21.242 -32.812  0.00  0.00    +0.013 C 
BRANCH   6   7
ATOM      7  C   UNL A   1      40.581 -22.570 -32.902  0.00  0.00    -0.022 C 
BRANCH   7   8
ATOM      8  C   UNL A   1      40.569 -23.088 -34.338  0.00  0.00    +0.011 C 
BRANCH   8   9
ATOM      9  N   UNL A   1      39.191 -23.085 -34.850  0.00  0.00    -0.343 N 
ATOM     10  H   UNL A   1      38.586 -23.861 -34.811  0.00  0.00    +0.000 HD
BRANCH   9  11
ATOM     11  C   UNL A   1      38.840 -21.820 -35.410  0.00  0.00    +0.041 A 
ATOM     12  C   UNL A   1      39.428 -21.431 -36.629  0.00  0.00    -0.005 A 
ATOM     13  C   UNL A   1      39.101 -20.172 -37.134  0.00  0.00    +0.047 A 
ATOM     14  N   UNL A   1      38.288 -19.304 -36.487  0.00  0.00    -0.251 NA
ATOM     15  C   UNL A   1      37.741 -19.666 -35.321  0.00  0.00    +0.074 A 
ATOM     16  C   UNL A   1      36.909 -18.752 -34.693  0.00  0.00    -0.017 A 
ATOM     17  C   UNL A   1      36.301 -19.043 -33.475  0.00  0.00    +0.043 A 
ATOM     18 CL   UNL A   1      35.276 -17.881 -32.726  0.00  0.00    -0.083 Cl
ATOM     19  C   UNL A   1      36.519 -20.266 -32.860  0.00  0.00    -0.043 A 
ATOM     20  C   UNL A   1      37.353 -21.198 -33.476  0.00  0.00    -0.049 A 
ATOM     21  C   UNL A   1      37.980 -20.919 -34.718  0.00  0.00    +0.022 A 
ATOM     22  C   UNL A   1      39.682 -19.661 -38.427  0.00  0.00    -0.010 C 
ATOM     23  C   UNL A   1      40.189 -20.771 -39.340  0.00  0.00    -0.047 C 
ATOM     24  C   UNL A   1      41.075 -21.723 -38.551  0.00  0.00    -0.049 C 
ATOM     25  C   UNL A   1      40.280 -22.390 -37.429  0.00  0.00    -0.024 C 
ENDBRANCH   9  11
ENDBRANCH   8   9
ENDBRANCH   7   8
ENDBRANCH   6   7
ENDBRANCH   4   6
ENDBRANCH   1   2
BRANCH   1  26
ATOM     26  C   UNL A   1      42.789 -19.322 -36.485  0.00  0.00    -0.045 C 
BRANCH  26  27
ATOM     27  C   UNL A   1      42.194 -17.985 -36.038  0.00  0.00    -0.051 C 
BRANCH  27  28
ATOM     28  C   UNL A   1      41.948 -17.052 -37.228  0.00  0.00    -0.037 C 
BRANCH  28  29
ATOM     29  C   UNL A   1      42.897 -17.331 -38.396  0.00  0.00    +0.012 C 
BRANCH  29  32
ATOM     30  C   UNL A   1      45.152 -16.229 -38.704  0.00  0.00    +0.246 C 
ATOM     31  O   UNL A   1      45.773 -15.405 -39.367  0.00  0.00    -0.270 OA
ATOM     32  N   UNL A   1      43.776 -16.206 -38.679  0.00  0.00    -0.311 N 
ATOM     33  H   UNL A   1      43.344 -15.342 -38.872  0.00  0.00    +0.000 HD
BRANCH  30  39
ATOM     34  C   UNL A   1      46.358 -18.438 -38.518  0.00  0.00    +0.044 A 
ATOM     35  C   UNL A   1      47.046 -19.341 -37.693  0.00  0.00    -0.040 A 
ATOM     36  C   UNL A   1      47.205 -19.101 -36.324  0.00  0.00    -0.060 A 
ATOM     37  C   UNL A   1      46.679 -17.947 -35.748  0.00  0.00    -0.061 A 
ATOM     38  C   UNL A   1      46.011 -17.022 -36.546  0.00  0.00    -0.048 A 
ATOM     39  C   UNL A   1      45.876 -17.252 -37.923  0.00  0.00    +0.058 A 
BRANCH  34  40
ATOM     40  N   UNL A   1      46.191 -18.699 -39.898  0.00  0.00    -0.314 N 
ATOM     41  H   UNL A   1      46.626 -18.051 -40.499  0.00  0.00    +0.000 HD
BRANCH  40  47
ATOM     42  C   UNL A   1      46.260 -22.821 -42.734  0.00  0.00    -0.039 C 
ATOM     43  C   UNL A   1      45.537 -21.756 -41.954  0.00  0.00    -0.046 A 
ATOM     44  C   UNL A   1      44.135 -21.790 -41.918  0.00  0.00    -0.058 A 
ATOM     45  C   UNL A   1      43.420 -20.822 -41.221  0.00  0.00    -0.060 A 
ATOM     46  C   UNL A   1      44.097 -19.807 -40.550  0.00  0.00    -0.040 A 
ATOM     47  C   UNL A   1      45.497 -19.748 -40.551  0.00  0.00    +0.035 A 
ATOM     48  C   UNL A   1      46.229 -20.746 -41.243  0.00  0.00    -0.026 A 
ATOM     49  C   UNL A   1      47.738 -20.699 -41.259  0.00  0.00    -0.038 C 
ENDBRANCH  40  47
ENDBRANCH  34  40
ENDBRANCH  30  39
ENDBRANCH  29  32
ENDBRANCH  28  29
ENDBRANCH  27  28
ENDBRANCH  26  27
ENDBRANCH   1  26
TORSDOF 14
ENDMDL
MODEL 12
REMARK VINA RESULT:    -6.721      2.743      5.784
REMARK INTER + INTRA:         -16.999
REMARK INTER:                 -12.784
REMARK INTRA:                  -4.215
REMARK UNBOUND:                -4.777
REMARK  Name = cpd47.pdb
REMARK  16 active torsions:
REMARK  status: ('A' for Active; 'I' for Inactive)
REMARK    1  A    between atoms: C_1  and  C_2
REMARK    2  A    between atoms: C_6  and  N_7
REMARK    3  A    between atoms: N_7  and  C_8
REMARK    4  A    between atoms: C_13  and  C_14
REMARK    5  A    between atoms: N_16  and  C_17
REMARK    6  A    between atoms: C_17  and  C_18
REMARK    7  A    between atoms: C_18  and  C_19
REMARK    8  A    between atoms: C_19  and  C_20
REMARK    9  A    between atoms: C_20  and  C_21
REMARK   10  A    between atoms: C_21  and  C_22
REMARK   11  A    between atoms: N_24  and  C_25
REMARK   12  A    between atoms: C_25  and  C_26
REMARK   13  A    between atoms: C_26  and  C_27
REMARK   14  A    between atoms: C_27  and  N_28
REMARK   15  A    between atoms: N_28  and  C_29
REMARK   16  A    between atoms: C_44  and  C_45
REMARK                            x       y       z     vdW  Elec       q    Type
REMARK                         _______ _______ _______ _____ _____    ______ ____
ROOT
ATOM      1  C   UNL A   1      41.601 -15.228 -37.458  0.00  0.00    +0.024 C 
ENDROOT
BRANCH   1   2
ATOM      2  C   UNL A   1      42.711 -15.137 -38.488  0.00  0.00    +0.213 C 
ATOM      3  O   UNL A   1      42.576 -14.640 -39.599  0.00  0.00    -0.276 OA
ATOM      4  N   UNL A   1      43.897 -15.676 -38.034  0.00  0.00    -0.315 N 
ATOM      5  H   UNL A   1      43.929 -16.061 -37.128  0.00  0.00    +0.000 HD
BRANCH   4   6
ATOM      6  C   UNL A   1      45.096 -15.696 -38.847  0.00  0.00    +0.013 C 
BRANCH   6   7
ATOM      7  C   UNL A   1      46.186 -16.571 -38.233  0.00  0.00    -0.022 C 
BRANCH   7   8
ATOM      8  C   UNL A   1      46.551 -17.719 -39.173  0.00  0.00    +0.011 C 
BRANCH   8   9
ATOM      9  N   UNL A   1      45.476 -17.908 -40.157  0.00  0.00    -0.343 N 
ATOM     10  H   UNL A   1      45.092 -17.184 -40.703  0.00  0.00    +0.000 HD
BRANCH   9  11
ATOM     11  C   UNL A   1      45.056 -19.272 -40.222  0.00  0.00    +0.041 A 
ATOM     12  C   UNL A   1      43.793 -19.617 -39.704  0.00  0.00    -0.005 A 
ATOM     13  C   UNL A   1      43.424 -20.963 -39.742  0.00  0.00    +0.047 A 
ATOM     14  N   UNL A   1      44.237 -21.940 -40.207  0.00  0.00    -0.251 NA
ATOM     15  C   UNL A   1      45.443 -21.615 -40.685  0.00  0.00    +0.074 A 
ATOM     16  C   UNL A   1      46.243 -22.643 -41.160  0.00  0.00    -0.017 A 
ATOM     17  C   UNL A   1      47.514 -22.396 -41.671  0.00  0.00    +0.043 A 
ATOM     18 CL   UNL A   1      48.477 -23.699 -42.249  0.00  0.00    -0.083 Cl
ATOM     19  C   UNL A   1      48.010 -21.102 -41.716  0.00  0.00    -0.043 A 
ATOM     20  C   UNL A   1      47.220 -20.055 -41.242  0.00  0.00    -0.049 A 
ATOM     21  C   UNL A   1      45.922 -20.288 -40.719  0.00  0.00    +0.022 A 
ATOM     22  C   UNL A   1      42.098 -21.436 -39.206  0.00  0.00    -0.010 C 
ATOM     23  C   UNL A   1      41.050 -20.332 -39.129  0.00  0.00    -0.047 C 
ATOM     24  C   UNL A   1      41.639 -19.110 -38.441  0.00  0.00    -0.049 C 
ATOM     25  C   UNL A   1      42.818 -18.559 -39.243  0.00  0.00    -0.024 C 
ENDBRANCH   9  11
ENDBRANCH   8   9
ENDBRANCH   7   8
ENDBRANCH   6   7
ENDBRANCH   4   6
ENDBRANCH   1   2
BRANCH   1  26
ATOM     26  C   UNL A   1      42.064 -15.862 -36.149  0.00  0.00    -0.045 C 
BRANCH  26  27
ATOM     27  C   UNL A   1      41.263 -15.323 -34.963  0.00  0.00    -0.051 C 
BRANCH  27  28
ATOM     28  C   UNL A   1      42.169 -14.994 -33.773  0.00  0.00    -0.037 C 
BRANCH  28  29
ATOM     29  C   UNL A   1      43.538 -15.671 -33.875  0.00  0.00    +0.012 C 
BRANCH  29  32
ATOM     30  C   UNL A   1      44.433 -17.699 -32.659  0.00  0.00    +0.246 C 
ATOM     31  O   UNL A   1      45.068 -18.069 -31.677  0.00  0.00    -0.270 OA
ATOM     32  N   UNL A   1      43.865 -16.446 -32.687  0.00  0.00    -0.311 N 
ATOM     33  H   UNL A   1      43.659 -16.033 -31.817  0.00  0.00    +0.000 HD
BRANCH  30  39
ATOM     34  C   UNL A   1      43.300 -19.623 -33.834  0.00  0.00    +0.044 A 
ATOM     35  C   UNL A   1      43.213 -20.415 -34.990  0.00  0.00    -0.040 A 
ATOM     36  C   UNL A   1      44.088 -20.229 -36.067  0.00  0.00    -0.060 A 
ATOM     37  C   UNL A   1      45.069 -19.242 -36.011  0.00  0.00    -0.061 A 
ATOM     38  C   UNL A   1      45.164 -18.427 -34.886  0.00  0.00    -0.048 A 
ATOM     39  C   UNL A   1      44.269 -18.598 -33.820  0.00  0.00    +0.058 A 
BRANCH  34  40
ATOM     40  N   UNL A   1      42.419 -19.831 -32.747  0.00  0.00    -0.314 N 
ATOM     41  H   UNL A   1      42.828 -20.250 -31.955  0.00  0.00    +0.000 HD
BRANCH  40  47
ATOM     42  C   UNL A   1      37.658 -21.363 -32.569  0.00  0.00    -0.039 C 
ATOM     43  C   UNL A   1      38.710 -20.285 -32.551  0.00  0.00    -0.046 A 
ATOM     44  C   UNL A   1      38.296 -18.949 -32.449  0.00  0.00    -0.058 A 
ATOM     45  C   UNL A   1      39.228 -17.917 -32.438  0.00  0.00    -0.060 A 
ATOM     46  C   UNL A   1      40.586 -18.207 -32.531  0.00  0.00    -0.040 A 
ATOM     47  C   UNL A   1      41.040 -19.530 -32.620  0.00  0.00    +0.035 A 
ATOM     48  C   UNL A   1      40.093 -20.585 -32.608  0.00  0.00    -0.026 A 
ATOM     49  C   UNL A   1      40.559 -22.019 -32.706  0.00  0.00    -0.038 C 
ENDBRANCH  40  47
ENDBRANCH  34  40
ENDBRANCH  30  39
ENDBRANCH  29  32
ENDBRANCH  28  29
ENDBRANCH  27  28
ENDBRANCH  26  27
ENDBRANCH   1  26
TORSDOF 14
ENDMDL
MODEL 13
REMARK VINA RESULT:    -6.606      3.084      7.724
REMARK INTER + INTRA:         -16.790
REMARK INTER:                 -12.124
REMARK INTRA:                  -4.665
REMARK UNBOUND:                -4.777
REMARK  Name = cpd47.pdb
REMARK  16 active torsions:
REMARK  status: ('A' for Active; 'I' for Inactive)
REMARK    1  A    between atoms: C_1  and  C_2
REMARK    2  A    between atoms: C_6  and  N_7
REMARK    3  A    between atoms: N_7  and  C_8
REMARK    4  A    between atoms: C_13  and  C_14
REMARK    5  A    between atoms: N_16  and  C_17
REMARK    6  A    between atoms: C_17  and  C_18
REMARK    7  A    between atoms: C_18  and  C_19
REMARK    8  A    between atoms: C_19  and  C_20
REMARK    9  A    between atoms: C_20  and  C_21
REMARK   10  A    between atoms: C_21  and  C_22
REMARK   11  A    between atoms: N_24  and  C_25
REMARK   12  A    between atoms: C_25  and  C_26
REMARK   13  A    between atoms: C_26  and  C_27
REMARK   14  A    between atoms: C_27  and  N_28
REMARK   15  A    between atoms: N_28  and  C_29
REMARK   16  A    between atoms: C_44  and  C_45
REMARK                            x       y       z     vdW  Elec       q    Type
REMARK                         _______ _______ _______ _____ _____    ______ ____
ROOT
ATOM      1  C   UNL A   1      44.171 -15.584 -34.987  0.00  0.00    +0.024 C 
ENDROOT
BRANCH   1   2
ATOM      2  C   UNL A   1      42.966 -14.731 -35.335  0.00  0.00    +0.213 C 
ATOM      3  O   UNL A   1      42.885 -14.037 -36.340  0.00  0.00    -0.276 OA
ATOM      4  N   UNL A   1      41.964 -14.824 -34.390  0.00  0.00    -0.315 N 
ATOM      5  H   UNL A   1      42.101 -15.403 -33.605  0.00  0.00    +0.000 HD
BRANCH   4   6
ATOM      6  C   UNL A   1      40.717 -14.098 -34.517  0.00  0.00    +0.013 C 
BRANCH   6   7
ATOM      7  C   UNL A   1      39.586 -14.771 -33.744  0.00  0.00    -0.022 C 
BRANCH   7   8
ATOM      8  C   UNL A   1      39.913 -16.238 -33.473  0.00  0.00    +0.011 C 
BRANCH   8   9
ATOM      9  N   UNL A   1      39.196 -17.087 -34.434  0.00  0.00    -0.343 N 
ATOM     10  H   UNL A   1      38.253 -16.961 -34.687  0.00  0.00    +0.000 HD
BRANCH   9  11
ATOM     11  C   UNL A   1      40.036 -18.117 -34.957  0.00  0.00    +0.041 A 
ATOM     12  C   UNL A   1      40.539 -17.982 -36.266  0.00  0.00    -0.005 A 
ATOM     13  C   UNL A   1      41.323 -19.022 -36.768  0.00  0.00    +0.047 A 
ATOM     14  N   UNL A   1      41.578 -20.157 -36.076  0.00  0.00    -0.251 NA
ATOM     15  C   UNL A   1      41.088 -20.293 -34.839  0.00  0.00    +0.074 A 
ATOM     16  C   UNL A   1      41.377 -21.467 -34.160  0.00  0.00    -0.017 A 
ATOM     17  C   UNL A   1      40.905 -21.694 -32.871  0.00  0.00    +0.043 A 
ATOM     18 CL   UNL A   1      41.285 -23.164 -32.062  0.00  0.00    -0.083 Cl
ATOM     19  C   UNL A   1      40.127 -20.740 -32.234  0.00  0.00    -0.043 A 
ATOM     20  C   UNL A   1      39.824 -19.553 -32.900  0.00  0.00    -0.049 A 
ATOM     21  C   UNL A   1      40.299 -19.304 -34.215  0.00  0.00    +0.022 A 
ATOM     22  C   UNL A   1      41.901 -18.978 -38.159  0.00  0.00    -0.010 C 
ATOM     23  C   UNL A   1      42.006 -17.565 -38.723  0.00  0.00    -0.047 C 
ATOM     24  C   UNL A   1      40.684 -16.837 -38.537  0.00  0.00    -0.049 C 
ATOM     25  C   UNL A   1      40.348 -16.705 -37.051  0.00  0.00    -0.024 C 
ENDBRANCH   9  11
ENDBRANCH   8   9
ENDBRANCH   7   8
ENDBRANCH   6   7
ENDBRANCH   4   6
ENDBRANCH   1   2
BRANCH   1  26
ATOM     26  C   UNL A   1      43.819 -17.062 -34.827  0.00  0.00    -0.045 C 
BRANCH  26  27
ATOM     27  C   UNL A   1      44.132 -17.551 -33.412  0.00  0.00    -0.051 C 
BRANCH  27  28
ATOM     28  C   UNL A   1      44.286 -19.074 -33.364  0.00  0.00    -0.037 C 
BRANCH  28  29
ATOM     29  C   UNL A   1      44.770 -19.656 -34.695  0.00  0.00    +0.012 C 
BRANCH  29  32
ATOM     30  C   UNL A   1      47.276 -19.678 -35.034  0.00  0.00    +0.246 C 
ATOM     31  O   UNL A   1      48.345 -20.002 -34.527  0.00  0.00    -0.270 OA
ATOM     32  N   UNL A   1      46.100 -20.241 -34.595  0.00  0.00    -0.311 N 
ATOM     33  H   UNL A   1      46.164 -21.127 -34.170  0.00  0.00    +0.000 HD
BRANCH  30  39
ATOM     34  C   UNL A   1      47.105 -19.065 -37.476  0.00  0.00    +0.044 A 
ATOM     35  C   UNL A   1      47.070 -18.043 -38.437  0.00  0.00    -0.040 A 
ATOM     36  C   UNL A   1      47.215 -16.699 -38.076  0.00  0.00    -0.060 A 
ATOM     37  C   UNL A   1      47.398 -16.347 -36.741  0.00  0.00    -0.061 A 
ATOM     38  C   UNL A   1      47.416 -17.339 -35.763  0.00  0.00    -0.048 A 
ATOM     39  C   UNL A   1      47.243 -18.682 -36.125  0.00  0.00    +0.058 A 
BRANCH  34  40
ATOM     40  N   UNL A   1      46.971 -20.421 -37.856  0.00  0.00    -0.314 N 
ATOM     41  H   UNL A   1      47.426 -21.065 -37.266  0.00  0.00    +0.000 HD
BRANCH  40  47
ATOM     42  C   UNL A   1      47.041 -23.136 -42.059  0.00  0.00    -0.039 C 
ATOM     43  C   UNL A   1      46.327 -22.314 -41.019  0.00  0.00    -0.046 A 
ATOM     44  C   UNL A   1      44.953 -22.083 -41.178  0.00  0.00    -0.058 A 
ATOM     45  C   UNL A   1      44.251 -21.320 -40.251  0.00  0.00    -0.060 A 
ATOM     46  C   UNL A   1      44.914 -20.778 -39.153  0.00  0.00    -0.040 A 
ATOM     47  C   UNL A   1      46.283 -20.998 -38.953  0.00  0.00    +0.035 A 
ATOM     48  C   UNL A   1      46.996 -21.793 -39.885  0.00  0.00    -0.026 A 
ATOM     49  C   UNL A   1      48.474 -22.041 -39.691  0.00  0.00    -0.038 C 
ENDBRANCH  40  47
ENDBRANCH  34  40
ENDBRANCH  30  39
ENDBRANCH  29  32
ENDBRANCH  28  29
ENDBRANCH  27  28
ENDBRANCH  26  27
ENDBRANCH   1  26
TORSDOF 14
ENDMDL
MODEL 14
REMARK VINA RESULT:    -6.600     18.237     22.763
REMARK INTER + INTRA:         -16.779
REMARK INTER:                 -11.336
REMARK INTRA:                  -5.443
REMARK UNBOUND:                -4.777
REMARK  Name = cpd47.pdb
REMARK  16 active torsions:
REMARK  status: ('A' for Active; 'I' for Inactive)
REMARK    1  A    between atoms: C_1  and  C_2
REMARK    2  A    between atoms: C_6  and  N_7
REMARK    3  A    between atoms: N_7  and  C_8
REMARK    4  A    between atoms: C_13  and  C_14
REMARK    5  A    between atoms: N_16  and  C_17
REMARK    6  A    between atoms: C_17  and  C_18
REMARK    7  A    between atoms: C_18  and  C_19
REMARK    8  A    between atoms: C_19  and  C_20
REMARK    9  A    between atoms: C_20  and  C_21
REMARK   10  A    between atoms: C_21  and  C_22
REMARK   11  A    between atoms: N_24  and  C_25
REMARK   12  A    between atoms: C_25  and  C_26
REMARK   13  A    between atoms: C_26  and  C_27
REMARK   14  A    between atoms: C_27  and  N_28
REMARK   15  A    between atoms: N_28  and  C_29
REMARK   16  A    between atoms: C_44  and  C_45
REMARK                            x       y       z     vdW  Elec       q    Type
REMARK                         _______ _______ _______ _____ _____    ______ ____
ROOT
ATOM      1  C   UNL A   1      31.302 -37.695 -29.649  0.00  0.00    +0.024 C 
ENDROOT
BRANCH   1   2
ATOM      2  C   UNL A   1      30.107 -38.607 -29.445  0.00  0.00    +0.213 C 
ATOM      3  O   UNL A   1      29.313 -38.499 -28.520  0.00  0.00    -0.276 OA
ATOM      4  N   UNL A   1      30.012 -39.577 -30.422  0.00  0.00    -0.315 N 
ATOM      5  H   UNL A   1      30.690 -39.603 -31.135  0.00  0.00    +0.000 HD
BRANCH   4   6
ATOM      6  C   UNL A   1      28.946 -40.558 -30.431  0.00  0.00    +0.013 C 
BRANCH   6   7
ATOM      7  C   UNL A   1      29.483 -41.984 -30.358  0.00  0.00    -0.022 C 
BRANCH   7   8
ATOM      8  C   UNL A   1      30.862 -42.010 -29.702  0.00  0.00    +0.011 C 
BRANCH   8   9
ATOM      9  N   UNL A   1      31.753 -42.894 -30.467  0.00  0.00    -0.343 N 
ATOM     10  H   UNL A   1      31.713 -43.877 -30.439  0.00  0.00    +0.000 HD
BRANCH   9  11
ATOM     11  C   UNL A   1      32.684 -42.150 -31.254  0.00  0.00    +0.041 A 
ATOM     12  C   UNL A   1      33.807 -41.583 -30.621  0.00  0.00    -0.005 A 
ATOM     13  C   UNL A   1      34.678 -40.826 -31.404  0.00  0.00    +0.047 A 
ATOM     14  N   UNL A   1      34.468 -40.580 -32.719  0.00  0.00    -0.251 NA
ATOM     15  C   UNL A   1      33.393 -41.105 -33.318  0.00  0.00    +0.074 A 
ATOM     16  C   UNL A   1      33.216 -40.836 -34.667  0.00  0.00    -0.017 A 
ATOM     17  C   UNL A   1      32.124 -41.338 -35.369  0.00  0.00    +0.043 A 
ATOM     18 CL   UNL A   1      31.939 -40.981 -37.041  0.00  0.00    -0.083 Cl
ATOM     19  C   UNL A   1      31.181 -42.125 -34.725  0.00  0.00    -0.043 A 
ATOM     20  C   UNL A   1      31.341 -42.406 -33.369  0.00  0.00    -0.049 A 
ATOM     21  C   UNL A   1      32.450 -41.904 -32.638  0.00  0.00    +0.022 A 
ATOM     22  C   UNL A   1      35.904 -40.171 -30.821  0.00  0.00    -0.010 C 
ATOM     23  C   UNL A   1      36.368 -40.815 -29.519  0.00  0.00    -0.047 C 
ATOM     24  C   UNL A   1      35.189 -40.968 -28.571  0.00  0.00    -0.049 C 
ATOM     25  C   UNL A   1      34.130 -41.889 -29.176  0.00  0.00    -0.024 C 
ENDBRANCH   9  11
ENDBRANCH   8   9
ENDBRANCH   7   8
ENDBRANCH   6   7
ENDBRANCH   4   6
ENDBRANCH   1   2
BRANCH   1  26
ATOM     26  C   UNL A   1      30.992 -36.237 -29.319  0.00  0.00    -0.045 C 
BRANCH  26  27
ATOM     27  C   UNL A   1      31.736 -35.789 -28.060  0.00  0.00    -0.051 C 
BRANCH  27  28
ATOM     28  C   UNL A   1      32.207 -34.336 -28.170  0.00  0.00    -0.037 C 
BRANCH  28  29
ATOM     29  C   UNL A   1      31.895 -33.722 -29.537  0.00  0.00    +0.012 C 
BRANCH  29  32
ATOM     30  C   UNL A   1      33.580 -33.479 -31.407  0.00  0.00    +0.246 C 
ATOM     31  O   UNL A   1      34.260 -32.673 -32.033  0.00  0.00    -0.270 OA
ATOM     32  N   UNL A   1      33.074 -33.148 -30.171  0.00  0.00    -0.311 N 
ATOM     33  H   UNL A   1      33.557 -32.455 -29.665  0.00  0.00    +0.000 HD
BRANCH  30  39
ATOM     34  C   UNL A   1      34.223 -35.875 -31.867  0.00  0.00    +0.044 A 
ATOM     35  C   UNL A   1      33.857 -37.109 -32.427  0.00  0.00    -0.040 A 
ATOM     36  C   UNL A   1      32.645 -37.269 -33.109  0.00  0.00    -0.060 A 
ATOM     37  C   UNL A   1      31.770 -36.194 -33.244  0.00  0.00    -0.061 A 
ATOM     38  C   UNL A   1      32.097 -34.964 -32.680  0.00  0.00    -0.048 A 
ATOM     39  C   UNL A   1      33.299 -34.814 -31.974  0.00  0.00    +0.058 A 
BRANCH  34  40
ATOM     40  N   UNL A   1      35.457 -35.723 -31.193  0.00  0.00    -0.314 N 
ATOM     41  H   UNL A   1      36.091 -35.104 -31.621  0.00  0.00    +0.000 HD
BRANCH  40  47
ATOM     42  C   UNL A   1      39.103 -38.004 -28.635  0.00  0.00    -0.039 C 
ATOM     43  C   UNL A   1      37.707 -37.455 -28.755  0.00  0.00    -0.046 A 
ATOM     44  C   UNL A   1      36.840 -37.588 -27.661  0.00  0.00    -0.058 A 
ATOM     45  C   UNL A   1      35.537 -37.107 -27.725  0.00  0.00    -0.060 A 
ATOM     46  C   UNL A   1      35.082 -36.487 -28.887  0.00  0.00    -0.040 A 
ATOM     47  C   UNL A   1      35.923 -36.323 -29.996  0.00  0.00    +0.035 A 
ATOM     48  C   UNL A   1      37.258 -36.793 -29.924  0.00  0.00    -0.026 A 
ATOM     49  C   UNL A   1      38.181 -36.630 -31.109  0.00  0.00    -0.038 C 
ENDBRANCH  40  47
ENDBRANCH  34  40
ENDBRANCH  30  39
ENDBRANCH  29  32
ENDBRANCH  28  29
ENDBRANCH  27  28
ENDBRANCH  26  27
ENDBRANCH   1  26
TORSDOF 14
ENDMDL
MODEL 15
REMARK VINA RESULT:    -6.505      2.767      8.979
REMARK INTER + INTRA:         -16.606
REMARK INTER:                 -12.749
REMARK INTRA:                  -3.857
REMARK UNBOUND:                -4.777
REMARK  Name = cpd47.pdb
REMARK  16 active torsions:
REMARK  status: ('A' for Active; 'I' for Inactive)
REMARK    1  A    between atoms: C_1  and  C_2
REMARK    2  A    between atoms: C_6  and  N_7
REMARK    3  A    between atoms: N_7  and  C_8
REMARK    4  A    between atoms: C_13  and  C_14
REMARK    5  A    between atoms: N_16  and  C_17
REMARK    6  A    between atoms: C_17  and  C_18
REMARK    7  A    between atoms: C_18  and  C_19
REMARK    8  A    between atoms: C_19  and  C_20
REMARK    9  A    between atoms: C_20  and  C_21
REMARK   10  A    between atoms: C_21  and  C_22
REMARK   11  A    between atoms: N_24  and  C_25
REMARK   12  A    between atoms: C_25  and  C_26
REMARK   13  A    between atoms: C_26  and  C_27
REMARK   14  A    between atoms: C_27  and  N_28
REMARK   15  A    between atoms: N_28  and  C_29
REMARK   16  A    between atoms: C_44  and  C_45
REMARK                            x       y       z     vdW  Elec       q    Type
REMARK                         _______ _______ _______ _____ _____    ______ ____
ROOT
ATOM      1  C   UNL A   1      45.241 -18.405 -34.105  0.00  0.00    +0.024 C 
ENDROOT
BRANCH   1   2
ATOM      2  C   UNL A   1      44.675 -17.455 -33.066  0.00  0.00    +0.213 C 
ATOM      3  O   UNL A   1      45.029 -17.431 -31.895  0.00  0.00    -0.276 OA
ATOM      4  N   UNL A   1      43.714 -16.614 -33.589  0.00  0.00    -0.315 N 
ATOM      5  H   UNL A   1      43.480 -16.693 -34.543  0.00  0.00    +0.000 HD
BRANCH   4   6
ATOM      6  C   UNL A   1      43.039 -15.620 -32.781  0.00  0.00    +0.013 C 
BRANCH   6   7
ATOM      7  C   UNL A   1      41.534 -15.605 -33.036  0.00  0.00    -0.022 C 
BRANCH   7   8
ATOM      8  C   UNL A   1      40.916 -16.961 -32.701  0.00  0.00    +0.011 C 
BRANCH   8   9
ATOM      9  N   UNL A   1      40.197 -17.476 -33.876  0.00  0.00    -0.343 N 
ATOM     10  H   UNL A   1      40.290 -17.110 -34.785  0.00  0.00    +0.000 HD
BRANCH   9  11
ATOM     11  C   UNL A   1      39.347 -18.572 -33.534  0.00  0.00    +0.041 A 
ATOM     12  C   UNL A   1      37.971 -18.331 -33.354  0.00  0.00    -0.005 A 
ATOM     13  C   UNL A   1      37.169 -19.410 -32.980  0.00  0.00    +0.047 A 
ATOM     14  N   UNL A   1      37.660 -20.649 -32.742  0.00  0.00    -0.251 NA
ATOM     15  C   UNL A   1      38.969 -20.875 -32.897  0.00  0.00    +0.074 A 
ATOM     16  C   UNL A   1      39.432 -22.159 -32.651  0.00  0.00    -0.017 A 
ATOM     17  C   UNL A   1      40.779 -22.482 -32.784  0.00  0.00    +0.043 A 
ATOM     18 CL   UNL A   1      41.314 -24.086 -32.468  0.00  0.00    -0.083 Cl
ATOM     19  C   UNL A   1      41.695 -21.514 -33.169  0.00  0.00    -0.043 A 
ATOM     20  C   UNL A   1      41.249 -20.218 -33.420  0.00  0.00    -0.049 A 
ATOM     21  C   UNL A   1      39.878 -19.871 -33.291  0.00  0.00    +0.022 A 
ATOM     22  C   UNL A   1      35.687 -19.256 -32.755  0.00  0.00    -0.010 C 
ATOM     23  C   UNL A   1      35.096 -18.037 -33.453  0.00  0.00    -0.047 C 
ATOM     24  C   UNL A   1      35.939 -16.808 -33.148  0.00  0.00    -0.049 C 
ATOM     25  C   UNL A   1      37.361 -16.988 -33.680  0.00  0.00    -0.024 C 
ENDBRANCH   9  11
ENDBRANCH   8   9
ENDBRANCH   7   8
ENDBRANCH   6   7
ENDBRANCH   4   6
ENDBRANCH   1   2
BRANCH   1  26
ATOM     26  C   UNL A   1      44.184 -18.891 -35.094  0.00  0.00    -0.045 C 
BRANCH  26  27
ATOM     27  C   UNL A   1      44.663 -20.138 -35.840  0.00  0.00    -0.051 C 
BRANCH  27  28
ATOM     28  C   UNL A   1      46.088 -19.962 -36.376  0.00  0.00    -0.037 C 
BRANCH  28  29
ATOM     29  C   UNL A   1      46.216 -20.372 -37.844  0.00  0.00    +0.012 C 
BRANCH  29  32
ATOM     30  C   UNL A   1      46.691 -19.220 -40.045  0.00  0.00    +0.246 C 
ATOM     31  O   UNL A   1      46.761 -18.129 -40.600  0.00  0.00    -0.270 OA
ATOM     32  N   UNL A   1      46.763 -19.307 -38.674  0.00  0.00    -0.311 N 
ATOM     33  H   UNL A   1      47.230 -18.576 -38.207  0.00  0.00    +0.000 HD
BRANCH  30  39
ATOM     34  C   UNL A   1      45.266 -20.895 -41.283  0.00  0.00    +0.044 A 
ATOM     35  C   UNL A   1      45.222 -22.070 -42.050  0.00  0.00    -0.040 A 
ATOM     36  C   UNL A   1      46.382 -22.803 -42.326  0.00  0.00    -0.060 A 
ATOM     37  C   UNL A   1      47.615 -22.373 -41.842  0.00  0.00    -0.061 A 
ATOM     38  C   UNL A   1      47.692 -21.199 -41.097  0.00  0.00    -0.048 A 
ATOM     39  C   UNL A   1      46.532 -20.452 -40.845  0.00  0.00    +0.058 A 
BRANCH  34  40
ATOM     40  N   UNL A   1      44.084 -20.171 -40.999  0.00  0.00    -0.314 N 
ATOM     41  H   UNL A   1      43.839 -19.495 -41.672  0.00  0.00    +0.000 HD
BRANCH  40  47
ATOM     42  C   UNL A   1      41.446 -17.961 -37.367  0.00  0.00    -0.039 C 
ATOM     43  C   UNL A   1      41.922 -19.180 -38.110  0.00  0.00    -0.046 A 
ATOM     44  C   UNL A   1      41.505 -20.441 -37.662  0.00  0.00    -0.058 A 
ATOM     45  C   UNL A   1      41.925 -21.599 -38.308  0.00  0.00    -0.060 A 
ATOM     46  C   UNL A   1      42.770 -21.510 -39.411  0.00  0.00    -0.040 A 
ATOM     47  C   UNL A   1      43.198 -20.267 -39.897  0.00  0.00    +0.035 A 
ATOM     48  C   UNL A   1      42.752 -19.085 -39.254  0.00  0.00    -0.026 A 
ATOM     49  C   UNL A   1      43.203 -17.735 -39.759  0.00  0.00    -0.038 C 
ENDBRANCH  40  47
ENDBRANCH  34  40
ENDBRANCH  30  39
ENDBRANCH  29  32
ENDBRANCH  28  29
ENDBRANCH  27  28
ENDBRANCH  26  27
ENDBRANCH   1  26
TORSDOF 14
ENDMDL
MODEL 16
REMARK VINA RESULT:    -6.502      2.959      8.599
REMARK INTER + INTRA:         -16.601
REMARK INTER:                 -12.403
REMARK INTRA:                  -4.198
REMARK UNBOUND:                -4.777
REMARK  Name = cpd47.pdb
REMARK  16 active torsions:
REMARK  status: ('A' for Active; 'I' for Inactive)
REMARK    1  A    between atoms: C_1  and  C_2
REMARK    2  A    between atoms: C_6  and  N_7
REMARK    3  A    between atoms: N_7  and  C_8
REMARK    4  A    between atoms: C_13  and  C_14
REMARK    5  A    between atoms: N_16  and  C_17
REMARK    6  A    between atoms: C_17  and  C_18
REMARK    7  A    between atoms: C_18  and  C_19
REMARK    8  A    between atoms: C_19  and  C_20
REMARK    9  A    between atoms: C_20  and  C_21
REMARK   10  A    between atoms: C_21  and  C_22
REMARK   11  A    between atoms: N_24  and  C_25
REMARK   12  A    between atoms: C_25  and  C_26
REMARK   13  A    between atoms: C_26  and  C_27
REMARK   14  A    between atoms: C_27  and  N_28
REMARK   15  A    between atoms: N_28  and  C_29
REMARK   16  A    between atoms: C_44  and  C_45
REMARK                            x       y       z     vdW  Elec       q    Type
REMARK                         _______ _______ _______ _____ _____    ______ ____
ROOT
ATOM      1  C   UNL A   1      40.093 -19.122 -38.729  0.00  0.00    +0.024 C 
ENDROOT
BRANCH   1   2
ATOM      2  C   UNL A   1      40.089 -17.699 -38.201  0.00  0.00    +0.213 C 
ATOM      3  O   UNL A   1      40.961 -16.876 -38.445  0.00  0.00    -0.276 OA
ATOM      4  N   UNL A   1      38.988 -17.433 -37.414  0.00  0.00    -0.315 N 
ATOM      5  H   UNL A   1      38.328 -18.147 -37.260  0.00  0.00    +0.000 HD
BRANCH   4   6
ATOM      6  C   UNL A   1      38.773 -16.136 -36.805  0.00  0.00    +0.013 C 
BRANCH   6   7
ATOM      7  C   UNL A   1      38.668 -16.230 -35.285  0.00  0.00    -0.022 C 
BRANCH   7   8
ATOM      8  C   UNL A   1      38.329 -17.655 -34.854  0.00  0.00    +0.011 C 
BRANCH   8   9
ATOM      9  N   UNL A   1      38.763 -17.864 -33.465  0.00  0.00    -0.343 N 
ATOM     10  H   UNL A   1      38.453 -17.326 -32.702  0.00  0.00    +0.000 HD
BRANCH   9  11
ATOM     11  C   UNL A   1      39.691 -18.945 -33.361  0.00  0.00    +0.041 A 
ATOM     12  C   UNL A   1      41.067 -18.652 -33.290  0.00  0.00    -0.005 A 
ATOM     13  C   UNL A   1      41.955 -19.726 -33.231  0.00  0.00    +0.047 A 
ATOM     14  N   UNL A   1      41.558 -21.019 -33.284  0.00  0.00    -0.251 NA
ATOM     15  C   UNL A   1      40.252 -21.298 -33.366  0.00  0.00    +0.074 A 
ATOM     16  C   UNL A   1      39.884 -22.634 -33.411  0.00  0.00    -0.017 A 
ATOM     17  C   UNL A   1      38.549 -23.016 -33.501  0.00  0.00    +0.043 A 
ATOM     18 CL   UNL A   1      38.132 -24.684 -33.555  0.00  0.00    -0.083 Cl
ATOM     19  C   UNL A   1      37.549 -22.056 -33.550  0.00  0.00    -0.043 A 
ATOM     20  C   UNL A   1      37.900 -20.707 -33.507  0.00  0.00    -0.049 A 
ATOM     21  C   UNL A   1      39.256 -20.300 -33.413  0.00  0.00    +0.022 A 
ATOM     22  C   UNL A   1      43.447 -19.519 -33.161  0.00  0.00    -0.010 C 
ATOM     23  C   UNL A   1      43.839 -18.140 -32.645  0.00  0.00    -0.047 C 
ATOM     24  C   UNL A   1      43.061 -17.068 -33.392  0.00  0.00    -0.049 C 
ATOM     25  C   UNL A   1      41.560 -17.230 -33.152  0.00  0.00    -0.024 C 
ENDBRANCH   9  11
ENDBRANCH   8   9
ENDBRANCH   7   8
ENDBRANCH   6   7
ENDBRANCH   4   6
ENDBRANCH   1   2
BRANCH   1  26
ATOM     26  C   UNL A   1      41.015 -20.042 -37.932  0.00  0.00    -0.045 C 
BRANCH  26  27
ATOM     27  C   UNL A   1      42.153 -20.570 -38.808  0.00  0.00    -0.051 C 
BRANCH  27  28
ATOM     28  C   UNL A   1      43.513 -20.041 -38.343  0.00  0.00    -0.037 C 
BRANCH  28  29
ATOM     29  C   UNL A   1      43.392 -19.061 -37.174  0.00  0.00    +0.012 C 
BRANCH  29  32
ATOM     30  C   UNL A   1      45.018 -17.178 -37.628  0.00  0.00    +0.246 C 
ATOM     31  O   UNL A   1      45.250 -16.220 -38.357  0.00  0.00    -0.270 OA
ATOM     32  N   UNL A   1      43.747 -17.700 -37.549  0.00  0.00    -0.311 N 
ATOM     33  H   UNL A   1      43.004 -17.092 -37.769  0.00  0.00    +0.000 HD
BRANCH  30  39
ATOM     34  C   UNL A   1      47.146 -18.520 -37.421  0.00  0.00    +0.044 A 
ATOM     35  C   UNL A   1      48.137 -19.039 -36.573  0.00  0.00    -0.040 A 
ATOM     36  C   UNL A   1      48.067 -18.874 -35.185  0.00  0.00    -0.060 A 
ATOM     37  C   UNL A   1      47.002 -18.181 -34.615  0.00  0.00    -0.061 A 
ATOM     38  C   UNL A   1      46.016 -17.636 -35.433  0.00  0.00    -0.048 A 
ATOM     39  C   UNL A   1      46.102 -17.780 -36.825  0.00  0.00    +0.058 A 
BRANCH  34  40
ATOM     40  N   UNL A   1      47.221 -18.706 -38.822  0.00  0.00    -0.314 N 
ATOM     41  H   UNL A   1      47.674 -17.983 -39.313  0.00  0.00    +0.000 HD
BRANCH  40  47
ATOM     42  C   UNL A   1      44.722 -20.292 -42.856  0.00  0.00    -0.039 C 
ATOM     43  C   UNL A   1      45.505 -20.541 -41.595  0.00  0.00    -0.046 A 
ATOM     44  C   UNL A   1      45.725 -21.867 -41.196  0.00  0.00    -0.058 A 
ATOM     45  C   UNL A   1      46.434 -22.149 -40.033  0.00  0.00    -0.060 A 
ATOM     46  C   UNL A   1      46.932 -21.108 -39.254  0.00  0.00    -0.040 A 
ATOM     47  C   UNL A   1      46.745 -19.771 -39.627  0.00  0.00    +0.035 A 
ATOM     48  C   UNL A   1      46.042 -19.481 -40.824  0.00  0.00    -0.026 A 
ATOM     49  C   UNL A   1      45.826 -18.047 -41.244  0.00  0.00    -0.038 C 
ENDBRANCH  40  47
ENDBRANCH  34  40
ENDBRANCH  30  39
ENDBRANCH  29  32
ENDBRANCH  28  29
ENDBRANCH  27  28
ENDBRANCH  26  27
ENDBRANCH   1  26
TORSDOF 14
ENDMDL
MODEL 17
REMARK VINA RESULT:    -6.436      2.214      4.154
REMARK INTER + INTRA:         -16.480
REMARK INTER:                 -10.418
REMARK INTRA:                  -6.062
REMARK UNBOUND:                -4.777
REMARK  Name = cpd47.pdb
REMARK  16 active torsions:
REMARK  status: ('A' for Active; 'I' for Inactive)
REMARK    1  A    between atoms: C_1  and  C_2
REMARK    2  A    between atoms: C_6  and  N_7
REMARK    3  A    between atoms: N_7  and  C_8
REMARK    4  A    between atoms: C_13  and  C_14
REMARK    5  A    between atoms: N_16  and  C_17
REMARK    6  A    between atoms: C_17  and  C_18
REMARK    7  A    between atoms: C_18  and  C_19
REMARK    8  A    between atoms: C_19  and  C_20
REMARK    9  A    between atoms: C_20  and  C_21
REMARK   10  A    between atoms: C_21  and  C_22
REMARK   11  A    between atoms: N_24  and  C_25
REMARK   12  A    between atoms: C_25  and  C_26
REMARK   13  A    between atoms: C_26  and  C_27
REMARK   14  A    between atoms: C_27  and  N_28
REMARK   15  A    between atoms: N_28  and  C_29
REMARK   16  A    between atoms: C_44  and  C_45
REMARK                            x       y       z     vdW  Elec       q    Type
REMARK                         _______ _______ _______ _____ _____    ______ ____
ROOT
ATOM      1  C   UNL A   1      42.303 -17.029 -34.165  0.00  0.00    +0.024 C 
ENDROOT
BRANCH   1   2
ATOM      2  C   UNL A   1      43.766 -16.638 -34.062  0.00  0.00    +0.213 C 
ATOM      3  O   UNL A   1      44.156 -15.519 -33.756  0.00  0.00    -0.276 OA
ATOM      4  N   UNL A   1      44.613 -17.688 -34.351  0.00  0.00    -0.315 N 
ATOM      5  H   UNL A   1      44.226 -18.561 -34.591  0.00  0.00    +0.000 HD
BRANCH   4   6
ATOM      6  C   UNL A   1      46.054 -17.548 -34.312  0.00  0.00    +0.013 C 
BRANCH   6   7
ATOM      7  C   UNL A   1      46.615 -17.054 -35.643  0.00  0.00    -0.022 C 
BRANCH   7   8
ATOM      8  C   UNL A   1      46.028 -17.851 -36.806  0.00  0.00    +0.011 C 
BRANCH   8   9
ATOM      9  N   UNL A   1      46.640 -17.405 -38.065  0.00  0.00    -0.343 N 
ATOM     10  H   UNL A   1      47.553 -17.044 -38.139  0.00  0.00    +0.000 HD
BRANCH   9  11
ATOM     11  C   UNL A   1      45.747 -17.558 -39.169  0.00  0.00    +0.041 A 
ATOM     12  C   UNL A   1      44.782 -16.559 -39.403  0.00  0.00    -0.005 A 
ATOM     13  C   UNL A   1      43.894 -16.753 -40.462  0.00  0.00    +0.047 A 
ATOM     14  N   UNL A   1      43.892 -17.866 -41.232  0.00  0.00    -0.251 NA
ATOM     15  C   UNL A   1      44.798 -18.822 -41.000  0.00  0.00    +0.074 A 
ATOM     16  C   UNL A   1      44.768 -19.944 -41.815  0.00  0.00    -0.017 A 
ATOM     17  C   UNL A   1      45.671 -20.990 -41.642  0.00  0.00    +0.043 A 
ATOM     18 CL   UNL A   1      45.601 -22.366 -42.673  0.00  0.00    -0.083 Cl
ATOM     19  C   UNL A   1      46.627 -20.929 -40.640  0.00  0.00    -0.043 A 
ATOM     20  C   UNL A   1      46.671 -19.810 -39.809  0.00  0.00    -0.049 A 
ATOM     21  C   UNL A   1      45.760 -18.734 -39.973  0.00  0.00    +0.022 A 
ATOM     22  C   UNL A   1      42.821 -15.747 -40.791  0.00  0.00    -0.010 C 
ATOM     23  C   UNL A   1      43.119 -14.352 -40.255  0.00  0.00    -0.047 C 
ATOM     24  C   UNL A   1      43.514 -14.436 -38.789  0.00  0.00    -0.049 C 
ATOM     25  C   UNL A   1      44.788 -15.264 -38.624  0.00  0.00    -0.024 C 
ENDBRANCH   9  11
ENDBRANCH   8   9
ENDBRANCH   7   8
ENDBRANCH   6   7
ENDBRANCH   4   6
ENDBRANCH   1   2
BRANCH   1  26
ATOM     26  C   UNL A   1      41.633 -16.472 -35.419  0.00  0.00    -0.045 C 
BRANCH  26  27
ATOM     27  C   UNL A   1      42.195 -17.130 -36.680  0.00  0.00    -0.051 C 
BRANCH  27  28
ATOM     28  C   UNL A   1      41.096 -17.396 -37.714  0.00  0.00    -0.037 C 
BRANCH  28  29
ATOM     29  C   UNL A   1      39.707 -17.002 -37.206  0.00  0.00    +0.012 C 
BRANCH  29  32
ATOM     30  C   UNL A   1      38.056 -18.762 -36.449  0.00  0.00    +0.246 C 
ATOM     31  O   UNL A   1      36.965 -19.269 -36.688  0.00  0.00    -0.270 OA
ATOM     32  N   UNL A   1      38.719 -18.050 -37.422  0.00  0.00    -0.311 N 
ATOM     33  H   UNL A   1      38.503 -18.270 -38.357  0.00  0.00    +0.000 HD
BRANCH  30  39
ATOM     34  C   UNL A   1      39.581 -19.952 -34.829  0.00  0.00    +0.044 A 
ATOM     35  C   UNL A   1      40.120 -20.002 -33.533  0.00  0.00    -0.040 A 
ATOM     36  C   UNL A   1      39.731 -19.088 -32.547  0.00  0.00    -0.060 A 
ATOM     37  C   UNL A   1      38.793 -18.100 -32.838  0.00  0.00    -0.061 A 
ATOM     38  C   UNL A   1      38.257 -18.013 -34.120  0.00  0.00    -0.048 A 
ATOM     39  C   UNL A   1      38.669 -18.913 -35.114  0.00  0.00    +0.058 A 
BRANCH  34  40
ATOM     40  N   UNL A   1      39.972 -20.890 -35.812  0.00  0.00    -0.314 N 
ATOM     41  H   UNL A   1      39.380 -21.672 -35.899  0.00  0.00    +0.000 HD
BRANCH  40  47
ATOM     42  C   UNL A   1      41.857 -21.527 -40.403  0.00  0.00    -0.039 C 
ATOM     43  C   UNL A   1      42.003 -21.211 -38.939  0.00  0.00    -0.046 A 
ATOM     44  C   UNL A   1      43.285 -20.946 -38.436  0.00  0.00    -0.058 A 
ATOM     45  C   UNL A   1      43.473 -20.659 -37.088  0.00  0.00    -0.060 A 
ATOM     46  C   UNL A   1      42.381 -20.635 -36.225  0.00  0.00    -0.040 A 
ATOM     47  C   UNL A   1      41.083 -20.881 -36.692  0.00  0.00    +0.035 A 
ATOM     48  C   UNL A   1      40.886 -21.152 -38.069  0.00  0.00    -0.026 A 
ATOM     49  C   UNL A   1      39.496 -21.423 -38.594  0.00  0.00    -0.038 C 
ENDBRANCH  40  47
ENDBRANCH  34  40
ENDBRANCH  30  39
ENDBRANCH  29  32
ENDBRANCH  28  29
ENDBRANCH  27  28
ENDBRANCH  26  27
ENDBRANCH   1  26
TORSDOF 14
ENDMDL
MODEL 18
REMARK VINA RESULT:    -6.376      1.715      4.131
REMARK INTER + INTRA:         -16.372
REMARK INTER:                 -11.898
REMARK INTRA:                  -4.474
REMARK UNBOUND:                -4.777
REMARK  Name = cpd47.pdb
REMARK  16 active torsions:
REMARK  status: ('A' for Active; 'I' for Inactive)
REMARK    1  A    between atoms: C_1  and  C_2
REMARK    2  A    between atoms: C_6  and  N_7
REMARK    3  A    between atoms: N_7  and  C_8
REMARK    4  A    between atoms: C_13  and  C_14
REMARK    5  A    between atoms: N_16  and  C_17
REMARK    6  A    between atoms: C_17  and  C_18
REMARK    7  A    between atoms: C_18  and  C_19
REMARK    8  A    between atoms: C_19  and  C_20
REMARK    9  A    between atoms: C_20  and  C_21
REMARK   10  A    between atoms: C_21  and  C_22
REMARK   11  A    between atoms: N_24  and  C_25
REMARK   12  A    between atoms: C_25  and  C_26
REMARK   13  A    between atoms: C_26  and  C_27
REMARK   14  A    between atoms: C_27  and  N_28
REMARK   15  A    between atoms: N_28  and  C_29
REMARK   16  A    between atoms: C_44  and  C_45
REMARK                            x       y       z     vdW  Elec       q    Type
REMARK                         _______ _______ _______ _____ _____    ______ ____
ROOT
ATOM      1  C   UNL A   1      43.247 -17.991 -34.402  0.00  0.00    +0.024 C 
ENDROOT
BRANCH   1   2
ATOM      2  C   UNL A   1      44.743 -18.225 -34.300  0.00  0.00    +0.213 C 
ATOM      3  O   UNL A   1      45.527 -17.434 -33.792  0.00  0.00    -0.276 OA
ATOM      4  N   UNL A   1      45.125 -19.434 -34.844  0.00  0.00    -0.315 N 
ATOM      5  H   UNL A   1      44.437 -20.019 -35.237  0.00  0.00    +0.000 HD
BRANCH   4   6
ATOM      6  C   UNL A   1      46.506 -19.872 -34.855  0.00  0.00    +0.013 C 
BRANCH   6   7
ATOM      7  C   UNL A   1      47.244 -19.399 -36.105  0.00  0.00    -0.022 C 
BRANCH   7   8
ATOM      8  C   UNL A   1      46.365 -19.557 -37.344  0.00  0.00    +0.011 C 
BRANCH   8   9
ATOM      9  N   UNL A   1      47.131 -19.181 -38.540  0.00  0.00    -0.343 N 
ATOM     10  H   UNL A   1      48.077 -18.907 -38.528  0.00  0.00    +0.000 HD
BRANCH   9  11
ATOM     11  C   UNL A   1      46.335 -19.264 -39.723  0.00  0.00    +0.041 A 
ATOM     12  C   UNL A   1      46.472 -20.392 -40.555  0.00  0.00    -0.005 A 
ATOM     13  C   UNL A   1      45.714 -20.429 -41.726  0.00  0.00    +0.047 A 
ATOM     14  N   UNL A   1      44.899 -19.420 -42.112  0.00  0.00    -0.251 NA
ATOM     15  C   UNL A   1      44.780 -18.341 -41.330  0.00  0.00    +0.074 A 
ATOM     16  C   UNL A   1      43.930 -17.331 -41.757  0.00  0.00    -0.017 A 
ATOM     17  C   UNL A   1      43.750 -16.172 -41.008  0.00  0.00    +0.043 A 
ATOM     18 CL   UNL A   1      42.687 -14.941 -41.572  0.00  0.00    -0.083 Cl
ATOM     19  C   UNL A   1      44.424 -16.001 -39.809  0.00  0.00    -0.043 A 
ATOM     20  C   UNL A   1      45.284 -17.005 -39.365  0.00  0.00    -0.049 A 
ATOM     21  C   UNL A   1      45.479 -18.195 -40.114  0.00  0.00    +0.022 A 
ATOM     22  C   UNL A   1      45.794 -21.588 -42.686  0.00  0.00    -0.010 C 
ATOM     23  C   UNL A   1      46.318 -22.867 -42.043  0.00  0.00    -0.047 C 
ATOM     24  C   UNL A   1      47.590 -22.569 -41.265  0.00  0.00    -0.049 C 
ATOM     25  C   UNL A   1      47.308 -21.579 -40.134  0.00  0.00    -0.024 C 
ENDBRANCH   9  11
ENDBRANCH   8   9
ENDBRANCH   7   8
ENDBRANCH   6   7
ENDBRANCH   4   6
ENDBRANCH   1   2
BRANCH   1  26
ATOM     26  C   UNL A   1      42.771 -17.854 -35.846  0.00  0.00    -0.045 C 
BRANCH  26  27
ATOM     27  C   UNL A   1      42.816 -16.395 -36.303  0.00  0.00    -0.051 C 
BRANCH  27  28
ATOM     28  C   UNL A   1      41.771 -16.111 -37.386  0.00  0.00    -0.037 C 
BRANCH  28  29
ATOM     29  C   UNL A   1      40.449 -16.836 -37.128  0.00  0.00    +0.012 C 
BRANCH  29  32
ATOM     30  C   UNL A   1      39.667 -18.493 -38.872  0.00  0.00    +0.246 C 
ATOM     31  O   UNL A   1      38.742 -18.780 -39.625  0.00  0.00    -0.270 OA
ATOM     32  N   UNL A   1      39.775 -17.220 -38.361  0.00  0.00    -0.311 N 
ATOM     33  H   UNL A   1      39.356 -16.496 -38.881  0.00  0.00    +0.000 HD
BRANCH  30  39
ATOM     34  C   UNL A   1      40.367 -20.585 -37.648  0.00  0.00    +0.044 A 
ATOM     35  C   UNL A   1      41.389 -21.508 -37.376  0.00  0.00    -0.040 A 
ATOM     36  C   UNL A   1      42.678 -21.341 -37.896  0.00  0.00    -0.060 A 
ATOM     37  C   UNL A   1      42.971 -20.246 -38.705  0.00  0.00    -0.061 A 
ATOM     38  C   UNL A   1      41.971 -19.326 -39.010  0.00  0.00    -0.048 A 
ATOM     39  C   UNL A   1      40.674 -19.510 -38.509  0.00  0.00    +0.058 A 
BRANCH  34  40
ATOM     40  N   UNL A   1      39.072 -20.758 -37.105  0.00  0.00    -0.314 N 
ATOM     41  H   UNL A   1      38.336 -20.679 -37.753  0.00  0.00    +0.000 HD
BRANCH  40  47
ATOM     42  C   UNL A   1      36.990 -19.215 -32.824  0.00  0.00    -0.039 C 
ATOM     43  C   UNL A   1      37.666 -20.258 -33.673  0.00  0.00    -0.046 A 
ATOM     44  C   UNL A   1      37.939 -21.510 -33.103  0.00  0.00    -0.058 A 
ATOM     45  C   UNL A   1      38.570 -22.504 -33.843  0.00  0.00    -0.060 A 
ATOM     46  C   UNL A   1      38.939 -22.258 -35.163  0.00  0.00    -0.040 A 
ATOM     47  C   UNL A   1      38.671 -21.025 -35.772  0.00  0.00    +0.035 A 
ATOM     48  C   UNL A   1      38.007 -20.019 -35.027  0.00  0.00    -0.026 A 
ATOM     49  C   UNL A   1      37.710 -18.681 -35.662  0.00  0.00    -0.038 C 
ENDBRANCH  40  47
ENDBRANCH  34  40
ENDBRANCH  30  39
ENDBRANCH  29  32
ENDBRANCH  28  29
ENDBRANCH  27  28
ENDBRANCH  26  27
ENDBRANCH   1  26
TORSDOF 14
ENDMDL
MODEL 19
REMARK VINA RESULT:    -6.253      2.556      5.312
REMARK INTER + INTRA:         -16.148
REMARK INTER:                 -11.430
REMARK INTRA:                  -4.718
REMARK UNBOUND:                -4.777
REMARK  Name = cpd47.pdb
REMARK  16 active torsions:
REMARK  status: ('A' for Active; 'I' for Inactive)
REMARK    1  A    between atoms: C_1  and  C_2
REMARK    2  A    between atoms: C_6  and  N_7
REMARK    3  A    between atoms: N_7  and  C_8
REMARK    4  A    between atoms: C_13  and  C_14
REMARK    5  A    between atoms: N_16  and  C_17
REMARK    6  A    between atoms: C_17  and  C_18
REMARK    7  A    between atoms: C_18  and  C_19
REMARK    8  A    between atoms: C_19  and  C_20
REMARK    9  A    between atoms: C_20  and  C_21
REMARK   10  A    between atoms: C_21  and  C_22
REMARK   11  A    between atoms: N_24  and  C_25
REMARK   12  A    between atoms: C_25  and  C_26
REMARK   13  A    between atoms: C_26  and  C_27
REMARK   14  A    between atoms: C_27  and  N_28
REMARK   15  A    between atoms: N_28  and  C_29
REMARK   16  A    between atoms: C_44  and  C_45
REMARK                            x       y       z     vdW  Elec       q    Type
REMARK                         _______ _______ _______ _____ _____    ______ ____
ROOT
ATOM      1  C   UNL A   1      41.125 -14.790 -37.773  0.00  0.00    +0.024 C 
ENDROOT
BRANCH   1   2
ATOM      2  C   UNL A   1      42.139 -15.133 -38.849  0.00  0.00    +0.213 C 
ATOM      3  O   UNL A   1      41.855 -15.313 -40.025  0.00  0.00    -0.276 OA
ATOM      4  N   UNL A   1      43.424 -15.218 -38.353  0.00  0.00    -0.315 N 
ATOM      5  H   UNL A   1      43.576 -15.061 -37.393  0.00  0.00    +0.000 HD
BRANCH   4   6
ATOM      6  C   UNL A   1      44.557 -15.530 -39.200  0.00  0.00    +0.013 C 
BRANCH   6   7
ATOM      7  C   UNL A   1      45.677 -16.217 -38.423  0.00  0.00    -0.022 C 
BRANCH   7   8
ATOM      8  C   UNL A   1      46.311 -17.328 -39.257  0.00  0.00    +0.011 C 
BRANCH   8   9
ATOM      9  N   UNL A   1      45.352 -17.788 -40.272  0.00  0.00    -0.343 N 
ATOM     10  H   UNL A   1      44.958 -17.208 -40.963  0.00  0.00    +0.000 HD
BRANCH   9  11
ATOM     11  C   UNL A   1      45.063 -19.179 -40.131  0.00  0.00    +0.041 A 
ATOM     12  C   UNL A   1      45.953 -20.116 -40.694  0.00  0.00    -0.005 A 
ATOM     13  C   UNL A   1      45.626 -21.467 -40.579  0.00  0.00    +0.047 A 
ATOM     14  N   UNL A   1      44.484 -21.907 -39.999  0.00  0.00    -0.251 NA
ATOM     15  C   UNL A   1      43.632 -21.017 -39.479  0.00  0.00    +0.074 A 
ATOM     16  C   UNL A   1      42.477 -21.506 -38.887  0.00  0.00    -0.017 A 
ATOM     17  C   UNL A   1      41.533 -20.652 -38.324  0.00  0.00    +0.043 A 
ATOM     18 CL   UNL A   1      40.112 -21.298 -37.600  0.00  0.00    -0.083 Cl
ATOM     19  C   UNL A   1      41.731 -19.280 -38.346  0.00  0.00    -0.043 A 
ATOM     20  C   UNL A   1      42.885 -18.769 -38.938  0.00  0.00    -0.049 A 
ATOM     21  C   UNL A   1      43.860 -19.625 -39.514  0.00  0.00    +0.022 A 
ATOM     22  C   UNL A   1      46.507 -22.547 -41.153  0.00  0.00    -0.010 C 
ATOM     23  C   UNL A   1      47.947 -22.098 -41.368  0.00  0.00    -0.047 C 
ATOM     24  C   UNL A   1      47.968 -20.770 -42.109  0.00  0.00    -0.049 C 
ATOM     25  C   UNL A   1      47.276 -19.685 -41.284  0.00  0.00    -0.024 C 
ENDBRANCH   9  11
ENDBRANCH   8   9
ENDBRANCH   7   8
ENDBRANCH   6   7
ENDBRANCH   4   6
ENDBRANCH   1   2
BRANCH   1  26
ATOM     26  C   UNL A   1      40.464 -16.029 -37.173  0.00  0.00    -0.045 C 
BRANCH  26  27
ATOM     27  C   UNL A   1      41.146 -16.436 -35.865  0.00  0.00    -0.051 C 
BRANCH  27  28
ATOM     28  C   UNL A   1      41.697 -15.219 -35.115  0.00  0.00    -0.037 C 
BRANCH  28  29
ATOM     29  C   UNL A   1      43.149 -15.411 -34.673  0.00  0.00    +0.012 C 
BRANCH  29  32
ATOM     30  C   UNL A   1      43.874 -17.115 -32.951  0.00  0.00    +0.246 C 
ATOM     31  O   UNL A   1      44.300 -17.254 -31.809  0.00  0.00    -0.270 OA
ATOM     32  N   UNL A   1      43.253 -15.945 -33.322  0.00  0.00    -0.311 N 
ATOM     33  H   UNL A   1      42.838 -15.416 -32.603  0.00  0.00    +0.000 HD
BRANCH  30  39
ATOM     34  C   UNL A   1      43.330 -19.427 -33.803  0.00  0.00    +0.044 A 
ATOM     35  C   UNL A   1      43.527 -20.394 -34.801  0.00  0.00    -0.040 A 
ATOM     36  C   UNL A   1      44.414 -20.176 -35.862  0.00  0.00    -0.060 A 
ATOM     37  C   UNL A   1      45.124 -18.981 -35.947  0.00  0.00    -0.061 A 
ATOM     38  C   UNL A   1      44.932 -17.994 -34.984  0.00  0.00    -0.048 A 
ATOM     39  C   UNL A   1      44.022 -18.205 -33.937  0.00  0.00    +0.058 A 
BRANCH  34  40
ATOM     40  N   UNL A   1      42.442 -19.666 -32.729  0.00  0.00    -0.314 N 
ATOM     41  H   UNL A   1      42.865 -20.003 -31.906  0.00  0.00    +0.000 HD
BRANCH  40  47
ATOM     42  C   UNL A   1      37.836 -21.618 -32.860  0.00  0.00    -0.039 C 
ATOM     43  C   UNL A   1      38.784 -20.456 -32.734  0.00  0.00    -0.046 A 
ATOM     44  C   UNL A   1      38.247 -19.169 -32.581  0.00  0.00    -0.058 A 
ATOM     45  C   UNL A   1      39.080 -18.061 -32.471  0.00  0.00    -0.060 A 
ATOM     46  C   UNL A   1      40.462 -18.225 -32.513  0.00  0.00    -0.040 A 
ATOM     47  C   UNL A   1      41.037 -19.496 -32.651  0.00  0.00    +0.035 A 
ATOM     48  C   UNL A   1      40.190 -20.629 -32.741  0.00  0.00    -0.026 A 
ATOM     49  C   UNL A   1      40.787 -22.007 -32.894  0.00  0.00    -0.038 C 
ENDBRANCH  40  47
ENDBRANCH  34  40
ENDBRANCH  30  39
ENDBRANCH  29  32
ENDBRANCH  28  29
ENDBRANCH  27  28
ENDBRANCH  26  27
ENDBRANCH   1  26
TORSDOF 14
ENDMDL
MODEL 20
REMARK VINA RESULT:    -6.241      2.795      5.133
REMARK INTER + INTRA:         -16.127
REMARK INTER:                 -10.976
REMARK INTRA:                  -5.151
REMARK UNBOUND:                -4.777
REMARK  Name = cpd47.pdb
REMARK  16 active torsions:
REMARK  status: ('A' for Active; 'I' for Inactive)
REMARK    1  A    between atoms: C_1  and  C_2
REMARK    2  A    between atoms: C_6  and  N_7
REMARK    3  A    between atoms: N_7  and  C_8
REMARK    4  A    between atoms: C_13  and  C_14
REMARK    5  A    between atoms: N_16  and  C_17
REMARK    6  A    between atoms: C_17  and  C_18
REMARK    7  A    between atoms: C_18  and  C_19
REMARK    8  A    between atoms: C_19  and  C_20
REMARK    9  A    between atoms: C_20  and  C_21
REMARK   10  A    between atoms: C_21  and  C_22
REMARK   11  A    between atoms: N_24  and  C_25
REMARK   12  A    between atoms: C_25  and  C_26
REMARK   13  A    between atoms: C_26  and  C_27
REMARK   14  A    between atoms: C_27  and  N_28
REMARK   15  A    between atoms: N_28  and  C_29
REMARK   16  A    between atoms: C_44  and  C_45
REMARK                            x       y       z     vdW  Elec       q    Type
REMARK                         _______ _______ _______ _____ _____    ______ ____
ROOT
ATOM      1  C   UNL A   1      42.681 -14.175 -36.091  0.00  0.00    +0.024 C 
ENDROOT
BRANCH   1   2
ATOM      2  C   UNL A   1      42.343 -14.597 -37.508  0.00  0.00    +0.213 C 
ATOM      3  O   UNL A   1      41.229 -14.952 -37.870  0.00  0.00    -0.276 OA
ATOM      4  N   UNL A   1      43.434 -14.534 -38.351  0.00  0.00    -0.315 N 
ATOM      5  H   UNL A   1      44.301 -14.239 -37.987  0.00  0.00    +0.000 HD
BRANCH   4   6
ATOM      6  C   UNL A   1      43.346 -14.887 -39.753  0.00  0.00    +0.013 C 
BRANCH   6   7
ATOM      7  C   UNL A   1      44.685 -14.722 -40.467  0.00  0.00    -0.022 C 
BRANCH   7   8
ATOM      8  C   UNL A   1      45.282 -16.083 -40.819  0.00  0.00    +0.011 C 
BRANCH   8   9
ATOM      9  N   UNL A   1      44.458 -17.148 -40.229  0.00  0.00    -0.343 N 
ATOM     10  H   UNL A   1      43.478 -17.104 -40.141  0.00  0.00    +0.000 HD
BRANCH   9  11
ATOM     11  C   UNL A   1      45.253 -18.253 -39.801  0.00  0.00    +0.041 A 
ATOM     12  C   UNL A   1      45.204 -19.451 -40.541  0.00  0.00    -0.005 A 
ATOM     13  C   UNL A   1      45.958 -20.530 -40.078  0.00  0.00    +0.047 A 
ATOM     14  N   UNL A   1      46.688 -20.488 -38.939  0.00  0.00    -0.251 NA
ATOM     15  C   UNL A   1      46.723 -19.356 -38.227  0.00  0.00    +0.074 A 
ATOM     16  C   UNL A   1      47.487 -19.350 -37.069  0.00  0.00    -0.017 A 
ATOM     17  C   UNL A   1      47.577 -18.217 -36.266  0.00  0.00    +0.043 A 
ATOM     18 CL   UNL A   1      48.535 -18.250 -34.837  0.00  0.00    -0.083 Cl
ATOM     19  C   UNL A   1      46.896 -17.060 -36.610  0.00  0.00    -0.043 A 
ATOM     20  C   UNL A   1      46.121 -17.047 -37.769  0.00  0.00    -0.049 A 
ATOM     21  C   UNL A   1      46.020 -18.192 -38.602  0.00  0.00    +0.022 A 
ATOM     22  C   UNL A   1      45.967 -21.856 -40.794  0.00  0.00    -0.010 C 
ATOM     23  C   UNL A   1      45.550 -21.754 -42.256  0.00  0.00    -0.047 C 
ATOM     24  C   UNL A   1      44.261 -20.955 -42.369  0.00  0.00    -0.049 C 
ATOM     25  C   UNL A   1      44.468 -19.528 -41.859  0.00  0.00    -0.024 C 
ENDBRANCH   9  11
ENDBRANCH   8   9
ENDBRANCH   7   8
ENDBRANCH   6   7
ENDBRANCH   4   6
ENDBRANCH   1   2
BRANCH   1  26
ATOM     26  C   UNL A   1      42.477 -15.299 -35.078  0.00  0.00    -0.045 C 
BRANCH  26  27
ATOM     27  C   UNL A   1      43.493 -16.422 -35.294  0.00  0.00    -0.051 C 
BRANCH  27  28
ATOM     28  C   UNL A   1      42.828 -17.801 -35.241  0.00  0.00    -0.037 C 
BRANCH  28  29
ATOM     29  C   UNL A   1      42.774 -18.478 -36.613  0.00  0.00    +0.012 C 
BRANCH  29  32
ATOM     30  C   UNL A   1      40.699 -18.647 -38.049  0.00  0.00    +0.246 C 
ATOM     31  O   UNL A   1      39.647 -18.090 -38.344  0.00  0.00    -0.270 OA
ATOM     32  N   UNL A   1      41.718 -17.937 -37.458  0.00  0.00    -0.311 N 
ATOM     33  H   UNL A   1      41.736 -16.966 -37.623  0.00  0.00    +0.000 HD
BRANCH  30  39
ATOM     34  C   UNL A   1      40.364 -21.080 -37.471  0.00  0.00    +0.044 A 
ATOM     35  C   UNL A   1      40.579 -22.420 -37.831  0.00  0.00    -0.040 A 
ATOM     36  C   UNL A   1      41.321 -22.758 -38.969  0.00  0.00    -0.060 A 
ATOM     37  C   UNL A   1      41.864 -21.759 -39.774  0.00  0.00    -0.061 A 
ATOM     38  C   UNL A   1      41.648 -20.422 -39.453  0.00  0.00    -0.048 A 
ATOM     39  C   UNL A   1      40.882 -20.086 -38.328  0.00  0.00    +0.058 A 
BRANCH  34  40
ATOM     40  N   UNL A   1      39.624 -20.752 -36.311  0.00  0.00    -0.314 N 
ATOM     41  H   UNL A   1      38.648 -20.722 -36.435  0.00  0.00    +0.000 HD
BRANCH  40  47
ATOM     42  C   UNL A   1      39.535 -17.800 -32.271  0.00  0.00    -0.039 C 
ATOM     43  C   UNL A   1      40.034 -19.002 -33.029  0.00  0.00    -0.046 A 
ATOM     44  C   UNL A   1      40.997 -19.821 -32.424  0.00  0.00    -0.058 A 
ATOM     45  C   UNL A   1      41.498 -20.937 -33.086  0.00  0.00    -0.060 A 
ATOM     46  C   UNL A   1      41.041 -21.247 -34.364  0.00  0.00    -0.040 A 
ATOM     47  C   UNL A   1      40.069 -20.461 -34.997  0.00  0.00    +0.035 A 
ATOM     48  C   UNL A   1      39.541 -19.336 -34.314  0.00  0.00    -0.026 A 
ATOM     49  C   UNL A   1      38.495 -18.473 -34.978  0.00  0.00    -0.038 C 
ENDBRANCH  40  47
ENDBRANCH  34  40
ENDBRANCH  30  39
ENDBRANCH  29  32
ENDBRANCH  28  29
ENDBRANCH  27  28
ENDBRANCH  26  27
ENDBRANCH   1  26
TORSDOF 14
ENDMDL
