REMARK  Name = cpd47.pdb
REMARK  16 active torsions:
REMARK  status: ('A' for Active; 'I' for Inactive)
REMARK    1  A    between atoms: C_1  and  C_2
REMARK    2  A    between atoms: C_6  and  N_7
REMARK    3  A    between atoms: N_7  and  C_8
REMARK    4  A    between atoms: C_13  and  C_14
REMARK    5  A    between atoms: N_16  and  C_17
REMARK    6  A    between atoms: C_17  and  C_18
REMARK    7  A    between atoms: C_18  and  C_19
REMARK    8  A    between atoms: C_19  and  C_20
REMARK    9  A    between atoms: C_20  and  C_21
REMARK   10  A    between atoms: C_21  and  C_22
REMARK   11  A    between atoms: N_24  and  C_25
REMARK   12  A    between atoms: C_25  and  C_26
REMARK   13  A    between atoms: C_26  and  C_27
REMARK   14  A    between atoms: C_27  and  N_28
REMARK   15  A    between atoms: N_28  and  C_29
REMARK   16  A    between atoms: C_44  and  C_45
REMARK                            x       y       z     vdW  Elec       q    Type
REMARK                         _______ _______ _______ _____ _____    ______ ____
ROOT
ATOM      1  C   UNL A   1       6.746   3.649  -0.954  0.00  0.00    +0.024 C 
ENDROOT
BRANCH   1   2
ATOM      2  C   UNL A   1       7.732   4.800  -0.883  0.00  0.00    +0.213 C 
ATOM      3  O   UNL A   1       7.526   5.842  -0.275  0.00  0.00    -0.276 OA
ATOM      4  N   UNL A   1       8.894   4.542  -1.581  0.00  0.00    -0.315 N 
ATOM      5  H   UNL A   1       8.988   3.680  -2.048  0.00  0.00    +0.000 HD
BRANCH   4   6
ATOM      6  C   UNL A   1       9.980   5.498  -1.649  0.00  0.00    +0.013 C 
BRANCH   6   7
ATOM      7  C   UNL A   1      10.872   5.436  -0.412  0.00  0.00    -0.022 C 
BRANCH   7   8
ATOM      8  C   UNL A   1      12.102   6.324  -0.587  0.00  0.00    +0.011 C 
BRANCH   8   9
ATOM      9  N   UNL A   1      12.919   6.277   0.634  0.00  0.00    -0.343 N 
ATOM     10  H   UNL A   1      12.651   5.815   1.461  0.00  0.00    +0.000 HD
BRANCH   9  11
ATOM     11  C   UNL A   1      14.149   6.984   0.472  0.00  0.00    +0.041 A 
ATOM     12  C   UNL A   1      14.193   8.352   0.805  0.00  0.00    -0.005 A 
ATOM     13  C   UNL A   1      15.395   9.030   0.598  0.00  0.00    +0.047 A 
ATOM     14  N   UNL A   1      16.490   8.447   0.056  0.00  0.00    -0.251 NA
ATOM     15  C   UNL A   1      16.444   7.152  -0.275  0.00  0.00    +0.074 A 
ATOM     16  C   UNL A   1      17.588   6.589  -0.821  0.00  0.00    -0.017 A 
ATOM     17  C   UNL A   1      17.628   5.250  -1.198  0.00  0.00    +0.043 A 
ATOM     18 CL   UNL A   1      19.066   4.589  -1.873  0.00  0.00    -0.083 Cl
ATOM     19  C   UNL A   1      16.512   4.444  -1.034  0.00  0.00    -0.043 A 
ATOM     20  C   UNL A   1      15.352   4.992  -0.488  0.00  0.00    -0.049 A 
ATOM     21  C   UNL A   1      15.294   6.355  -0.096  0.00  0.00    +0.022 A 
ATOM     22  C   UNL A   1      15.543  10.496   0.915  0.00  0.00    -0.010 C 
ATOM     23  C   UNL A   1      14.513  11.002   1.918  0.00  0.00    -0.047 C 
ATOM     24  C   UNL A   1      13.121  10.558   1.496  0.00  0.00    -0.049 C 
ATOM     25  C   UNL A   1      13.026   9.032   1.483  0.00  0.00    -0.024 C 
ENDBRANCH   9  11
ENDBRANCH   8   9
ENDBRANCH   7   8
ENDBRANCH   6   7
ENDBRANCH   4   6
ENDBRANCH   1   2
BRANCH   1  26
ATOM     26  C   UNL A   1       5.446   3.942  -0.209  0.00  0.00    -0.045 C 
BRANCH  26  27
ATOM     27  C   UNL A   1       4.464   2.776  -0.339  0.00  0.00    -0.051 C 
BRANCH  27  28
ATOM     28  C   UNL A   1       3.149   3.063   0.392  0.00  0.00    -0.037 C 
BRANCH  28  29
ATOM     29  C   UNL A   1       2.160   1.899   0.297  0.00  0.00    +0.012 C 
BRANCH  29  32
ATOM     30  C   UNL A   1       0.819   2.400  -1.788  0.00  0.00    +0.246 C 
ATOM     31  O   UNL A   1       0.852   2.401  -3.014  0.00  0.00    -0.270 OA
ATOM     32  N   UNL A   1       1.723   1.651  -1.070  0.00  0.00    -0.311 N 
ATOM     33  H   UNL A   1       2.113   0.870  -1.526  0.00  0.00    +0.000 HD
BRANCH  30  39
ATOM     34  C   UNL A   1      -1.153   2.602  -0.227  0.00  0.00    +0.044 A 
ATOM     35  C   UNL A   1      -2.064   3.451   0.421  0.00  0.00    -0.040 A 
ATOM     36  C   UNL A   1      -2.055   4.833   0.200  0.00  0.00    -0.060 A 
ATOM     37  C   UNL A   1      -1.130   5.397  -0.675  0.00  0.00    -0.061 A 
ATOM     38  C   UNL A   1      -0.200   4.582  -1.315  0.00  0.00    -0.048 A 
ATOM     39  C   UNL A   1      -0.194   3.201  -1.071  0.00  0.00    +0.058 A 
BRANCH  34  40
ATOM     40  N   UNL A   1      -1.182   1.205  -0.006  0.00  0.00    -0.314 N 
ATOM     41  H   UNL A   1      -0.299   0.771   0.025  0.00  0.00    +0.000 HD
BRANCH  40  47
ATOM     42  C   UNL A   1      -3.013  -3.172   1.584  0.00  0.00    -0.039 C 
ATOM     43  C   UNL A   1      -3.171  -1.819   0.943  0.00  0.00    -0.046 A 
ATOM     44  C   UNL A   1      -4.440  -1.443   0.480  0.00  0.00    -0.058 A 
ATOM     45  C   UNL A   1      -4.636  -0.208  -0.129  0.00  0.00    -0.060 A 
ATOM     46  C   UNL A   1      -3.564   0.667  -0.284  0.00  0.00    -0.040 A 
ATOM     47  C   UNL A   1      -2.284   0.333   0.178  0.00  0.00    +0.035 A 
ATOM     48  C   UNL A   1      -2.087  -0.916   0.819  0.00  0.00    -0.026 A 
ATOM     49  C   UNL A   1      -0.715  -1.298   1.322  0.00  0.00    -0.038 C 
ENDBRANCH  40  47
ENDBRANCH  34  40
ENDBRANCH  30  39
ENDBRANCH  29  32
ENDBRANCH  28  29
ENDBRANCH  27  28
ENDBRANCH  26  27
ENDBRANCH   1  26
TORSDOF 14
