REMARK  Name = cpd112.pdb
REMARK  10 active torsions:
REMARK  status: ('A' for Active; 'I' for Inactive)
REMARK    1  A    between atoms: C_1  and  C_2
REMARK    2  A    between atoms: C_6  and  C_7
REMARK    3  A    between atoms: C_9  and  N_10
REMARK    4  A    between atoms: C_11  and  C_12
REMARK    5  A    between atoms: C_12  and  C_20
REMARK    6  A    between atoms: C_13  and  C_14
REMARK    7  A    between atoms: C_20  and  C_21
REMARK    8  A    between atoms: C_21  and  C_22
REMARK    9  A    between atoms: C_22  and  C_23
REMARK   10  A    between atoms: C_23  and  C_24
REMARK                            x       y       z     vdW  Elec       q    Type
REMARK                         _______ _______ _______ _____ _____    ______ ____
ROOT
ATOM      1  C   UNL A   1      -2.118  -2.423   2.194  0.00  0.00    -0.046 C 
ATOM      2  C   UNL A   1      -1.170  -3.412   1.601  0.00  0.00    -0.085 C 
ATOM      3  C   UNL A   1      -0.184  -3.191   0.702  0.00  0.00    -0.035 C 
ATOM      4  C   UNL A   1       0.671  -4.371   0.236  0.00  0.00    +0.006 C 
ATOM      5  C   UNL A   1       0.876  -4.350  -1.271  0.00  0.00    -0.077 C 
ATOM      6  C   UNL A   1       0.536  -3.317  -2.069  0.00  0.00    -0.073 C 
ATOM      7  C   UNL A   1       0.676  -3.366  -3.561  0.00  0.00    -0.044 C 
ATOM      8  C   UNL A   1      -0.011  -2.019  -1.486  0.00  0.00    +0.001 C 
ATOM      9  C   UNL A   1       0.270  -1.878   0.028  0.00  0.00    +0.113 C 
ATOM     10  C   UNL A   1       1.751  -1.739   0.281  0.00  0.00    -0.000 C 
ATOM     11  C   UNL A   1       2.366  -0.397   0.202  0.00  0.00    -0.068 C 
ATOM     12  C   UNL A   1       4.142   0.134   1.337  0.00  0.00    +0.045 C 
ATOM     13  C   UNL A   1       4.787  -1.534   2.254  0.00  0.00    +0.240 C 
ATOM     14  O   UNL A   1       5.792  -1.527   2.962  0.00  0.00    -0.273 OA
ATOM     15  N   UNL A   1       3.867  -2.972   1.991  0.00  0.00    -0.185 NA
ATOM     16  C   UNL A   1       2.654  -3.078   1.212  0.00  0.00    +0.040 C 
ATOM     17  C   UNL A   1       1.985  -4.428   1.033  0.00  0.00    -0.002 C 
ENDROOT
BRANCH   9  18
ATOM     18  N   UNL A   1      -0.475  -0.750   0.601  0.00  0.00    -0.275 NA
ATOM     19  C   UNL A   1      -0.593   0.508   0.696  0.00  0.00    +0.027 C 
BRANCH  19  20
ATOM     20  C   UNL A   1      -0.007   1.854   0.198  0.00  0.00    -0.029 C 
ATOM     21  C   UNL A   1       1.219   2.409   0.412  0.00  0.00    -0.050 C 
BRANCH  21  22
ATOM     22  C   UNL A   1       2.450   1.707   0.887  0.00  0.00    -0.025 A 
ATOM     23  C   UNL A   1       3.538   1.398  -0.469  0.00  0.00    -0.055 A 
ATOM     24  C   UNL A   1       4.250  -0.149  -0.808  0.00  0.00    -0.061 A 
ATOM     25  C   UNL A   1       3.953  -1.432   0.370  0.00  0.00    -0.062 A 
ATOM     26  C   UNL A   1       2.828  -0.996   1.979  0.00  0.00    -0.061 A 
ATOM     27  C   UNL A   1       2.126   0.589   2.137  0.00  0.00    -0.055 A 
ENDBRANCH  21  22
BRANCH  20  28
ATOM     28  C   UNL A   1      -1.129   2.625  -0.507  0.00  0.00    -0.026 C 
BRANCH  28  29
ATOM     29  C   UNL A   1      -0.728   3.812  -1.397  0.00  0.00    -0.049 C 
BRANCH  29  30
ATOM     30  C   UNL A   1      -0.540   5.121  -0.619  0.00  0.00    -0.053 C 
BRANCH  30  31
ATOM     31  C   UNL A   1       0.396   6.074  -1.364  0.00  0.00    -0.056 C 
ATOM     32  C   UNL A   1       0.628   7.357  -0.583  0.00  0.00    -0.065 C 
ENDBRANCH  30  31
ENDBRANCH  29  30
ENDBRANCH  28  29
ENDBRANCH  20  28
ENDBRANCH  19  20
ENDBRANCH   9  18
TORSDOF 7
