@<TRIPOS>MOLECULE
*****
 32 35 0 0 0
SMALL
GASTEIGER

@<TRIPOS>ATOM
      1 C          -0.2834   -3.4507    0.0000 C.3     1  UNL1        0.0301
      2 C           0.7166   -3.4507    0.0000 C.2     1  UNL1       -0.0319
      3 C           1.2166   -2.5847    0.0000 C.2     1  UNL1       -0.0204
      4 C           2.2166   -2.5847    0.0000 C.3     1  UNL1        0.0473
      5 C           1.6923   -3.1497    0.0000 C.2     1  UNL1       -0.0303
      6 C           0.9237   -3.0921    0.0000 C.2     1  UNL1       -0.0453
      7 C           0.4237   -3.9581    0.0000 C.3     1  UNL1        0.0261
      8 C           0.4894   -2.4552    0.0000 C.3     1  UNL1        0.0523
      9 C           0.7166   -1.7186    0.0000 C.3     1  UNL1        0.1231
     10 N          -1.6867    3.8952    0.0000 N.2     1  UNL1       -0.2648
     11 C          -1.6867    2.9214    0.0000 C.2     1  UNL1        0.0894
     12 C          -0.8433    2.4345    0.0000 C.2     1  UNL1       -0.0035
     13 C          -0.8433    1.4607    0.0000 C.2     1  UNL1       -0.0027
     14 C           0.0000    0.9738    0.0000 C.ar    1  UNL1       -0.0003
     15 C           0.8433    1.4607    0.0000 C.ar    1  UNL1       -0.0000
     16 C           1.6867    0.9738    0.0000 C.ar    1  UNL1       -0.0000
     17 C           1.6867   -0.0000    0.0000 C.ar    1  UNL1       -0.0000
     18 C           0.8433   -0.4869    0.0000 C.ar    1  UNL1       -0.0000
     19 C          -0.0000   -0.0000    0.0000 C.ar    1  UNL1       -0.0000
     20 C           0.0000    2.9214    0.0000 C.3     1  UNL1        0.0279
     21 C           0.9343    2.6469    0.0000 C.3     1  UNL1        0.0047
     22 C           1.6392    3.3188    0.0000 C.3     1  UNL1        0.0003
     23 C           2.5735    3.0443    0.0000 C.3     1  UNL1        0.0000
     24 C           3.2784    3.7161    0.0000 C.3     1  UNL1        0.0000
     25 C           1.2166   -0.8526    0.0000 C.ar    1  UNL1        0.0154
     26 C           0.7166    0.0134    0.0000 C.ar    1  UNL1        0.0040
     27 C           1.2166    0.8794    0.0000 C.ar    1  UNL1        0.0623
     28 C           2.2166    0.8794    0.0000 C.ar    1  UNL1        0.2790
     29 O           2.7166    1.7455    0.0000 O.2     1  UNL1       -0.2652
     30 N           2.7166    0.0134    0.0000 N.ar    1  UNL1       -0.2125
     31 C           2.2166   -0.8526    0.0000 C.ar    1  UNL1        0.0609
     32 C           2.7166   -1.7186    0.0000 C.3     1  UNL1        0.0541
@<TRIPOS>BOND
     1     1     2    1
     2     2     3    2
     3     3     4    1
     4     4     5    1
     5     5     6    2
     6     6     7    1
     7     6     8    1
     8     8     9    1
     9     3     9    1
    10     9    10    1
    11    10    11    2
    12    11    12    1
    13    12    13    2
    14    13    14    1
    15    14    15   ar
    16    15    16   ar
    17    16    17   ar
    18    17    18   ar
    19    18    19   ar
    20    14    19   ar
    21    12    20    1
    22    20    21    1
    23    21    22    1
    24    22    23    1
    25    23    24    1
    26     9    25    1
    27    25    26   ar
    28    26    27   ar
    29    27    28   ar
    30    28    29    2
    31    28    30   ar
    32    30    31   ar
    33    25    31   ar
    34    31    32    1
    35     4    32    1
