MODEL 1
REMARK VINA RESULT:    -7.238      0.000      0.000
REMARK INTER + INTRA:         -12.614
REMARK INTER:                  -9.989
REMARK INTRA:                  -2.625
REMARK UNBOUND:                -2.625
REMARK  Name = cpd112.pdb
REMARK  10 active torsions:
REMARK  status: ('A' for Active; 'I' for Inactive)
REMARK    1  A    between atoms: C_1  and  C_2
REMARK    2  A    between atoms: C_6  and  C_7
REMARK    3  A    between atoms: C_9  and  N_10
REMARK    4  A    between atoms: C_11  and  C_12
REMARK    5  A    between atoms: C_12  and  C_20
REMARK    6  A    between atoms: C_13  and  C_14
REMARK    7  A    between atoms: C_20  and  C_21
REMARK    8  A    between atoms: C_21  and  C_22
REMARK    9  A    between atoms: C_22  and  C_23
REMARK   10  A    between atoms: C_23  and  C_24
REMARK                            x       y       z     vdW  Elec       q    Type
REMARK                         _______ _______ _______ _____ _____    ______ ____
ROOT
ATOM      1  C   UNL A   1      41.749 -21.586 -38.951  0.00  0.00    -0.046 C 
ATOM      2  C   UNL A   1      42.242 -21.006 -40.235  0.00  0.00    -0.085 C 
ATOM      3  C   UNL A   1      43.429 -20.407 -40.482  0.00  0.00    -0.035 C 
ATOM      4  C   UNL A   1      43.716 -19.885 -41.891  0.00  0.00    +0.006 C 
ATOM      5  C   UNL A   1      44.339 -18.498 -41.856  0.00  0.00    -0.077 C 
ATOM      6  C   UNL A   1      44.781 -17.892 -40.735  0.00  0.00    -0.073 C 
ATOM      7  C   UNL A   1      45.312 -16.490 -40.727  0.00  0.00    -0.044 C 
ATOM      8  C   UNL A   1      44.771 -18.616 -39.393  0.00  0.00    +0.001 C 
ATOM      9  C   UNL A   1      44.626 -20.149 -39.541  0.00  0.00    +0.113 C 
ATOM     10  C   UNL A   1      45.847 -20.734 -40.207  0.00  0.00    -0.000 C 
ATOM     11  C   UNL A   1      47.017 -21.083 -39.374  0.00  0.00    -0.068 C 
ATOM     12  C   UNL A   1      48.410 -22.656 -39.930  0.00  0.00    +0.045 C 
ATOM     13  C   UNL A   1      47.885 -23.301 -41.760  0.00  0.00    +0.240 C 
ATOM     14  O   UNL A   1      48.515 -24.189 -42.330  0.00  0.00    -0.273 OA
ATOM     15  N   UNL A   1      46.517 -22.540 -42.490  0.00  0.00    -0.185 NA
ATOM     16  C   UNL A   1      45.689 -21.518 -41.891  0.00  0.00    +0.040 C 
ATOM     17  C   UNL A   1      44.546 -20.910 -42.683  0.00  0.00    -0.002 C 
ENDROOT
BRANCH   9  18
ATOM     18  N   UNL A   1      44.374 -20.784 -38.242  0.00  0.00    -0.275 NA
ATOM     19  C   UNL A   1      44.527 -20.731 -36.985  0.00  0.00    +0.027 C 
BRANCH  19  20
ATOM     20  C   UNL A   1      45.102 -19.863 -35.837  0.00  0.00    -0.029 C 
ATOM     21  C   UNL A   1      44.500 -18.909 -35.073  0.00  0.00    -0.050 C 
BRANCH  21  22
ATOM     22  C   UNL A   1      43.030 -18.696 -34.899  0.00  0.00    -0.025 A 
ATOM     23  C   UNL A   1      42.326 -20.027 -33.976  0.00  0.00    -0.055 A 
ATOM     24  C   UNL A   1      40.914 -20.908 -34.470  0.00  0.00    -0.061 A 
ATOM     25  C   UNL A   1      40.082 -20.324 -35.915  0.00  0.00    -0.062 A 
ATOM     26  C   UNL A   1      40.835 -18.713 -36.853  0.00  0.00    -0.061 A 
ATOM     27  C   UNL A   1      42.304 -17.984 -36.271  0.00  0.00    -0.055 A 
ENDBRANCH  21  22
BRANCH  20  28
ATOM     28  C   UNL A   1      46.610 -20.128 -35.755  0.00  0.00    -0.026 C 
BRANCH  28  29
ATOM     29  C   UNL A   1      47.550 -18.913 -35.805  0.00  0.00    -0.049 C 
BRANCH  29  30
ATOM     30  C   UNL A   1      47.400 -18.078 -37.083  0.00  0.00    -0.053 C 
BRANCH  30  31
ATOM     31  C   UNL A   1      47.333 -16.585 -36.759  0.00  0.00    -0.056 C 
ATOM     32  C   UNL A   1      45.910 -16.057 -36.837  0.00  0.00    -0.065 C 
ENDBRANCH  30  31
ENDBRANCH  29  30
ENDBRANCH  28  29
ENDBRANCH  20  28
ENDBRANCH  19  20
ENDBRANCH   9  18
TORSDOF 7
ENDMDL
MODEL 2
REMARK VINA RESULT:    -7.174     18.820     22.318
REMARK INTER + INTRA:         -12.525
REMARK INTER:                 -10.796
REMARK INTRA:                  -1.730
REMARK UNBOUND:                -2.625
REMARK  Name = cpd112.pdb
REMARK  10 active torsions:
REMARK  status: ('A' for Active; 'I' for Inactive)
REMARK    1  A    between atoms: C_1  and  C_2
REMARK    2  A    between atoms: C_6  and  C_7
REMARK    3  A    between atoms: C_9  and  N_10
REMARK    4  A    between atoms: C_11  and  C_12
REMARK    5  A    between atoms: C_12  and  C_20
REMARK    6  A    between atoms: C_13  and  C_14
REMARK    7  A    between atoms: C_20  and  C_21
REMARK    8  A    between atoms: C_21  and  C_22
REMARK    9  A    between atoms: C_22  and  C_23
REMARK   10  A    between atoms: C_23  and  C_24
REMARK                            x       y       z     vdW  Elec       q    Type
REMARK                         _______ _______ _______ _____ _____    ______ ____
ROOT
ATOM      1  C   UNL A   1      32.549 -36.352 -27.144  0.00  0.00    -0.046 C 
ATOM      2  C   UNL A   1      32.591 -35.176 -28.062  0.00  0.00    -0.085 C 
ATOM      3  C   UNL A   1      33.195 -35.078 -29.269  0.00  0.00    -0.035 C 
ATOM      4  C   UNL A   1      33.100 -33.759 -30.039  0.00  0.00    +0.006 C 
ATOM      5  C   UNL A   1      34.445 -33.360 -30.628  0.00  0.00    -0.077 C 
ATOM      6  C   UNL A   1      35.529 -34.162 -30.657  0.00  0.00    -0.073 C 
ATOM      7  C   UNL A   1      36.861 -33.705 -31.170  0.00  0.00    -0.044 C 
ATOM      8  C   UNL A   1      35.454 -35.604 -30.167  0.00  0.00    +0.001 C 
ATOM      9  C   UNL A   1      34.002 -36.126 -30.064  0.00  0.00    +0.113 C 
ATOM     10  C   UNL A   1      33.376 -36.224 -31.433  0.00  0.00    -0.000 C 
ATOM     11  C   UNL A   1      33.592 -37.449 -32.231  0.00  0.00    -0.068 C 
ATOM     12  C   UNL A   1      32.156 -38.139 -33.709  0.00  0.00    +0.045 C 
ATOM     13  C   UNL A   1      30.723 -36.738 -33.851  0.00  0.00    +0.240 C 
ATOM     14  O   UNL A   1      29.779 -36.864 -34.629  0.00  0.00    -0.273 OA
ATOM     15  N   UNL A   1      30.888 -35.350 -32.836  0.00  0.00    -0.185 NA
ATOM     16  C   UNL A   1      31.934 -35.124 -31.864  0.00  0.00    +0.040 C 
ATOM     17  C   UNL A   1      31.970 -33.826 -31.079  0.00  0.00    -0.002 C 
ENDROOT
BRANCH   9  18
ATOM     18  N   UNL A   1      33.954 -37.416 -29.364  0.00  0.00    -0.275 NA
ATOM     19  C   UNL A   1      34.602 -38.411 -28.920  0.00  0.00    +0.027 C 
BRANCH  19  20
ATOM     20  C   UNL A   1      36.029 -38.993 -28.756  0.00  0.00    -0.029 C 
ATOM     21  C   UNL A   1      36.497 -40.249 -29.004  0.00  0.00    -0.050 C 
BRANCH  21  22
ATOM     22  C   UNL A   1      35.840 -41.302 -29.836  0.00  0.00    -0.025 A 
ATOM     23  C   UNL A   1      35.973 -40.896 -31.550  0.00  0.00    -0.055 A 
ATOM     24  C   UNL A   1      34.632 -40.898 -32.653  0.00  0.00    -0.061 A 
ATOM     25  C   UNL A   1      33.087 -41.475 -32.020  0.00  0.00    -0.062 A 
ATOM     26  C   UNL A   1      33.014 -42.068 -30.100  0.00  0.00    -0.061 A 
ATOM     27  C   UNL A   1      34.435 -41.937 -29.102  0.00  0.00    -0.055 A 
ENDBRANCH  21  22
BRANCH  20  28
ATOM     28  C   UNL A   1      36.898 -37.928 -28.079  0.00  0.00    -0.026 C 
BRANCH  28  29
ATOM     29  C   UNL A   1      38.392 -37.894 -28.437  0.00  0.00    -0.049 C 
BRANCH  29  30
ATOM     30  C   UNL A   1      38.671 -37.332 -29.837  0.00  0.00    -0.053 C 
BRANCH  30  31
ATOM     31  C   UNL A   1      40.172 -37.318 -30.135  0.00  0.00    -0.056 C 
ATOM     32  C   UNL A   1      40.482 -36.561 -31.415  0.00  0.00    -0.065 C 
ENDBRANCH  30  31
ENDBRANCH  29  30
ENDBRANCH  28  29
ENDBRANCH  20  28
ENDBRANCH  19  20
ENDBRANCH   9  18
TORSDOF 7
ENDMDL
MODEL 3
REMARK VINA RESULT:    -7.126     18.597     22.474
REMARK INTER + INTRA:         -12.459
REMARK INTER:                 -10.402
REMARK INTRA:                  -2.057
REMARK UNBOUND:                -2.625
REMARK  Name = cpd112.pdb
REMARK  10 active torsions:
REMARK  status: ('A' for Active; 'I' for Inactive)
REMARK    1  A    between atoms: C_1  and  C_2
REMARK    2  A    between atoms: C_6  and  C_7
REMARK    3  A    between atoms: C_9  and  N_10
REMARK    4  A    between atoms: C_11  and  C_12
REMARK    5  A    between atoms: C_12  and  C_20
REMARK    6  A    between atoms: C_13  and  C_14
REMARK    7  A    between atoms: C_20  and  C_21
REMARK    8  A    between atoms: C_21  and  C_22
REMARK    9  A    between atoms: C_22  and  C_23
REMARK   10  A    between atoms: C_23  and  C_24
REMARK                            x       y       z     vdW  Elec       q    Type
REMARK                         _______ _______ _______ _____ _____    ______ ____
ROOT
ATOM      1  C   UNL A   1      35.260 -33.096 -30.199  0.00  0.00    -0.046 C 
ATOM      2  C   UNL A   1      33.951 -33.410 -30.845  0.00  0.00    -0.085 C 
ATOM      3  C   UNL A   1      33.312 -34.600 -30.906  0.00  0.00    -0.035 C 
ATOM      4  C   UNL A   1      31.965 -34.681 -31.627  0.00  0.00    +0.006 C 
ATOM      5  C   UNL A   1      31.887 -35.905 -32.526  0.00  0.00    -0.077 C 
ATOM      6  C   UNL A   1      32.792 -36.905 -32.528  0.00  0.00    -0.073 C 
ATOM      7  C   UNL A   1      32.727 -38.055 -33.488  0.00  0.00    -0.044 C 
ATOM      8  C   UNL A   1      33.946 -36.923 -31.532  0.00  0.00    +0.001 C 
ATOM      9  C   UNL A   1      33.716 -35.975 -30.332  0.00  0.00    +0.113 C 
ATOM     10  C   UNL A   1      32.562 -36.460 -29.489  0.00  0.00    -0.000 C 
ATOM     11  C   UNL A   1      32.819 -37.470 -28.440  0.00  0.00    -0.068 C 
ATOM     12  C   UNL A   1      31.598 -37.617 -26.648  0.00  0.00    +0.045 C 
ATOM     13  C   UNL A   1      30.076 -36.321 -26.852  0.00  0.00    +0.240 C 
ATOM     14  O   UNL A   1      29.216 -36.202 -25.982  0.00  0.00    -0.273 OA
ATOM     15  N   UNL A   1      30.034 -35.394 -28.309  0.00  0.00    -0.185 NA
ATOM     16  C   UNL A   1      31.013 -35.430 -29.371  0.00  0.00    +0.040 C 
ATOM     17  C   UNL A   1      30.810 -34.587 -30.617  0.00  0.00    -0.002 C 
ENDROOT
BRANCH   9  18
ATOM     18  N   UNL A   1      34.937 -35.832 -29.530  0.00  0.00    -0.275 NA
ATOM     19  C   UNL A   1      36.007 -36.370 -29.117  0.00  0.00    +0.027 C 
BRANCH  19  20
ATOM     20  C   UNL A   1      36.872 -37.653 -29.211  0.00  0.00    -0.029 C 
ATOM     21  C   UNL A   1      38.081 -37.854 -29.806  0.00  0.00    -0.050 C 
BRANCH  21  22
ATOM     22  C   UNL A   1      39.062 -36.804 -30.219  0.00  0.00    -0.025 A 
ATOM     23  C   UNL A   1      38.543 -36.043 -31.725  0.00  0.00    -0.055 A 
ATOM     24  C   UNL A   1      39.570 -35.831 -33.109  0.00  0.00    -0.061 A 
ATOM     25  C   UNL A   1      41.264 -36.295 -32.916  0.00  0.00    -0.062 A 
ATOM     26  C   UNL A   1      41.847 -37.022 -31.134  0.00  0.00    -0.061 A 
ATOM     27  C   UNL A   1      40.675 -37.239 -29.865  0.00  0.00    -0.055 A 
ENDBRANCH  21  22
BRANCH  20  28
ATOM     28  C   UNL A   1      36.058 -38.814 -28.627  0.00  0.00    -0.026 C 
BRANCH  28  29
ATOM     29  C   UNL A   1      36.609 -40.236 -28.815  0.00  0.00    -0.049 C 
BRANCH  29  30
ATOM     30  C   UNL A   1      35.669 -41.155 -29.606  0.00  0.00    -0.053 C 
BRANCH  30  31
ATOM     31  C   UNL A   1      34.968 -40.389 -30.729  0.00  0.00    -0.056 C 
ATOM     32  C   UNL A   1      33.458 -40.545 -30.658  0.00  0.00    -0.065 C 
ENDBRANCH  30  31
ENDBRANCH  29  30
ENDBRANCH  28  29
ENDBRANCH  20  28
ENDBRANCH  19  20
ENDBRANCH   9  18
TORSDOF 7
ENDMDL
MODEL 4
REMARK VINA RESULT:    -7.085      1.078      2.019
REMARK INTER + INTRA:         -12.402
REMARK INTER:                 -10.252
REMARK INTRA:                  -2.150
REMARK UNBOUND:                -2.625
REMARK  Name = cpd112.pdb
REMARK  10 active torsions:
REMARK  status: ('A' for Active; 'I' for Inactive)
REMARK    1  A    between atoms: C_1  and  C_2
REMARK    2  A    between atoms: C_6  and  C_7
REMARK    3  A    between atoms: C_9  and  N_10
REMARK    4  A    between atoms: C_11  and  C_12
REMARK    5  A    between atoms: C_12  and  C_20
REMARK    6  A    between atoms: C_13  and  C_14
REMARK    7  A    between atoms: C_20  and  C_21
REMARK    8  A    between atoms: C_21  and  C_22
REMARK    9  A    between atoms: C_22  and  C_23
REMARK   10  A    between atoms: C_23  and  C_24
REMARK                            x       y       z     vdW  Elec       q    Type
REMARK                         _______ _______ _______ _____ _____    ______ ____
ROOT
ATOM      1  C   UNL A   1      41.779 -21.640 -39.221  0.00  0.00    -0.046 C 
ATOM      2  C   UNL A   1      42.294 -21.067 -40.499  0.00  0.00    -0.085 C 
ATOM      3  C   UNL A   1      43.486 -20.470 -40.728  0.00  0.00    -0.035 C 
ATOM      4  C   UNL A   1      43.799 -19.957 -42.135  0.00  0.00    +0.006 C 
ATOM      5  C   UNL A   1      44.422 -18.570 -42.096  0.00  0.00    -0.077 C 
ATOM      6  C   UNL A   1      44.845 -17.959 -40.970  0.00  0.00    -0.073 C 
ATOM      7  C   UNL A   1      45.377 -16.557 -40.961  0.00  0.00    -0.044 C 
ATOM      8  C   UNL A   1      44.810 -18.675 -39.625  0.00  0.00    +0.001 C 
ATOM      9  C   UNL A   1      44.667 -20.208 -39.768  0.00  0.00    +0.113 C 
ATOM     10  C   UNL A   1      45.899 -20.798 -40.409  0.00  0.00    -0.000 C 
ATOM     11  C   UNL A   1      47.053 -21.144 -39.553  0.00  0.00    -0.068 C 
ATOM     12  C   UNL A   1      48.454 -22.722 -40.075  0.00  0.00    +0.045 C 
ATOM     13  C   UNL A   1      47.961 -23.375 -41.911  0.00  0.00    +0.240 C 
ATOM     14  O   UNL A   1      48.600 -24.268 -42.465  0.00  0.00    -0.273 OA
ATOM     15  N   UNL A   1      46.607 -22.617 -42.669  0.00  0.00    -0.185 NA
ATOM     16  C   UNL A   1      45.769 -21.591 -42.091  0.00  0.00    +0.040 C 
ATOM     17  C   UNL A   1      44.642 -20.987 -42.906  0.00  0.00    -0.002 C 
ENDROOT
BRANCH   9  18
ATOM     18  N   UNL A   1      44.391 -20.836 -38.469  0.00  0.00    -0.275 NA
ATOM     19  C   UNL A   1      44.140 -20.668 -37.239  0.00  0.00    +0.027 C 
BRANCH  19  20
ATOM     20  C   UNL A   1      43.887 -19.588 -36.157  0.00  0.00    -0.029 C 
ATOM     21  C   UNL A   1      42.846 -18.721 -36.010  0.00  0.00    -0.050 C 
BRANCH  21  22
ATOM     22  C   UNL A   1      41.499 -18.822 -36.649  0.00  0.00    -0.025 A 
ATOM     23  C   UNL A   1      41.526 -18.083 -38.252  0.00  0.00    -0.055 A 
ATOM     24  C   UNL A   1      40.363 -16.917 -38.802  0.00  0.00    -0.061 A 
ATOM     25  C   UNL A   1      39.010 -16.577 -37.718  0.00  0.00    -0.062 A 
ATOM     26  C   UNL A   1      38.938 -17.553 -35.961  0.00  0.00    -0.061 A 
ATOM     27  C   UNL A   1      40.225 -18.641 -35.525  0.00  0.00    -0.055 A 
ENDBRANCH  21  22
BRANCH  20  28
ATOM     28  C   UNL A   1      45.137 -19.503 -35.273  0.00  0.00    -0.026 C 
BRANCH  28  29
ATOM     29  C   UNL A   1      46.489 -19.855 -35.914  0.00  0.00    -0.049 C 
BRANCH  29  30
ATOM     30  C   UNL A   1      47.228 -18.638 -36.486  0.00  0.00    -0.053 C 
BRANCH  30  31
ATOM     31  C   UNL A   1      48.057 -17.942 -35.407  0.00  0.00    -0.056 C 
ATOM     32  C   UNL A   1      49.361 -18.676 -35.140  0.00  0.00    -0.065 C 
ENDBRANCH  30  31
ENDBRANCH  29  30
ENDBRANCH  28  29
ENDBRANCH  20  28
ENDBRANCH  19  20
ENDBRANCH   9  18
TORSDOF 7
ENDMDL
MODEL 5
REMARK VINA RESULT:    -7.058     18.551     22.330
REMARK INTER + INTRA:         -12.365
REMARK INTER:                 -10.470
REMARK INTRA:                  -1.895
REMARK UNBOUND:                -2.625
REMARK  Name = cpd112.pdb
REMARK  10 active torsions:
REMARK  status: ('A' for Active; 'I' for Inactive)
REMARK    1  A    between atoms: C_1  and  C_2
REMARK    2  A    between atoms: C_6  and  C_7
REMARK    3  A    between atoms: C_9  and  N_10
REMARK    4  A    between atoms: C_11  and  C_12
REMARK    5  A    between atoms: C_12  and  C_20
REMARK    6  A    between atoms: C_13  and  C_14
REMARK    7  A    between atoms: C_20  and  C_21
REMARK    8  A    between atoms: C_21  and  C_22
REMARK    9  A    between atoms: C_22  and  C_23
REMARK   10  A    between atoms: C_23  and  C_24
REMARK                            x       y       z     vdW  Elec       q    Type
REMARK                         _______ _______ _______ _____ _____    ______ ____
ROOT
ATOM      1  C   UNL A   1      32.318 -35.931 -26.997  0.00  0.00    -0.046 C 
ATOM      2  C   UNL A   1      32.278 -34.794 -27.963  0.00  0.00    -0.085 C 
ATOM      3  C   UNL A   1      32.878 -34.701 -29.172  0.00  0.00    -0.035 C 
ATOM      4  C   UNL A   1      32.691 -33.424 -29.994  0.00  0.00    +0.006 C 
ATOM      5  C   UNL A   1      34.005 -32.953 -30.598  0.00  0.00    -0.077 C 
ATOM      6  C   UNL A   1      35.145 -33.675 -30.593  0.00  0.00    -0.073 C 
ATOM      7  C   UNL A   1      36.442 -33.143 -31.124  0.00  0.00    -0.044 C 
ATOM      8  C   UNL A   1      35.173 -35.097 -30.046  0.00  0.00    +0.001 C 
ATOM      9  C   UNL A   1      33.763 -35.719 -29.923  0.00  0.00    +0.113 C 
ATOM     10  C   UNL A   1      33.150 -35.917 -31.287  0.00  0.00    -0.000 C 
ATOM     11  C   UNL A   1      33.458 -37.154 -32.035  0.00  0.00    -0.068 C 
ATOM     12  C   UNL A   1      32.081 -38.006 -33.486  0.00  0.00    +0.045 C 
ATOM     13  C   UNL A   1      30.550 -36.720 -33.685  0.00  0.00    +0.240 C 
ATOM     14  O   UNL A   1      29.621 -36.946 -34.458  0.00  0.00    -0.273 OA
ATOM     15  N   UNL A   1      30.611 -35.284 -32.727  0.00  0.00    -0.185 NA
ATOM     16  C   UNL A   1      31.633 -34.943 -31.764  0.00  0.00    +0.040 C 
ATOM     17  C   UNL A   1      31.572 -33.615 -31.032  0.00  0.00    -0.002 C 
ENDROOT
BRANCH   9  18
ATOM     18  N   UNL A   1      33.805 -36.980 -29.171  0.00  0.00    -0.275 NA
ATOM     19  C   UNL A   1      34.276 -38.153 -29.088  0.00  0.00    +0.027 C 
BRANCH  19  20
ATOM     20  C   UNL A   1      35.254 -39.152 -29.759  0.00  0.00    -0.029 C 
ATOM     21  C   UNL A   1      36.570 -39.007 -30.082  0.00  0.00    -0.050 C 
BRANCH  21  22
ATOM     22  C   UNL A   1      37.514 -37.977 -29.553  0.00  0.00    -0.025 A 
ATOM     23  C   UNL A   1      38.064 -36.924 -30.860  0.00  0.00    -0.055 A 
ATOM     24  C   UNL A   1      39.731 -36.548 -31.166  0.00  0.00    -0.061 A 
ATOM     25  C   UNL A   1      40.908 -37.163 -30.000  0.00  0.00    -0.062 A 
ATOM     26  C   UNL A   1      40.224 -38.234 -28.442  0.00  0.00    -0.061 A 
ATOM     27  C   UNL A   1      38.524 -38.586 -28.317  0.00  0.00    -0.055 A 
ENDBRANCH  21  22
BRANCH  20  28
ATOM     28  C   UNL A   1      34.449 -40.383 -30.189  0.00  0.00    -0.026 C 
BRANCH  28  29
ATOM     29  C   UNL A   1      35.021 -41.248 -31.324  0.00  0.00    -0.049 C 
BRANCH  29  30
ATOM     30  C   UNL A   1      34.633 -40.752 -32.723  0.00  0.00    -0.053 C 
BRANCH  30  31
ATOM     31  C   UNL A   1      33.445 -41.540 -33.276  0.00  0.00    -0.056 C 
ATOM     32  C   UNL A   1      33.897 -42.763 -34.057  0.00  0.00    -0.065 C 
ENDBRANCH  30  31
ENDBRANCH  29  30
ENDBRANCH  28  29
ENDBRANCH  20  28
ENDBRANCH  19  20
ENDBRANCH   9  18
TORSDOF 7
ENDMDL
MODEL 6
REMARK VINA RESULT:    -7.019     18.276     21.558
REMARK INTER + INTRA:         -12.311
REMARK INTER:                 -10.608
REMARK INTRA:                  -1.703
REMARK UNBOUND:                -2.625
REMARK  Name = cpd112.pdb
REMARK  10 active torsions:
REMARK  status: ('A' for Active; 'I' for Inactive)
REMARK    1  A    between atoms: C_1  and  C_2
REMARK    2  A    between atoms: C_6  and  C_7
REMARK    3  A    between atoms: C_9  and  N_10
REMARK    4  A    between atoms: C_11  and  C_12
REMARK    5  A    between atoms: C_12  and  C_20
REMARK    6  A    between atoms: C_13  and  C_14
REMARK    7  A    between atoms: C_20  and  C_21
REMARK    8  A    between atoms: C_21  and  C_22
REMARK    9  A    between atoms: C_22  and  C_23
REMARK   10  A    between atoms: C_23  and  C_24
REMARK                            x       y       z     vdW  Elec       q    Type
REMARK                         _______ _______ _______ _____ _____    ______ ____
ROOT
ATOM      1  C   UNL A   1      33.723 -36.045 -27.413  0.00  0.00    -0.046 C 
ATOM      2  C   UNL A   1      32.388 -35.630 -27.934  0.00  0.00    -0.085 C 
ATOM      3  C   UNL A   1      32.113 -34.785 -28.953  0.00  0.00    -0.035 C 
ATOM      4  C   UNL A   1      30.652 -34.508 -29.313  0.00  0.00    +0.006 C 
ATOM      5  C   UNL A   1      30.407 -33.026 -29.550  0.00  0.00    -0.077 C 
ATOM      6  C   UNL A   1      31.384 -32.101 -29.645  0.00  0.00    -0.073 C 
ATOM      7  C   UNL A   1      31.100 -30.636 -29.796  0.00  0.00    -0.044 C 
ATOM      8  C   UNL A   1      32.854 -32.503 -29.613  0.00  0.00    +0.001 C 
ATOM      9  C   UNL A   1      33.069 -34.009 -29.886  0.00  0.00    +0.113 C 
ATOM     10  C   UNL A   1      32.679 -34.351 -31.303  0.00  0.00    -0.000 C 
ATOM     11  C   UNL A   1      33.676 -34.174 -32.380  0.00  0.00    -0.068 C 
ATOM     12  C   UNL A   1      33.648 -35.370 -34.195  0.00  0.00    +0.045 C 
ATOM     13  C   UNL A   1      31.988 -36.502 -34.140  0.00  0.00    +0.240 C 
ATOM     14  O   UNL A   1      31.710 -37.275 -35.055  0.00  0.00    -0.273 OA
ATOM     15  N   UNL A   1      30.973 -36.328 -32.753  0.00  0.00    -0.185 NA
ATOM     16  C   UNL A   1      31.228 -35.481 -31.611  0.00  0.00    +0.040 C 
ATOM     17  C   UNL A   1      30.212 -35.398 -30.487  0.00  0.00    -0.002 C 
ENDROOT
BRANCH   9  18
ATOM     18  N   UNL A   1      34.455 -34.405 -29.606  0.00  0.00    -0.275 NA
ATOM     19  C   UNL A   1      35.378 -35.252 -29.796  0.00  0.00    +0.027 C 
BRANCH  19  20
ATOM     20  C   UNL A   1      35.734 -36.556 -30.556  0.00  0.00    -0.029 C 
ATOM     21  C   UNL A   1      36.914 -36.954 -31.108  0.00  0.00    -0.050 C 
BRANCH  21  22
ATOM     22  C   UNL A   1      38.271 -36.399 -30.818  0.00  0.00    -0.025 A 
ATOM     23  C   UNL A   1      38.942 -35.640 -32.264  0.00  0.00    -0.055 A 
ATOM     24  C   UNL A   1      40.533 -35.963 -32.881  0.00  0.00    -0.061 A 
ATOM     25  C   UNL A   1      41.561 -37.016 -31.904  0.00  0.00    -0.062 A 
ATOM     26  C   UNL A   1      40.808 -37.743 -30.186  0.00  0.00    -0.061 A 
ATOM     27  C   UNL A   1      39.164 -37.381 -29.743  0.00  0.00    -0.055 A 
ENDBRANCH  21  22
BRANCH  20  28
ATOM     28  C   UNL A   1      34.439 -37.351 -30.760  0.00  0.00    -0.026 C 
BRANCH  28  29
ATOM     29  C   UNL A   1      34.507 -38.878 -30.593  0.00  0.00    -0.049 C 
BRANCH  29  30
ATOM     30  C   UNL A   1      34.513 -39.331 -29.128  0.00  0.00    -0.053 C 
BRANCH  30  31
ATOM     31  C   UNL A   1      35.410 -40.555 -28.934  0.00  0.00    -0.056 C 
ATOM     32  C   UNL A   1      36.883 -40.180 -28.955  0.00  0.00    -0.065 C 
ENDBRANCH  30  31
ENDBRANCH  29  30
ENDBRANCH  28  29
ENDBRANCH  20  28
ENDBRANCH  19  20
ENDBRANCH   9  18
TORSDOF 7
ENDMDL
MODEL 7
REMARK VINA RESULT:    -6.921      2.692      6.798
REMARK INTER + INTRA:         -12.176
REMARK INTER:                  -9.672
REMARK INTRA:                  -2.504
REMARK UNBOUND:                -2.625
REMARK  Name = cpd112.pdb
REMARK  10 active torsions:
REMARK  status: ('A' for Active; 'I' for Inactive)
REMARK    1  A    between atoms: C_1  and  C_2
REMARK    2  A    between atoms: C_6  and  C_7
REMARK    3  A    between atoms: C_9  and  N_10
REMARK    4  A    between atoms: C_11  and  C_12
REMARK    5  A    between atoms: C_12  and  C_20
REMARK    6  A    between atoms: C_13  and  C_14
REMARK    7  A    between atoms: C_20  and  C_21
REMARK    8  A    between atoms: C_21  and  C_22
REMARK    9  A    between atoms: C_22  and  C_23
REMARK   10  A    between atoms: C_23  and  C_24
REMARK                            x       y       z     vdW  Elec       q    Type
REMARK                         _______ _______ _______ _____ _____    ______ ____
ROOT
ATOM      1  C   UNL A   1      48.152 -18.405 -34.816  0.00  0.00    -0.046 C 
ATOM      2  C   UNL A   1      46.827 -18.041 -34.234  0.00  0.00    -0.085 C 
ATOM      3  C   UNL A   1      45.688 -17.715 -34.885  0.00  0.00    -0.035 C 
ATOM      4  C   UNL A   1      44.439 -17.377 -34.068  0.00  0.00    +0.006 C 
ATOM      5  C   UNL A   1      43.733 -16.145 -34.614  0.00  0.00    -0.077 C 
ATOM      6  C   UNL A   1      44.037 -15.553 -35.788  0.00  0.00    -0.073 C 
ATOM      7  C   UNL A   1      43.375 -14.291 -36.253  0.00  0.00    -0.044 C 
ATOM      8  C   UNL A   1      45.082 -16.150 -36.723  0.00  0.00    +0.001 C 
ATOM      9  C   UNL A   1      45.399 -17.629 -36.400  0.00  0.00    +0.113 C 
ATOM     10  C   UNL A   1      44.197 -18.500 -36.672  0.00  0.00    -0.000 C 
ATOM     11  C   UNL A   1      43.980 -19.009 -38.042  0.00  0.00    -0.068 C 
ATOM     12  C   UNL A   1      42.928 -20.871 -38.435  0.00  0.00    +0.045 C 
ATOM     13  C   UNL A   1      42.221 -21.541 -36.677  0.00  0.00    +0.240 C 
ATOM     14  O   UNL A   1      41.570 -22.581 -36.604  0.00  0.00    -0.273 OA
ATOM     15  N   UNL A   1      42.565 -20.581 -35.283  0.00  0.00    -0.185 NA
ATOM     16  C   UNL A   1      43.352 -19.368 -35.255  0.00  0.00    +0.040 C 
ATOM     17  C   UNL A   1      43.524 -18.608 -33.954  0.00  0.00    -0.002 C 
ENDROOT
BRANCH   9  18
ATOM     18  N   UNL A   1      46.572 -18.094 -37.149  0.00  0.00    -0.275 NA
ATOM     19  C   UNL A   1      47.117 -18.250 -38.283  0.00  0.00    +0.027 C 
BRANCH  19  20
ATOM     20  C   UNL A   1      46.926 -17.999 -39.800  0.00  0.00    -0.029 C 
ATOM     21  C   UNL A   1      46.733 -18.884 -40.818  0.00  0.00    -0.050 C 
BRANCH  21  22
ATOM     22  C   UNL A   1      46.299 -20.309 -40.696  0.00  0.00    -0.025 A 
ATOM     23  C   UNL A   1      47.686 -21.340 -40.334  0.00  0.00    -0.055 A 
ATOM     24  C   UNL A   1      48.066 -22.795 -41.203  0.00  0.00    -0.061 A 
ATOM     25  C   UNL A   1      46.902 -23.313 -42.426  0.00  0.00    -0.062 A 
ATOM     26  C   UNL A   1      45.259 -22.187 -42.704  0.00  0.00    -0.061 A 
ATOM     27  C   UNL A   1      45.059 -20.714 -41.799  0.00  0.00    -0.055 A 
ENDBRANCH  21  22
BRANCH  20  28
ATOM     28  C   UNL A   1      47.147 -16.505 -40.063  0.00  0.00    -0.026 C 
BRANCH  28  29
ATOM     29  C   UNL A   1      46.092 -15.764 -40.899  0.00  0.00    -0.049 C 
BRANCH  29  30
ATOM     30  C   UNL A   1      44.907 -15.251 -40.069  0.00  0.00    -0.053 C 
BRANCH  30  31
ATOM     31  C   UNL A   1      43.685 -16.154 -40.239  0.00  0.00    -0.056 C 
ATOM     32  C   UNL A   1      43.725 -16.911 -41.556  0.00  0.00    -0.065 C 
ENDBRANCH  30  31
ENDBRANCH  29  30
ENDBRANCH  28  29
ENDBRANCH  20  28
ENDBRANCH  19  20
ENDBRANCH   9  18
TORSDOF 7
ENDMDL
MODEL 8
REMARK VINA RESULT:    -6.812     18.827     22.417
REMARK INTER + INTRA:         -12.025
REMARK INTER:                 -10.525
REMARK INTRA:                  -1.501
REMARK UNBOUND:                -2.625
REMARK  Name = cpd112.pdb
REMARK  10 active torsions:
REMARK  status: ('A' for Active; 'I' for Inactive)
REMARK    1  A    between atoms: C_1  and  C_2
REMARK    2  A    between atoms: C_6  and  C_7
REMARK    3  A    between atoms: C_9  and  N_10
REMARK    4  A    between atoms: C_11  and  C_12
REMARK    5  A    between atoms: C_12  and  C_20
REMARK    6  A    between atoms: C_13  and  C_14
REMARK    7  A    between atoms: C_20  and  C_21
REMARK    8  A    between atoms: C_21  and  C_22
REMARK    9  A    between atoms: C_22  and  C_23
REMARK   10  A    between atoms: C_23  and  C_24
REMARK                            x       y       z     vdW  Elec       q    Type
REMARK                         _______ _______ _______ _____ _____    ______ ____
ROOT
ATOM      1  C   UNL A   1      38.047 -37.858 -28.367  0.00  0.00    -0.046 C 
ATOM      2  C   UNL A   1      37.503 -39.199 -28.735  0.00  0.00    -0.085 C 
ATOM      3  C   UNL A   1      36.214 -39.606 -28.740  0.00  0.00    -0.035 C 
ATOM      4  C   UNL A   1      35.892 -41.041 -29.162  0.00  0.00    +0.006 C 
ATOM      5  C   UNL A   1      34.881 -41.684 -28.225  0.00  0.00    -0.077 C 
ATOM      6  C   UNL A   1      34.192 -41.015 -27.277  0.00  0.00    -0.073 C 
ATOM      7  C   UNL A   1      33.266 -41.698 -26.316  0.00  0.00    -0.044 C 
ATOM      8  C   UNL A   1      34.316 -39.502 -27.134  0.00  0.00    +0.001 C 
ATOM      9  C   UNL A   1      34.926 -38.831 -28.386  0.00  0.00    +0.113 C 
ATOM     10  C   UNL A   1      33.992 -38.962 -29.564  0.00  0.00    -0.000 C 
ATOM     11  C   UNL A   1      32.921 -37.958 -29.741  0.00  0.00    -0.068 C 
ATOM     12  C   UNL A   1      32.112 -37.456 -31.695  0.00  0.00    +0.045 C 
ATOM     13  C   UNL A   1      32.945 -38.709 -33.027  0.00  0.00    +0.240 C 
ATOM     14  O   UNL A   1      32.657 -38.657 -34.221  0.00  0.00    -0.273 OA
ATOM     15  N   UNL A   1      34.073 -39.863 -32.411  0.00  0.00    -0.185 NA
ATOM     16  C   UNL A   1      34.508 -39.981 -31.037  0.00  0.00    +0.040 C 
ATOM     17  C   UNL A   1      35.472 -41.083 -30.641  0.00  0.00    -0.002 C 
ENDROOT
BRANCH   9  18
ATOM     18  N   UNL A   1      35.256 -37.425 -28.124  0.00  0.00    -0.275 NA
ATOM     19  C   UNL A   1      35.453 -36.270 -28.608  0.00  0.00    +0.027 C 
BRANCH  19  20
ATOM     20  C   UNL A   1      35.441 -35.455 -29.926  0.00  0.00    -0.029 C 
ATOM     21  C   UNL A   1      34.605 -34.458 -30.333  0.00  0.00    -0.050 C 
BRANCH  21  22
ATOM     22  C   UNL A   1      33.699 -33.641 -29.470  0.00  0.00    -0.025 A 
ATOM     23  C   UNL A   1      32.175 -34.492 -29.208  0.00  0.00    -0.055 A 
ATOM     24  C   UNL A   1      30.611 -33.775 -29.443  0.00  0.00    -0.061 A 
ATOM     25  C   UNL A   1      30.580 -32.053 -29.837  0.00  0.00    -0.062 A 
ATOM     26  C   UNL A   1      32.338 -31.086 -29.982  0.00  0.00    -0.061 A 
ATOM     27  C   UNL A   1      33.826 -31.967 -29.787  0.00  0.00    -0.055 A 
ENDBRANCH  21  22
BRANCH  20  28
ATOM     28  C   UNL A   1      36.488 -36.063 -30.867  0.00  0.00    -0.026 C 
BRANCH  28  29
ATOM     29  C   UNL A   1      37.596 -35.138 -31.393  0.00  0.00    -0.049 C 
BRANCH  29  30
ATOM     30  C   UNL A   1      38.678 -35.876 -32.193  0.00  0.00    -0.053 C 
BRANCH  30  31
ATOM     31  C   UNL A   1      40.060 -35.663 -31.575  0.00  0.00    -0.056 C 
ATOM     32  C   UNL A   1      40.553 -36.911 -30.860  0.00  0.00    -0.065 C 
ENDBRANCH  30  31
ENDBRANCH  29  30
ENDBRANCH  28  29
ENDBRANCH  20  28
ENDBRANCH  19  20
ENDBRANCH   9  18
TORSDOF 7
ENDMDL
MODEL 9
REMARK VINA RESULT:    -6.747      3.815      7.915
REMARK INTER + INTRA:         -11.937
REMARK INTER:                  -9.898
REMARK INTRA:                  -2.038
REMARK UNBOUND:                -2.625
REMARK  Name = cpd112.pdb
REMARK  10 active torsions:
REMARK  status: ('A' for Active; 'I' for Inactive)
REMARK    1  A    between atoms: C_1  and  C_2
REMARK    2  A    between atoms: C_6  and  C_7
REMARK    3  A    between atoms: C_9  and  N_10
REMARK    4  A    between atoms: C_11  and  C_12
REMARK    5  A    between atoms: C_12  and  C_20
REMARK    6  A    between atoms: C_13  and  C_14
REMARK    7  A    between atoms: C_20  and  C_21
REMARK    8  A    between atoms: C_21  and  C_22
REMARK    9  A    between atoms: C_22  and  C_23
REMARK   10  A    between atoms: C_23  and  C_24
REMARK                            x       y       z     vdW  Elec       q    Type
REMARK                         _______ _______ _______ _____ _____    ______ ____
ROOT
ATOM      1  C   UNL A   1      41.722 -23.658 -31.661  0.00  0.00    -0.046 C 
ATOM      2  C   UNL A   1      40.412 -23.881 -32.342  0.00  0.00    -0.085 C 
ATOM      3  C   UNL A   1      39.693 -23.007 -33.082  0.00  0.00    -0.035 C 
ATOM      4  C   UNL A   1      38.367 -23.466 -33.689  0.00  0.00    +0.006 C 
ATOM      5  C   UNL A   1      37.278 -22.420 -33.505  0.00  0.00    -0.077 C 
ATOM      6  C   UNL A   1      37.497 -21.166 -33.061  0.00  0.00    -0.073 C 
ATOM      7  C   UNL A   1      36.388 -20.188 -32.812  0.00  0.00    -0.044 C 
ATOM      8  C   UNL A   1      38.911 -20.663 -32.790  0.00  0.00    +0.001 C 
ATOM      9  C   UNL A   1      39.996 -21.540 -33.457  0.00  0.00    +0.113 C 
ATOM     10  C   UNL A   1      39.907 -21.439 -34.960  0.00  0.00    -0.000 C 
ATOM     11  C   UNL A   1      40.606 -20.331 -35.644  0.00  0.00    -0.068 C 
ATOM     12  C   UNL A   1      41.326 -20.498 -37.688  0.00  0.00    +0.045 C 
ATOM     13  C   UNL A   1      40.688 -22.265 -38.404  0.00  0.00    +0.240 C 
ATOM     14  O   UNL A   1      40.944 -22.619 -39.553  0.00  0.00    -0.273 OA
ATOM     15  N   UNL A   1      39.760 -23.250 -37.331  0.00  0.00    -0.185 NA
ATOM     16  C   UNL A   1      39.438 -22.944 -35.955  0.00  0.00    +0.040 C 
ATOM     17  C   UNL A   1      38.567 -23.892 -35.153  0.00  0.00    -0.002 C 
ENDROOT
BRANCH   9  18
ATOM     18  N   UNL A   1      41.336 -21.178 -32.979  0.00  0.00    -0.275 NA
ATOM     19  C   UNL A   1      42.230 -20.284 -32.896  0.00  0.00    +0.027 C 
BRANCH  19  20
ATOM     20  C   UNL A   1      42.547 -18.805 -33.237  0.00  0.00    -0.029 C 
ATOM     21  C   UNL A   1      43.694 -18.240 -33.706  0.00  0.00    -0.050 C 
BRANCH  21  22
ATOM     22  C   UNL A   1      44.840 -18.946 -34.355  0.00  0.00    -0.025 A 
ATOM     23  C   UNL A   1      46.277 -17.919 -34.339  0.00  0.00    -0.055 A 
ATOM     24  C   UNL A   1      47.255 -17.598 -35.738  0.00  0.00    -0.061 A 
ATOM     25  C   UNL A   1      46.835 -18.472 -37.215  0.00  0.00    -0.062 A 
ATOM     26  C   UNL A   1      45.279 -19.745 -37.150  0.00  0.00    -0.061 A 
ATOM     27  C   UNL A   1      44.354 -19.902 -35.684  0.00  0.00    -0.055 A 
ENDBRANCH  21  22
BRANCH  20  28
ATOM     28  C   UNL A   1      41.348 -17.954 -32.801  0.00  0.00    -0.026 C 
BRANCH  28  29
ATOM     29  C   UNL A   1      40.528 -17.262 -33.901  0.00  0.00    -0.049 C 
BRANCH  29  30
ATOM     30  C   UNL A   1      39.024 -17.214 -33.601  0.00  0.00    -0.053 C 
BRANCH  30  31
ATOM     31  C   UNL A   1      38.226 -16.822 -34.846  0.00  0.00    -0.056 C 
ATOM     32  C   UNL A   1      37.701 -18.043 -35.583  0.00  0.00    -0.065 C 
ENDBRANCH  30  31
ENDBRANCH  29  30
ENDBRANCH  28  29
ENDBRANCH  20  28
ENDBRANCH  19  20
ENDBRANCH   9  18
TORSDOF 7
ENDMDL
MODEL 10
REMARK VINA RESULT:    -6.680      3.013      6.818
REMARK INTER + INTRA:         -11.844
REMARK INTER:                  -9.689
REMARK INTRA:                  -2.155
REMARK UNBOUND:                -2.625
REMARK  Name = cpd112.pdb
REMARK  10 active torsions:
REMARK  status: ('A' for Active; 'I' for Inactive)
REMARK    1  A    between atoms: C_1  and  C_2
REMARK    2  A    between atoms: C_6  and  C_7
REMARK    3  A    between atoms: C_9  and  N_10
REMARK    4  A    between atoms: C_11  and  C_12
REMARK    5  A    between atoms: C_12  and  C_20
REMARK    6  A    between atoms: C_13  and  C_14
REMARK    7  A    between atoms: C_20  and  C_21
REMARK    8  A    between atoms: C_21  and  C_22
REMARK    9  A    between atoms: C_22  and  C_23
REMARK   10  A    between atoms: C_23  and  C_24
REMARK                            x       y       z     vdW  Elec       q    Type
REMARK                         _______ _______ _______ _____ _____    ______ ____
ROOT
ATOM      1  C   UNL A   1      40.849 -16.339 -39.749  0.00  0.00    -0.046 C 
ATOM      2  C   UNL A   1      39.999 -17.471 -39.277  0.00  0.00    -0.085 C 
ATOM      3  C   UNL A   1      40.395 -18.685 -38.829  0.00  0.00    -0.035 C 
ATOM      4  C   UNL A   1      39.333 -19.695 -38.391  0.00  0.00    +0.006 C 
ATOM      5  C   UNL A   1      39.628 -21.085 -38.933  0.00  0.00    -0.077 C 
ATOM      6  C   UNL A   1      40.782 -21.434 -39.537  0.00  0.00    -0.073 C 
ATOM      7  C   UNL A   1      41.005 -22.792 -40.134  0.00  0.00    -0.044 C 
ATOM      8  C   UNL A   1      41.945 -20.454 -39.641  0.00  0.00    +0.001 C 
ATOM      9  C   UNL A   1      41.815 -19.266 -38.659  0.00  0.00    +0.113 C 
ATOM     10  C   UNL A   1      41.931 -19.744 -37.233  0.00  0.00    -0.000 C 
ATOM     11  C   UNL A   1      43.276 -19.887 -36.635  0.00  0.00    -0.068 C 
ATOM     12  C   UNL A   1      43.623 -19.685 -34.499  0.00  0.00    +0.045 C 
ATOM     13  C   UNL A   1      41.828 -19.487 -33.617  0.00  0.00    +0.240 C 
ATOM     14  O   UNL A   1      41.724 -19.364 -32.398  0.00  0.00    -0.273 OA
ATOM     15  N   UNL A   1      40.446 -19.505 -34.652  0.00  0.00    -0.185 NA
ATOM     16  C   UNL A   1      40.462 -19.603 -36.094  0.00  0.00    +0.040 C 
ATOM     17  C   UNL A   1      39.155 -19.656 -36.864  0.00  0.00    -0.002 C 
ENDROOT
BRANCH   9  18
ATOM     18  N   UNL A   1      42.809 -18.226 -38.954  0.00  0.00    -0.275 NA
ATOM     19  C   UNL A   1      43.822 -17.885 -39.635  0.00  0.00    +0.027 C 
BRANCH  19  20
ATOM     20  C   UNL A   1      44.780 -18.354 -40.760  0.00  0.00    -0.029 C 
ATOM     21  C   UNL A   1      46.139 -18.299 -40.833  0.00  0.00    -0.050 C 
BRANCH  21  22
ATOM     22  C   UNL A   1      47.091 -18.099 -39.698  0.00  0.00    -0.025 A 
ATOM     23  C   UNL A   1      47.014 -19.471 -38.589  0.00  0.00    -0.055 A 
ATOM     24  C   UNL A   1      46.824 -19.319 -36.870  0.00  0.00    -0.061 A 
ATOM     25  C   UNL A   1      46.846 -17.679 -36.213  0.00  0.00    -0.062 A 
ATOM     26  C   UNL A   1      47.084 -16.149 -37.497  0.00  0.00    -0.061 A 
ATOM     27  C   UNL A   1      47.190 -16.466 -39.206  0.00  0.00    -0.055 A 
ENDBRANCH  21  22
BRANCH  20  28
ATOM     28  C   UNL A   1      43.925 -18.791 -41.955  0.00  0.00    -0.026 C 
BRANCH  28  29
ATOM     29  C   UNL A   1      44.486 -19.896 -42.866  0.00  0.00    -0.049 C 
BRANCH  29  30
ATOM     30  C   UNL A   1      44.335 -21.305 -42.278  0.00  0.00    -0.053 C 
BRANCH  30  31
ATOM     31  C   UNL A   1      45.699 -21.967 -42.080  0.00  0.00    -0.056 C 
ATOM     32  C   UNL A   1      45.969 -22.269 -40.615  0.00  0.00    -0.065 C 
ENDBRANCH  30  31
ENDBRANCH  29  30
ENDBRANCH  28  29
ENDBRANCH  20  28
ENDBRANCH  19  20
ENDBRANCH   9  18
TORSDOF 7
ENDMDL
MODEL 11
REMARK VINA RESULT:    -6.675      2.457      6.536
REMARK INTER + INTRA:         -11.837
REMARK INTER:                  -9.498
REMARK INTRA:                  -2.339
REMARK UNBOUND:                -2.625
REMARK  Name = cpd112.pdb
REMARK  10 active torsions:
REMARK  status: ('A' for Active; 'I' for Inactive)
REMARK    1  A    between atoms: C_1  and  C_2
REMARK    2  A    between atoms: C_6  and  C_7
REMARK    3  A    between atoms: C_9  and  N_10
REMARK    4  A    between atoms: C_11  and  C_12
REMARK    5  A    between atoms: C_12  and  C_20
REMARK    6  A    between atoms: C_13  and  C_14
REMARK    7  A    between atoms: C_20  and  C_21
REMARK    8  A    between atoms: C_21  and  C_22
REMARK    9  A    between atoms: C_22  and  C_23
REMARK   10  A    between atoms: C_23  and  C_24
REMARK                            x       y       z     vdW  Elec       q    Type
REMARK                         _______ _______ _______ _____ _____    ______ ____
ROOT
ATOM      1  C   UNL A   1      47.124 -19.998 -35.020  0.00  0.00    -0.046 C 
ATOM      2  C   UNL A   1      45.764 -19.473 -34.700  0.00  0.00    -0.085 C 
ATOM      3  C   UNL A   1      44.836 -18.978 -35.551  0.00  0.00    -0.035 C 
ATOM      4  C   UNL A   1      43.498 -18.496 -34.989  0.00  0.00    +0.006 C 
ATOM      5  C   UNL A   1      43.084 -17.166 -35.599  0.00  0.00    -0.077 C 
ATOM      6  C   UNL A   1      43.699 -16.589 -36.652  0.00  0.00    -0.073 C 
ATOM      7  C   UNL A   1      43.315 -15.237 -37.174  0.00  0.00    -0.044 C 
ATOM      8  C   UNL A   1      44.832 -17.298 -37.386  0.00  0.00    +0.001 C 
ATOM      9  C   UNL A   1      44.884 -18.814 -37.086  0.00  0.00    +0.113 C 
ATOM     10  C   UNL A   1      43.664 -19.506 -37.644  0.00  0.00    -0.000 C 
ATOM     11  C   UNL A   1      43.676 -19.945 -39.055  0.00  0.00    -0.068 C 
ATOM     12  C   UNL A   1      42.501 -21.635 -39.754  0.00  0.00    +0.045 C 
ATOM     13  C   UNL A   1      41.363 -22.249 -38.216  0.00  0.00    +0.240 C 
ATOM     14  O   UNL A   1      40.584 -23.193 -38.334  0.00  0.00    -0.273 OA
ATOM     15  N   UNL A   1      41.528 -21.383 -36.731  0.00  0.00    -0.185 NA
ATOM     16  C   UNL A   1      42.438 -20.289 -36.478  0.00  0.00    +0.040 C 
ATOM     17  C   UNL A   1      42.431 -19.594 -35.129  0.00  0.00    -0.002 C 
ENDROOT
BRANCH   9  18
ATOM     18  N   UNL A   1      46.119 -19.414 -37.605  0.00  0.00    -0.275 NA
ATOM     19  C   UNL A   1      46.832 -19.669 -38.621  0.00  0.00    +0.027 C 
BRANCH  19  20
ATOM     20  C   UNL A   1      46.926 -19.473 -40.156  0.00  0.00    -0.029 C 
ATOM     21  C   UNL A   1      46.508 -18.436 -40.935  0.00  0.00    -0.050 C 
BRANCH  21  22
ATOM     22  C   UNL A   1      46.168 -17.053 -40.480  0.00  0.00    -0.025 A 
ATOM     23  C   UNL A   1      44.466 -16.707 -40.799  0.00  0.00    -0.055 A 
ATOM     24  C   UNL A   1      43.903 -15.277 -41.606  0.00  0.00    -0.061 A 
ATOM     25  C   UNL A   1      45.120 -14.057 -41.997  0.00  0.00    -0.062 A 
ATOM     26  C   UNL A   1      47.028 -14.427 -41.483  0.00  0.00    -0.061 A 
ATOM     27  C   UNL A   1      47.442 -15.946 -40.740  0.00  0.00    -0.055 A 
ENDBRANCH  21  22
BRANCH  20  28
ATOM     28  C   UNL A   1      47.464 -20.773 -40.765  0.00  0.00    -0.026 C 
BRANCH  28  29
ATOM     29  C   UNL A   1      46.481 -21.943 -40.928  0.00  0.00    -0.049 C 
BRANCH  29  30
ATOM     30  C   UNL A   1      46.084 -22.207 -42.386  0.00  0.00    -0.053 C 
BRANCH  30  31
ATOM     31  C   UNL A   1      44.634 -21.794 -42.645  0.00  0.00    -0.056 C 
ATOM     32  C   UNL A   1      44.536 -20.351 -43.112  0.00  0.00    -0.065 C 
ENDBRANCH  30  31
ENDBRANCH  29  30
ENDBRANCH  28  29
ENDBRANCH  20  28
ENDBRANCH  19  20
ENDBRANCH   9  18
TORSDOF 7
ENDMDL
MODEL 12
REMARK VINA RESULT:    -6.628     18.810     22.676
REMARK INTER + INTRA:         -11.772
REMARK INTER:                  -9.996
REMARK INTRA:                  -1.776
REMARK UNBOUND:                -2.625
REMARK  Name = cpd112.pdb
REMARK  10 active torsions:
REMARK  status: ('A' for Active; 'I' for Inactive)
REMARK    1  A    between atoms: C_1  and  C_2
REMARK    2  A    between atoms: C_6  and  C_7
REMARK    3  A    between atoms: C_9  and  N_10
REMARK    4  A    between atoms: C_11  and  C_12
REMARK    5  A    between atoms: C_12  and  C_20
REMARK    6  A    between atoms: C_13  and  C_14
REMARK    7  A    between atoms: C_20  and  C_21
REMARK    8  A    between atoms: C_21  and  C_22
REMARK    9  A    between atoms: C_22  and  C_23
REMARK   10  A    between atoms: C_23  and  C_24
REMARK                            x       y       z     vdW  Elec       q    Type
REMARK                         _______ _______ _______ _____ _____    ______ ____
ROOT
ATOM      1  C   UNL A   1      31.279 -38.293 -31.297  0.00  0.00    -0.046 C 
ATOM      2  C   UNL A   1      30.820 -37.600 -30.057  0.00  0.00    -0.085 C 
ATOM      3  C   UNL A   1      31.553 -36.870 -29.186  0.00  0.00    -0.035 C 
ATOM      4  C   UNL A   1      30.858 -36.246 -27.974  0.00  0.00    +0.006 C 
ATOM      5  C   UNL A   1      31.673 -36.440 -26.704  0.00  0.00    -0.077 C 
ATOM      6  C   UNL A   1      32.938 -36.906 -26.678  0.00  0.00    -0.073 C 
ATOM      7  C   UNL A   1      33.680 -37.163 -25.400  0.00  0.00    -0.044 C 
ATOM      8  C   UNL A   1      33.698 -37.195 -27.967  0.00  0.00    +0.001 C 
ATOM      9  C   UNL A   1      33.057 -36.520 -29.203  0.00  0.00    +0.113 C 
ATOM     10  C   UNL A   1      33.165 -35.019 -29.102  0.00  0.00    -0.000 C 
ATOM     11  C   UNL A   1      34.398 -34.357 -29.577  0.00  0.00    -0.068 C 
ATOM     12  C   UNL A   1      34.407 -32.316 -30.323  0.00  0.00    +0.045 C 
ATOM     13  C   UNL A   1      32.564 -31.567 -30.039  0.00  0.00    +0.240 C 
ATOM     14  O   UNL A   1      32.285 -30.414 -30.362  0.00  0.00    -0.273 OA
ATOM     15  N   UNL A   1      31.401 -32.618 -29.313  0.00  0.00    -0.185 NA
ATOM     16  C   UNL A   1      31.615 -33.996 -28.934  0.00  0.00    +0.040 C 
ATOM     17  C   UNL A   1      30.504 -34.777 -28.258  0.00  0.00    -0.002 C 
ENDROOT
BRANCH   9  18
ATOM     18  N   UNL A   1      33.661 -37.014 -30.447  0.00  0.00    -0.275 NA
ATOM     19  C   UNL A   1      34.689 -37.493 -31.013  0.00  0.00    +0.027 C 
BRANCH  19  20
ATOM     20  C   UNL A   1      36.140 -37.973 -30.758  0.00  0.00    -0.029 C 
ATOM     21  C   UNL A   1      36.601 -39.181 -30.326  0.00  0.00    -0.050 C 
BRANCH  21  22
ATOM     22  C   UNL A   1      35.855 -40.476 -30.325  0.00  0.00    -0.025 A 
ATOM     23  C   UNL A   1      35.564 -41.014 -31.982  0.00  0.00    -0.055 A 
ATOM     24  C   UNL A   1      34.012 -41.512 -32.581  0.00  0.00    -0.061 A 
ATOM     25  C   UNL A   1      32.700 -41.600 -31.401  0.00  0.00    -0.062 A 
ATOM     26  C   UNL A   1      33.111 -41.120 -29.492  0.00  0.00    -0.061 A 
ATOM     27  C   UNL A   1      34.706 -40.570 -29.065  0.00  0.00    -0.055 A 
ENDBRANCH  21  22
BRANCH  20  28
ATOM     28  C   UNL A   1      37.072 -36.767 -30.923  0.00  0.00    -0.026 C 
BRANCH  28  29
ATOM     29  C   UNL A   1      38.478 -36.863 -30.310  0.00  0.00    -0.049 C 
BRANCH  29  30
ATOM     30  C   UNL A   1      39.525 -36.020 -31.049  0.00  0.00    -0.053 C 
BRANCH  30  31
ATOM     31  C   UNL A   1      39.242 -35.986 -32.552  0.00  0.00    -0.056 C 
ATOM     32  C   UNL A   1      40.522 -36.074 -33.366  0.00  0.00    -0.065 C 
ENDBRANCH  30  31
ENDBRANCH  29  30
ENDBRANCH  28  29
ENDBRANCH  20  28
ENDBRANCH  19  20
ENDBRANCH   9  18
TORSDOF 7
ENDMDL
MODEL 13
REMARK VINA RESULT:    -6.589     18.970     22.582
REMARK INTER + INTRA:         -11.719
REMARK INTER:                 -10.199
REMARK INTRA:                  -1.520
REMARK UNBOUND:                -2.625
REMARK  Name = cpd112.pdb
REMARK  10 active torsions:
REMARK  status: ('A' for Active; 'I' for Inactive)
REMARK    1  A    between atoms: C_1  and  C_2
REMARK    2  A    between atoms: C_6  and  C_7
REMARK    3  A    between atoms: C_9  and  N_10
REMARK    4  A    between atoms: C_11  and  C_12
REMARK    5  A    between atoms: C_12  and  C_20
REMARK    6  A    between atoms: C_13  and  C_14
REMARK    7  A    between atoms: C_20  and  C_21
REMARK    8  A    between atoms: C_21  and  C_22
REMARK    9  A    between atoms: C_22  and  C_23
REMARK   10  A    between atoms: C_23  and  C_24
REMARK                            x       y       z     vdW  Elec       q    Type
REMARK                         _______ _______ _______ _____ _____    ______ ____
ROOT
ATOM      1  C   UNL A   1      34.255 -39.668 -32.280  0.00  0.00    -0.046 C 
ATOM      2  C   UNL A   1      34.932 -40.421 -31.183  0.00  0.00    -0.085 C 
ATOM      3  C   UNL A   1      35.440 -39.939 -30.026  0.00  0.00    -0.035 C 
ATOM      4  C   UNL A   1      36.092 -40.911 -29.042  0.00  0.00    +0.006 C 
ATOM      5  C   UNL A   1      37.400 -40.358 -28.496  0.00  0.00    -0.077 C 
ATOM      6  C   UNL A   1      37.826 -39.092 -28.683  0.00  0.00    -0.073 C 
ATOM      7  C   UNL A   1      39.160 -38.607 -28.202  0.00  0.00    -0.044 C 
ATOM      8  C   UNL A   1      36.954 -38.067 -29.399  0.00  0.00    +0.001 C 
ATOM      9  C   UNL A   1      35.471 -38.494 -29.480  0.00  0.00    +0.113 C 
ATOM     10  C   UNL A   1      34.853 -38.528 -28.104  0.00  0.00    -0.000 C 
ATOM     11  C   UNL A   1      34.299 -37.279 -27.539  0.00  0.00    -0.068 C 
ATOM     12  C   UNL A   1      32.676 -37.279 -26.094  0.00  0.00    +0.045 C 
ATOM     13  C   UNL A   1      32.302 -39.194 -25.614  0.00  0.00    +0.240 C 
ATOM     14  O   UNL A   1      31.430 -39.491 -24.800  0.00  0.00    -0.273 OA
ATOM     15  N   UNL A   1      33.270 -40.395 -26.392  0.00  0.00    -0.185 NA
ATOM     16  C   UNL A   1      34.290 -40.154 -27.388  0.00  0.00    +0.040 C 
ATOM     17  C   UNL A   1      35.092 -41.315 -27.945  0.00  0.00    -0.002 C 
ENDROOT
BRANCH   9  18
ATOM     18  N   UNL A   1      34.715 -37.614 -30.380  0.00  0.00    -0.275 NA
ATOM     19  C   UNL A   1      34.459 -36.426 -30.738  0.00  0.00    +0.027 C 
BRANCH  19  20
ATOM     20  C   UNL A   1      34.828 -34.942 -30.482  0.00  0.00    -0.029 C 
ATOM     21  C   UNL A   1      34.036 -33.834 -30.457  0.00  0.00    -0.050 C 
BRANCH  21  22
ATOM     22  C   UNL A   1      32.548 -33.798 -30.318  0.00  0.00    -0.025 A 
ATOM     23  C   UNL A   1      31.835 -32.852 -31.627  0.00  0.00    -0.055 A 
ATOM     24  C   UNL A   1      30.677 -31.580 -31.385  0.00  0.00    -0.061 A 
ATOM     25  C   UNL A   1      30.102 -31.338 -29.732  0.00  0.00    -0.062 A 
ATOM     26  C   UNL A   1      30.831 -32.538 -28.292  0.00  0.00    -0.061 A 
ATOM     27  C   UNL A   1      32.044 -33.722 -28.688  0.00  0.00    -0.055 A 
ENDBRANCH  21  22
BRANCH  20  28
ATOM     28  C   UNL A   1      36.356 -34.844 -30.397  0.00  0.00    -0.026 C 
BRANCH  28  29
ATOM     29  C   UNL A   1      37.168 -35.295 -31.622  0.00  0.00    -0.049 C 
BRANCH  29  30
ATOM     30  C   UNL A   1      38.665 -34.981 -31.509  0.00  0.00    -0.053 C 
BRANCH  30  31
ATOM     31  C   UNL A   1      39.464 -36.234 -31.148  0.00  0.00    -0.056 C 
ATOM     32  C   UNL A   1      40.961 -35.970 -31.167  0.00  0.00    -0.065 C 
ENDBRANCH  30  31
ENDBRANCH  29  30
ENDBRANCH  28  29
ENDBRANCH  20  28
ENDBRANCH  19  20
ENDBRANCH   9  18
TORSDOF 7
ENDMDL
MODEL 14
REMARK VINA RESULT:    -6.535     19.730     23.652
REMARK INTER + INTRA:         -11.643
REMARK INTER:                  -9.696
REMARK INTRA:                  -1.947
REMARK UNBOUND:                -2.625
REMARK  Name = cpd112.pdb
REMARK  10 active torsions:
REMARK  status: ('A' for Active; 'I' for Inactive)
REMARK    1  A    between atoms: C_1  and  C_2
REMARK    2  A    between atoms: C_6  and  C_7
REMARK    3  A    between atoms: C_9  and  N_10
REMARK    4  A    between atoms: C_11  and  C_12
REMARK    5  A    between atoms: C_12  and  C_20
REMARK    6  A    between atoms: C_13  and  C_14
REMARK    7  A    between atoms: C_20  and  C_21
REMARK    8  A    between atoms: C_21  and  C_22
REMARK    9  A    between atoms: C_22  and  C_23
REMARK   10  A    between atoms: C_23  and  C_24
REMARK                            x       y       z     vdW  Elec       q    Type
REMARK                         _______ _______ _______ _____ _____    ______ ____
ROOT
ATOM      1  C   UNL A   1      36.209 -40.957 -29.693  0.00  0.00    -0.046 C 
ATOM      2  C   UNL A   1      35.289 -41.146 -28.533  0.00  0.00    -0.085 C 
ATOM      3  C   UNL A   1      34.415 -40.259 -28.005  0.00  0.00    -0.035 C 
ATOM      4  C   UNL A   1      33.565 -40.682 -26.805  0.00  0.00    +0.006 C 
ATOM      5  C   UNL A   1      33.524 -39.596 -25.740  0.00  0.00    -0.077 C 
ATOM      6  C   UNL A   1      33.993 -38.344 -25.915  0.00  0.00    -0.073 C 
ATOM      7  C   UNL A   1      34.012 -37.325 -24.814  0.00  0.00    -0.044 C 
ATOM      8  C   UNL A   1      34.530 -37.885 -27.266  0.00  0.00    +0.001 C 
ATOM      9  C   UNL A   1      34.094 -38.809 -28.427  0.00  0.00    +0.113 C 
ATOM     10  C   UNL A   1      32.602 -38.729 -28.636  0.00  0.00    -0.000 C 
ATOM     11  C   UNL A   1      32.057 -37.655 -29.494  0.00  0.00    -0.068 C 
ATOM     12  C   UNL A   1      30.194 -37.879 -30.591  0.00  0.00    +0.045 C 
ATOM     13  C   UNL A   1      29.383 -39.633 -30.041  0.00  0.00    +0.240 C 
ATOM     14  O   UNL A   1      28.309 -40.014 -30.502  0.00  0.00    -0.273 OA
ATOM     15  N   UNL A   1      30.263 -40.569 -28.886  0.00  0.00    -0.185 NA
ATOM     16  C   UNL A   1      31.547 -40.232 -28.315  0.00  0.00    +0.040 C 
ATOM     17  C   UNL A   1      32.172 -41.137 -27.270  0.00  0.00    -0.002 C 
ENDROOT
BRANCH   9  18
ATOM     18  N   UNL A   1      34.821 -38.485 -29.661  0.00  0.00    -0.275 NA
ATOM     19  C   UNL A   1      35.515 -37.636 -30.295  0.00  0.00    +0.027 C 
BRANCH  19  20
ATOM     20  C   UNL A   1      36.174 -36.237 -30.185  0.00  0.00    -0.029 C 
ATOM     21  C   UNL A   1      37.462 -35.854 -30.409  0.00  0.00    -0.050 C 
BRANCH  21  22
ATOM     22  C   UNL A   1      38.504 -36.615 -31.165  0.00  0.00    -0.025 A 
ATOM     23  C   UNL A   1      39.597 -37.431 -30.043  0.00  0.00    -0.055 A 
ATOM     24  C   UNL A   1      41.328 -37.337 -30.134  0.00  0.00    -0.061 A 
ATOM     25  C   UNL A   1      42.002 -36.476 -31.522  0.00  0.00    -0.062 A 
ATOM     26  C   UNL A   1      40.721 -35.686 -32.857  0.00  0.00    -0.061 A 
ATOM     27  C   UNL A   1      39.007 -35.806 -32.583  0.00  0.00    -0.055 A 
ENDBRANCH  21  22
BRANCH  20  28
ATOM     28  C   UNL A   1      35.138 -35.272 -29.597  0.00  0.00    -0.026 C 
BRANCH  28  29
ATOM     29  C   UNL A   1      34.233 -34.512 -30.579  0.00  0.00    -0.049 C 
BRANCH  29  30
ATOM     30  C   UNL A   1      32.909 -34.049 -29.956  0.00  0.00    -0.053 C 
BRANCH  30  31
ATOM     31  C   UNL A   1      32.979 -34.083 -28.428  0.00  0.00    -0.056 C 
ATOM     32  C   UNL A   1      31.626 -34.393 -27.811  0.00  0.00    -0.065 C 
ENDBRANCH  30  31
ENDBRANCH  29  30
ENDBRANCH  28  29
ENDBRANCH  20  28
ENDBRANCH  19  20
ENDBRANCH   9  18
TORSDOF 7
ENDMDL
MODEL 15
REMARK VINA RESULT:    -6.525      3.401      7.272
REMARK INTER + INTRA:         -11.630
REMARK INTER:                  -9.036
REMARK INTRA:                  -2.594
REMARK UNBOUND:                -2.625
REMARK  Name = cpd112.pdb
REMARK  10 active torsions:
REMARK  status: ('A' for Active; 'I' for Inactive)
REMARK    1  A    between atoms: C_1  and  C_2
REMARK    2  A    between atoms: C_6  and  C_7
REMARK    3  A    between atoms: C_9  and  N_10
REMARK    4  A    between atoms: C_11  and  C_12
REMARK    5  A    between atoms: C_12  and  C_20
REMARK    6  A    between atoms: C_13  and  C_14
REMARK    7  A    between atoms: C_20  and  C_21
REMARK    8  A    between atoms: C_21  and  C_22
REMARK    9  A    between atoms: C_22  and  C_23
REMARK   10  A    between atoms: C_23  and  C_24
REMARK                            x       y       z     vdW  Elec       q    Type
REMARK                         _______ _______ _______ _____ _____    ______ ____
ROOT
ATOM      1  C   UNL A   1      42.091 -20.787 -38.173  0.00  0.00    -0.046 C 
ATOM      2  C   UNL A   1      42.917 -20.868 -36.932  0.00  0.00    -0.085 C 
ATOM      3  C   UNL A   1      43.637 -19.887 -36.341  0.00  0.00    -0.035 C 
ATOM      4  C   UNL A   1      44.411 -20.207 -35.060  0.00  0.00    +0.006 C 
ATOM      5  C   UNL A   1      45.815 -19.624 -35.098  0.00  0.00    -0.077 C 
ATOM      6  C   UNL A   1      46.253 -18.758 -36.035  0.00  0.00    -0.073 C 
ATOM      7  C   UNL A   1      47.670 -18.270 -36.087  0.00  0.00    -0.044 C 
ATOM      8  C   UNL A   1      45.313 -18.214 -37.105  0.00  0.00    +0.001 C 
ATOM      9  C   UNL A   1      43.822 -18.409 -36.745  0.00  0.00    +0.113 C 
ATOM     10  C   UNL A   1      43.453 -17.572 -35.545  0.00  0.00    -0.000 C 
ATOM     11  C   UNL A   1      43.057 -16.162 -35.752  0.00  0.00    -0.068 C 
ATOM     12  C   UNL A   1      41.712 -15.125 -34.397  0.00  0.00    +0.045 C 
ATOM     13  C   UNL A   1      41.350 -16.358 -32.852  0.00  0.00    +0.240 C 
ATOM     14  O   UNL A   1      40.621 -16.020 -31.921  0.00  0.00    -0.273 OA
ATOM     15  N   UNL A   1      42.117 -17.905 -32.895  0.00  0.00    -0.185 NA
ATOM     16  C   UNL A   1      42.956 -18.411 -33.957  0.00  0.00    +0.040 C 
ATOM     17  C   UNL A   1      43.602 -19.778 -33.825  0.00  0.00    -0.002 C 
ENDROOT
BRANCH   9  18
ATOM     18  N   UNL A   1      42.958 -18.103 -37.892  0.00  0.00    -0.275 NA
ATOM     19  C   UNL A   1      42.886 -17.850 -39.132  0.00  0.00    +0.027 C 
BRANCH  19  20
ATOM     20  C   UNL A   1      43.729 -17.716 -40.426  0.00  0.00    -0.029 C 
ATOM     21  C   UNL A   1      44.503 -18.636 -41.068  0.00  0.00    -0.050 C 
BRANCH  21  22
ATOM     22  C   UNL A   1      44.461 -20.120 -40.894  0.00  0.00    -0.025 A 
ATOM     23  C   UNL A   1      45.567 -20.615 -39.610  0.00  0.00    -0.055 A 
ATOM     24  C   UNL A   1      46.743 -21.882 -39.778  0.00  0.00    -0.061 A 
ATOM     25  C   UNL A   1      46.710 -22.796 -41.290  0.00  0.00    -0.062 A 
ATOM     26  C   UNL A   1      45.335 -22.294 -42.668  0.00  0.00    -0.061 A 
ATOM     27  C   UNL A   1      44.271 -20.948 -42.375  0.00  0.00    -0.055 A 
ENDBRANCH  21  22
BRANCH  20  28
ATOM     28  C   UNL A   1      43.704 -16.244 -40.854  0.00  0.00    -0.026 C 
BRANCH  28  29
ATOM     29  C   UNL A   1      45.047 -15.502 -40.935  0.00  0.00    -0.049 C 
BRANCH  29  30
ATOM     30  C   UNL A   1      45.788 -15.434 -39.593  0.00  0.00    -0.053 C 
BRANCH  30  31
ATOM     31  C   UNL A   1      47.135 -16.154 -39.671  0.00  0.00    -0.056 C 
ATOM     32  C   UNL A   1      47.487 -16.533 -41.101  0.00  0.00    -0.065 C 
ENDBRANCH  30  31
ENDBRANCH  29  30
ENDBRANCH  28  29
ENDBRANCH  20  28
ENDBRANCH  19  20
ENDBRANCH   9  18
TORSDOF 7
ENDMDL
MODEL 16
REMARK VINA RESULT:    -6.523     18.931     22.760
REMARK INTER + INTRA:         -11.627
REMARK INTER:                 -10.194
REMARK INTRA:                  -1.433
REMARK UNBOUND:                -2.625
REMARK  Name = cpd112.pdb
REMARK  10 active torsions:
REMARK  status: ('A' for Active; 'I' for Inactive)
REMARK    1  A    between atoms: C_1  and  C_2
REMARK    2  A    between atoms: C_6  and  C_7
REMARK    3  A    between atoms: C_9  and  N_10
REMARK    4  A    between atoms: C_11  and  C_12
REMARK    5  A    between atoms: C_12  and  C_20
REMARK    6  A    between atoms: C_13  and  C_14
REMARK    7  A    between atoms: C_20  and  C_21
REMARK    8  A    between atoms: C_21  and  C_22
REMARK    9  A    between atoms: C_22  and  C_23
REMARK   10  A    between atoms: C_23  and  C_24
REMARK                            x       y       z     vdW  Elec       q    Type
REMARK                         _______ _______ _______ _____ _____    ______ ____
ROOT
ATOM      1  C   UNL A   1      32.181 -35.842 -26.786  0.00  0.00    -0.046 C 
ATOM      2  C   UNL A   1      32.098 -34.765 -27.817  0.00  0.00    -0.085 C 
ATOM      3  C   UNL A   1      32.727 -34.701 -29.012  0.00  0.00    -0.035 C 
ATOM      4  C   UNL A   1      32.484 -33.488 -29.912  0.00  0.00    +0.006 C 
ATOM      5  C   UNL A   1      33.783 -32.965 -30.506  0.00  0.00    -0.077 C 
ATOM      6  C   UNL A   1      34.966 -33.608 -30.428  0.00  0.00    -0.073 C 
ATOM      7  C   UNL A   1      36.243 -33.022 -30.952  0.00  0.00    -0.044 C 
ATOM      8  C   UNL A   1      35.070 -34.993 -29.799  0.00  0.00    +0.001 C 
ATOM      9  C   UNL A   1      33.700 -35.699 -29.678  0.00  0.00    +0.113 C 
ATOM     10  C   UNL A   1      33.144 -36.013 -31.045  0.00  0.00    -0.000 C 
ATOM     11  C   UNL A   1      33.555 -37.268 -31.711  0.00  0.00    -0.068 C 
ATOM     12  C   UNL A   1      32.282 -38.289 -33.147  0.00  0.00    +0.045 C 
ATOM     13  C   UNL A   1      30.678 -37.120 -33.463  0.00  0.00    +0.240 C 
ATOM     14  O   UNL A   1      29.790 -37.451 -34.246  0.00  0.00    -0.273 OA
ATOM     15  N   UNL A   1      30.615 -35.632 -32.588  0.00  0.00    -0.185 NA
ATOM     16  C   UNL A   1      31.583 -35.171 -31.619  0.00  0.00    +0.040 C 
ATOM     17  C   UNL A   1      31.414 -33.811 -30.968  0.00  0.00    -0.002 C 
ENDROOT
BRANCH   9  18
ATOM     18  N   UNL A   1      33.800 -36.910 -28.853  0.00  0.00    -0.275 NA
ATOM     19  C   UNL A   1      34.291 -38.070 -28.724  0.00  0.00    +0.027 C 
BRANCH  19  20
ATOM     20  C   UNL A   1      35.246 -39.098 -29.384  0.00  0.00    -0.029 C 
ATOM     21  C   UNL A   1      36.534 -38.955 -29.803  0.00  0.00    -0.050 C 
BRANCH  21  22
ATOM     22  C   UNL A   1      37.488 -37.871 -29.414  0.00  0.00    -0.025 A 
ATOM     23  C   UNL A   1      37.899 -36.887 -30.821  0.00  0.00    -0.055 A 
ATOM     24  C   UNL A   1      39.525 -36.489 -31.284  0.00  0.00    -0.061 A 
ATOM     25  C   UNL A   1      40.809 -37.003 -30.185  0.00  0.00    -0.062 A 
ATOM     26  C   UNL A   1      40.284 -37.995 -28.516  0.00  0.00    -0.061 A 
ATOM     27  C   UNL A   1      38.610 -38.379 -28.232  0.00  0.00    -0.055 A 
ENDBRANCH  21  22
BRANCH  20  28
ATOM     28  C   UNL A   1      34.442 -40.372 -29.669  0.00  0.00    -0.026 C 
BRANCH  28  29
ATOM     29  C   UNL A   1      34.948 -41.687 -29.054  0.00  0.00    -0.049 C 
BRANCH  29  30
ATOM     30  C   UNL A   1      33.882 -42.789 -29.011  0.00  0.00    -0.053 C 
BRANCH  30  31
ATOM     31  C   UNL A   1      33.395 -43.028 -27.580  0.00  0.00    -0.056 C 
ATOM     32  C   UNL A   1      34.290 -44.008 -26.840  0.00  0.00    -0.065 C 
ENDBRANCH  30  31
ENDBRANCH  29  30
ENDBRANCH  28  29
ENDBRANCH  20  28
ENDBRANCH  19  20
ENDBRANCH   9  18
TORSDOF 7
ENDMDL
MODEL 17
REMARK VINA RESULT:    -6.523      3.227      6.240
REMARK INTER + INTRA:         -11.626
REMARK INTER:                  -9.410
REMARK INTRA:                  -2.217
REMARK UNBOUND:                -2.625
REMARK  Name = cpd112.pdb
REMARK  10 active torsions:
REMARK  status: ('A' for Active; 'I' for Inactive)
REMARK    1  A    between atoms: C_1  and  C_2
REMARK    2  A    between atoms: C_6  and  C_7
REMARK    3  A    between atoms: C_9  and  N_10
REMARK    4  A    between atoms: C_11  and  C_12
REMARK    5  A    between atoms: C_12  and  C_20
REMARK    6  A    between atoms: C_13  and  C_14
REMARK    7  A    between atoms: C_20  and  C_21
REMARK    8  A    between atoms: C_21  and  C_22
REMARK    9  A    between atoms: C_22  and  C_23
REMARK   10  A    between atoms: C_23  and  C_24
REMARK                            x       y       z     vdW  Elec       q    Type
REMARK                         _______ _______ _______ _____ _____    ______ ____
ROOT
ATOM      1  C   UNL A   1      42.330 -16.840 -39.766  0.00  0.00    -0.046 C 
ATOM      2  C   UNL A   1      43.248 -16.381 -38.682  0.00  0.00    -0.085 C 
ATOM      3  C   UNL A   1      44.586 -16.557 -38.588  0.00  0.00    -0.035 C 
ATOM      4  C   UNL A   1      45.324 -15.990 -37.373  0.00  0.00    +0.006 C 
ATOM      5  C   UNL A   1      46.320 -16.992 -36.809  0.00  0.00    -0.077 C 
ATOM      6  C   UNL A   1      46.667 -18.143 -37.419  0.00  0.00    -0.073 C 
ATOM      7  C   UNL A   1      47.589 -19.146 -36.793  0.00  0.00    -0.044 C 
ATOM      8  C   UNL A   1      46.139 -18.489 -38.807  0.00  0.00    +0.001 C 
ATOM      9  C   UNL A   1      45.566 -17.261 -39.552  0.00  0.00    +0.113 C 
ATOM     10  C   UNL A   1      46.662 -16.274 -39.868  0.00  0.00    -0.000 C 
ATOM     11  C   UNL A   1      47.453 -16.457 -41.103  0.00  0.00    -0.068 C 
ATOM     12  C   UNL A   1      48.380 -14.789 -42.145  0.00  0.00    +0.045 C 
ATOM     13  C   UNL A   1      48.100 -13.149 -41.018  0.00  0.00    +0.240 C 
ATOM     14  O   UNL A   1      48.535 -12.053 -41.364  0.00  0.00    -0.273 OA
ATOM     15  N   UNL A   1      47.229 -13.359 -39.541  0.00  0.00    -0.185 NA
ATOM     16  C   UNL A   1      46.646 -14.592 -39.063  0.00  0.00    +0.040 C 
ATOM     17  C   UNL A   1      45.950 -14.628 -37.715  0.00  0.00    -0.002 C 
ENDROOT
BRANCH   9  18
ATOM     18  N   UNL A   1      44.850 -17.667 -40.768  0.00  0.00    -0.275 NA
ATOM     19  C   UNL A   1      44.402 -18.623 -41.469  0.00  0.00    +0.027 C 
BRANCH  19  20
ATOM     20  C   UNL A   1      44.248 -20.164 -41.518  0.00  0.00    -0.029 C 
ATOM     21  C   UNL A   1      43.606 -21.009 -40.663  0.00  0.00    -0.050 C 
BRANCH  21  22
ATOM     22  C   UNL A   1      42.577 -20.640 -39.643  0.00  0.00    -0.025 A 
ATOM     23  C   UNL A   1      43.356 -20.216 -38.116  0.00  0.00    -0.055 A 
ATOM     24  C   UNL A   1      42.894 -20.874 -36.577  0.00  0.00    -0.061 A 
ATOM     25  C   UNL A   1      41.472 -21.922 -36.559  0.00  0.00    -0.062 A 
ATOM     26  C   UNL A   1      40.526 -22.262 -38.300  0.00  0.00    -0.061 A 
ATOM     27  C   UNL A   1      41.158 -21.582 -39.773  0.00  0.00    -0.055 A 
ENDBRANCH  21  22
BRANCH  20  28
ATOM     28  C   UNL A   1      45.111 -20.688 -42.672  0.00  0.00    -0.026 C 
BRANCH  28  29
ATOM     29  C   UNL A   1      45.253 -22.211 -42.821  0.00  0.00    -0.049 C 
BRANCH  29  30
ATOM     30  C   UNL A   1      46.483 -22.782 -42.103  0.00  0.00    -0.053 C 
BRANCH  30  31
ATOM     31  C   UNL A   1      47.518 -21.689 -41.832  0.00  0.00    -0.056 C 
ATOM     32  C   UNL A   1      47.941 -21.667 -40.372  0.00  0.00    -0.065 C 
ENDBRANCH  30  31
ENDBRANCH  29  30
ENDBRANCH  28  29
ENDBRANCH  20  28
ENDBRANCH  19  20
ENDBRANCH   9  18
TORSDOF 7
ENDMDL
MODEL 18
REMARK VINA RESULT:    -6.396      2.794      5.957
REMARK INTER + INTRA:         -11.451
REMARK INTER:                  -9.498
REMARK INTRA:                  -1.953
REMARK UNBOUND:                -2.625
REMARK  Name = cpd112.pdb
REMARK  10 active torsions:
REMARK  status: ('A' for Active; 'I' for Inactive)
REMARK    1  A    between atoms: C_1  and  C_2
REMARK    2  A    between atoms: C_6  and  C_7
REMARK    3  A    between atoms: C_9  and  N_10
REMARK    4  A    between atoms: C_11  and  C_12
REMARK    5  A    between atoms: C_12  and  C_20
REMARK    6  A    between atoms: C_13  and  C_14
REMARK    7  A    between atoms: C_20  and  C_21
REMARK    8  A    between atoms: C_21  and  C_22
REMARK    9  A    between atoms: C_22  and  C_23
REMARK   10  A    between atoms: C_23  and  C_24
REMARK                            x       y       z     vdW  Elec       q    Type
REMARK                         _______ _______ _______ _____ _____    ______ ____
ROOT
ATOM      1  C   UNL A   1      44.176 -16.808 -41.322  0.00  0.00    -0.046 C 
ATOM      2  C   UNL A   1      44.269 -18.237 -41.742  0.00  0.00    -0.085 C 
ATOM      3  C   UNL A   1      44.593 -19.312 -40.987  0.00  0.00    -0.035 C 
ATOM      4  C   UNL A   1      44.621 -20.695 -41.641  0.00  0.00    +0.006 C 
ATOM      5  C   UNL A   1      45.853 -21.483 -41.225  0.00  0.00    -0.077 C 
ATOM      6  C   UNL A   1      46.700 -21.107 -40.245  0.00  0.00    -0.073 C 
ATOM      7  C   UNL A   1      47.951 -21.867 -39.919  0.00  0.00    -0.044 C 
ATOM      8  C   UNL A   1      46.422 -19.872 -39.396  0.00  0.00    +0.001 C 
ATOM      9  C   UNL A   1      44.952 -19.401 -39.488  0.00  0.00    +0.113 C 
ATOM     10  C   UNL A   1      44.029 -20.423 -38.872  0.00  0.00    -0.000 C 
ATOM     11  C   UNL A   1      43.786 -20.379 -37.414  0.00  0.00    -0.068 C 
ATOM     12  C   UNL A   1      41.939 -21.101 -36.523  0.00  0.00    +0.045 C 
ATOM     13  C   UNL A   1      40.855 -21.941 -37.992  0.00  0.00    +0.240 C 
ATOM     14  O   UNL A   1      39.757 -22.447 -37.767  0.00  0.00    -0.273 OA
ATOM     15  N   UNL A   1      41.544 -21.925 -39.575  0.00  0.00    -0.185 NA
ATOM     16  C   UNL A   1      42.805 -21.325 -39.951  0.00  0.00    +0.040 C 
ATOM     17  C   UNL A   1      43.300 -21.437 -41.380  0.00  0.00    -0.002 C 
ENDROOT
BRANCH   9  18
ATOM     18  N   UNL A   1      44.778 -18.084 -38.864  0.00  0.00    -0.275 NA
ATOM     19  C   UNL A   1      45.225 -17.230 -38.041  0.00  0.00    +0.027 C 
BRANCH  19  20
ATOM     20  C   UNL A   1      46.391 -16.935 -37.063  0.00  0.00    -0.029 C 
ATOM     21  C   UNL A   1      47.341 -15.959 -37.100  0.00  0.00    -0.050 C 
BRANCH  21  22
ATOM     22  C   UNL A   1      47.298 -14.697 -37.899  0.00  0.00    -0.025 A 
ATOM     23  C   UNL A   1      48.421 -14.796 -39.258  0.00  0.00    -0.055 A 
ATOM     24  C   UNL A   1      49.591 -13.572 -39.641  0.00  0.00    -0.061 A 
ATOM     25  C   UNL A   1      49.536 -12.094 -38.674  0.00  0.00    -0.062 A 
ATOM     26  C   UNL A   1      48.143 -11.962 -37.230  0.00  0.00    -0.061 A 
ATOM     27  C   UNL A   1      47.086 -13.310 -36.924  0.00  0.00    -0.055 A 
ENDBRANCH  21  22
BRANCH  20  28
ATOM     28  C   UNL A   1      46.441 -18.070 -36.033  0.00  0.00    -0.026 C 
BRANCH  28  29
ATOM     29  C   UNL A   1      45.719 -17.850 -34.694  0.00  0.00    -0.049 C 
BRANCH  29  30
ATOM     30  C   UNL A   1      45.125 -19.135 -34.104  0.00  0.00    -0.053 C 
BRANCH  30  31
ATOM     31  C   UNL A   1      43.622 -18.985 -33.861  0.00  0.00    -0.056 C 
ATOM     32  C   UNL A   1      43.059 -17.764 -34.570  0.00  0.00    -0.065 C 
ENDBRANCH  30  31
ENDBRANCH  29  30
ENDBRANCH  28  29
ENDBRANCH  20  28
ENDBRANCH  19  20
ENDBRANCH   9  18
TORSDOF 7
ENDMDL
MODEL 19
REMARK VINA RESULT:    -6.336      3.267      7.526
REMARK INTER + INTRA:         -11.369
REMARK INTER:                  -9.912
REMARK INTRA:                  -1.457
REMARK UNBOUND:                -2.625
REMARK  Name = cpd112.pdb
REMARK  10 active torsions:
REMARK  status: ('A' for Active; 'I' for Inactive)
REMARK    1  A    between atoms: C_1  and  C_2
REMARK    2  A    between atoms: C_6  and  C_7
REMARK    3  A    between atoms: C_9  and  N_10
REMARK    4  A    between atoms: C_11  and  C_12
REMARK    5  A    between atoms: C_12  and  C_20
REMARK    6  A    between atoms: C_13  and  C_14
REMARK    7  A    between atoms: C_20  and  C_21
REMARK    8  A    between atoms: C_21  and  C_22
REMARK    9  A    between atoms: C_22  and  C_23
REMARK   10  A    between atoms: C_23  and  C_24
REMARK                            x       y       z     vdW  Elec       q    Type
REMARK                         _______ _______ _______ _____ _____    ______ ____
ROOT
ATOM      1  C   UNL A   1      44.876 -19.667 -33.858  0.00  0.00    -0.046 C 
ATOM      2  C   UNL A   1      43.619 -19.109 -33.278  0.00  0.00    -0.085 C 
ATOM      3  C   UNL A   1      42.386 -19.070 -33.834  0.00  0.00    -0.035 C 
ATOM      4  C   UNL A   1      41.237 -18.444 -33.042  0.00  0.00    +0.006 C 
ATOM      5  C   UNL A   1      40.392 -17.528 -33.914  0.00  0.00    -0.077 C 
ATOM      6  C   UNL A   1      40.504 -17.441 -35.255  0.00  0.00    -0.073 C 
ATOM      7  C   UNL A   1      39.713 -16.465 -36.073  0.00  0.00    -0.044 C 
ATOM      8  C   UNL A   1      41.453 -18.352 -36.026  0.00  0.00    +0.001 C 
ATOM      9  C   UNL A   1      41.898 -19.585 -35.205  0.00  0.00    +0.113 C 
ATOM     10  C   UNL A   1      40.725 -20.498 -34.943  0.00  0.00    -0.000 C 
ATOM     11  C   UNL A   1      40.362 -21.505 -35.963  0.00  0.00    -0.068 C 
ATOM     12  C   UNL A   1      39.383 -23.376 -35.449  0.00  0.00    +0.045 C 
ATOM     13  C   UNL A   1      38.952 -23.307 -33.487  0.00  0.00    +0.240 C 
ATOM     14  O   UNL A   1      38.380 -24.238 -32.924  0.00  0.00    -0.273 OA
ATOM     15  N   UNL A   1      39.417 -21.876 -32.638  0.00  0.00    -0.185 NA
ATOM     16  C   UNL A   1      40.126 -20.746 -33.195  0.00  0.00    +0.040 C 
ATOM     17  C   UNL A   1      40.421 -19.536 -32.329  0.00  0.00    -0.002 C 
ENDROOT
BRANCH   9  18
ATOM     18  N   UNL A   1      42.989 -20.302 -35.877  0.00  0.00    -0.275 NA
ATOM     19  C   UNL A   1      43.858 -20.293 -36.799  0.00  0.00    +0.027 C 
BRANCH  19  20
ATOM     20  C   UNL A   1      44.456 -19.427 -37.937  0.00  0.00    -0.029 C 
ATOM     21  C   UNL A   1      45.001 -19.800 -39.129  0.00  0.00    -0.050 C 
BRANCH  21  22
ATOM     22  C   UNL A   1      44.844 -21.121 -39.811  0.00  0.00    -0.025 A 
ATOM     23  C   UNL A   1      46.335 -22.057 -39.679  0.00  0.00    -0.055 A 
ATOM     24  C   UNL A   1      47.124 -22.820 -41.025  0.00  0.00    -0.061 A 
ATOM     25  C   UNL A   1      46.286 -22.746 -42.579  0.00  0.00    -0.062 A 
ATOM     26  C   UNL A   1      44.516 -21.795 -42.654  0.00  0.00    -0.061 A 
ATOM     27  C   UNL A   1      43.892 -21.018 -41.226  0.00  0.00    -0.055 A 
ENDBRANCH  21  22
BRANCH  20  28
ATOM     28  C   UNL A   1      44.499 -17.973 -37.451  0.00  0.00    -0.026 C 
BRANCH  28  29
ATOM     29  C   UNL A   1      45.652 -17.566 -36.521  0.00  0.00    -0.049 C 
BRANCH  29  30
ATOM     30  C   UNL A   1      47.039 -17.884 -37.095  0.00  0.00    -0.053 C 
BRANCH  30  31
ATOM     31  C   UNL A   1      47.756 -18.938 -36.250  0.00  0.00    -0.056 C 
ATOM     32  C   UNL A   1      48.468 -18.314 -35.060  0.00  0.00    -0.065 C 
ENDBRANCH  30  31
ENDBRANCH  29  30
ENDBRANCH  28  29
ENDBRANCH  20  28
ENDBRANCH  19  20
ENDBRANCH   9  18
TORSDOF 7
ENDMDL
MODEL 20
REMARK VINA RESULT:    -5.702      2.853      6.668
REMARK INTER + INTRA:         -10.494
REMARK INTER:                  -8.656
REMARK INTRA:                  -1.837
REMARK UNBOUND:                -2.625
REMARK  Name = cpd112.pdb
REMARK  10 active torsions:
REMARK  status: ('A' for Active; 'I' for Inactive)
REMARK    1  A    between atoms: C_1  and  C_2
REMARK    2  A    between atoms: C_6  and  C_7
REMARK    3  A    between atoms: C_9  and  N_10
REMARK    4  A    between atoms: C_11  and  C_12
REMARK    5  A    between atoms: C_12  and  C_20
REMARK    6  A    between atoms: C_13  and  C_14
REMARK    7  A    between atoms: C_20  and  C_21
REMARK    8  A    between atoms: C_21  and  C_22
REMARK    9  A    between atoms: C_22  and  C_23
REMARK   10  A    between atoms: C_23  and  C_24
REMARK                            x       y       z     vdW  Elec       q    Type
REMARK                         _______ _______ _______ _____ _____    ______ ____
ROOT
ATOM      1  C   UNL A   1      41.540 -16.007 -36.550  0.00  0.00    -0.046 C 
ATOM      2  C   UNL A   1      41.916 -16.400 -35.160  0.00  0.00    -0.085 C 
ATOM      3  C   UNL A   1      42.455 -17.565 -34.737  0.00  0.00    -0.035 C 
ATOM      4  C   UNL A   1      42.762 -17.742 -33.248  0.00  0.00    +0.006 C 
ATOM      5  C   UNL A   1      42.314 -19.106 -32.745  0.00  0.00    -0.077 C 
ATOM      6  C   UNL A   1      41.900 -20.111 -33.543  0.00  0.00    -0.073 C 
ATOM      7  C   UNL A   1      41.386 -21.413 -33.006  0.00  0.00    -0.044 C 
ATOM      8  C   UNL A   1      41.940 -19.978 -35.062  0.00  0.00    +0.001 C 
ATOM      9  C   UNL A   1      42.853 -18.825 -35.537  0.00  0.00    +0.113 C 
ATOM     10  C   UNL A   1      44.296 -19.122 -35.208  0.00  0.00    -0.000 C 
ATOM     11  C   UNL A   1      45.092 -19.932 -36.154  0.00  0.00    -0.068 C 
ATOM     12  C   UNL A   1      47.248 -19.726 -36.330  0.00  0.00    +0.045 C 
ATOM     13  C   UNL A   1      47.846 -18.451 -34.896  0.00  0.00    +0.240 C 
ATOM     14  O   UNL A   1      49.031 -18.157 -34.755  0.00  0.00    -0.273 OA
ATOM     15  N   UNL A   1      46.617 -17.800 -33.871  0.00  0.00    -0.185 NA
ATOM     16  C   UNL A   1      45.197 -18.050 -33.978  0.00  0.00    +0.040 C 
ATOM     17  C   UNL A   1      44.243 -17.440 -32.967  0.00  0.00    -0.002 C 
ENDROOT
BRANCH   9  18
ATOM     18  N   UNL A   1      42.678 -18.569 -36.972  0.00  0.00    -0.275 NA
ATOM     19  C   UNL A   1      42.456 -19.057 -38.120  0.00  0.00    +0.027 C 
BRANCH  19  20
ATOM     20  C   UNL A   1      42.147 -20.377 -38.873  0.00  0.00    -0.029 C 
ATOM     21  C   UNL A   1      40.994 -21.100 -38.937  0.00  0.00    -0.050 C 
BRANCH  21  22
ATOM     22  C   UNL A   1      39.619 -20.628 -38.589  0.00  0.00    -0.025 A 
ATOM     23  C   UNL A   1      39.116 -19.349 -39.697  0.00  0.00    -0.055 A 
ATOM     24  C   UNL A   1      38.458 -17.826 -39.184  0.00  0.00    -0.061 A 
ATOM     25  C   UNL A   1      38.165 -17.633 -37.452  0.00  0.00    -0.062 A 
ATOM     26  C   UNL A   1      38.617 -19.173 -36.240  0.00  0.00    -0.061 A 
ATOM     27  C   UNL A   1      39.338 -20.611 -36.905  0.00  0.00    -0.055 A 
ENDBRANCH  21  22
BRANCH  20  28
ATOM     28  C   UNL A   1      43.459 -20.896 -39.472  0.00  0.00    -0.026 C 
BRANCH  28  29
ATOM     29  C   UNL A   1      44.487 -19.857 -39.947  0.00  0.00    -0.049 C 
BRANCH  29  30
ATOM     30  C   UNL A   1      45.734 -20.481 -40.586  0.00  0.00    -0.053 C 
BRANCH  30  31
ATOM     31  C   UNL A   1      45.454 -21.908 -41.058  0.00  0.00    -0.056 C 
ATOM     32  C   UNL A   1      45.187 -21.963 -42.554  0.00  0.00    -0.065 C 
ENDBRANCH  30  31
ENDBRANCH  29  30
ENDBRANCH  28  29
ENDBRANCH  20  28
ENDBRANCH  19  20
ENDBRANCH   9  18
TORSDOF 7
ENDMDL
