MODEL 1
REMARK VINA RESULT:    -3.482      0.000      0.000
REMARK INTER + INTRA:          -1.926
REMARK INTER:                  -3.584
REMARK INTRA:                   1.657
REMARK UNBOUND:                 1.657
REMARK  Name = cpd215.pdb
REMARK  6 active torsions:
REMARK  status: ('A' for Active; 'I' for Inactive)
REMARK    1  A    between atoms: C_1  and  N_2
REMARK    2  A    between atoms: N_2  and  C_3
REMARK    3  A    between atoms: N_2  and  C_4
REMARK    4  A    between atoms: N_2  and  C_5
REMARK    5  A    between atoms: C_5  and  C_6
REMARK    6  A    between atoms: C_6  and  S_7
REMARK                            x       y       z     vdW  Elec       q    Type
REMARK                         _______ _______ _______ _____ _____    ______ ____
ROOT
ATOM      1  C   UNL     1      49.083 -39.867 -30.904  0.00  0.00    -0.101 C 
ATOM      2  N   UNL     1      49.149 -39.399 -30.023  0.00  0.00    +0.375 N 
ATOM      3  C   UNL     1      49.985 -38.942 -30.328  0.00  0.00    -0.101 C 
ATOM      4  C   UNL     1      49.215 -38.932 -29.142  0.00  0.00    -0.101 C 
ENDROOT
BRANCH   2   5
ATOM      5  C   UNL     1      48.314 -39.856 -29.718  0.00  0.00    -0.080 C 
BRANCH   5   6
ATOM      6  C   UNL     1      46.620 -39.439 -29.335  0.00  0.00    -0.024 C 
BRANCH   6   7
ATOM      7  S   UNL     1      45.464 -40.649 -30.070  0.00  0.00    -0.180 S 
ATOM      8  H   UNL     1      45.875 -41.909 -29.767  0.00  0.00    +0.000 HD
ENDBRANCH   6   7
ENDBRANCH   5   6
ENDBRANCH   2   5
TORSDOF 3
ENDMDL
MODEL 2
REMARK VINA RESULT:    -3.444     21.034     21.354
REMARK INTER + INTRA:          -1.887
REMARK INTER:                  -3.477
REMARK INTRA:                   1.590
REMARK UNBOUND:                 1.657
REMARK  Name = cpd215.pdb
REMARK  6 active torsions:
REMARK  status: ('A' for Active; 'I' for Inactive)
REMARK    1  A    between atoms: C_1  and  N_2
REMARK    2  A    between atoms: N_2  and  C_3
REMARK    3  A    between atoms: N_2  and  C_4
REMARK    4  A    between atoms: N_2  and  C_5
REMARK    5  A    between atoms: C_5  and  C_6
REMARK    6  A    between atoms: C_6  and  S_7
REMARK                            x       y       z     vdW  Elec       q    Type
REMARK                         _______ _______ _______ _____ _____    ______ ____
ROOT
ATOM      1  C   UNL     1      46.778 -23.025 -42.440  0.00  0.00    -0.101 C 
ATOM      2  N   UNL     1      46.717 -22.779 -41.473  0.00  0.00    +0.375 N 
ATOM      3  C   UNL     1      47.405 -23.470 -41.254  0.00  0.00    -0.101 C 
ATOM      4  C   UNL     1      46.657 -22.532 -40.505  0.00  0.00    -0.101 C 
ENDROOT
BRANCH   2   5
ATOM      5  C   UNL     1      46.029 -22.087 -41.692  0.00  0.00    -0.080 C 
BRANCH   5   6
ATOM      6  C   UNL     1      45.954 -20.345 -42.079  0.00  0.00    -0.024 C 
BRANCH   6   7
ATOM      7  S   UNL     1      44.362 -19.917 -42.869  0.00  0.00    -0.180 S 
ATOM      8  H   UNL     1      44.112 -20.786 -43.885  0.00  0.00    +0.000 HD
ENDBRANCH   6   7
ENDBRANCH   5   6
ENDBRANCH   2   5
TORSDOF 3
ENDMDL
MODEL 3
REMARK VINA RESULT:    -3.396     30.056     30.774
REMARK INTER + INTRA:          -1.838
REMARK INTER:                  -3.488
REMARK INTRA:                   1.649
REMARK UNBOUND:                 1.657
REMARK  Name = cpd215.pdb
REMARK  6 active torsions:
REMARK  status: ('A' for Active; 'I' for Inactive)
REMARK    1  A    between atoms: C_1  and  N_2
REMARK    2  A    between atoms: N_2  and  C_3
REMARK    3  A    between atoms: N_2  and  C_4
REMARK    4  A    between atoms: N_2  and  C_5
REMARK    5  A    between atoms: C_5  and  C_6
REMARK    6  A    between atoms: C_6  and  S_7
REMARK                            x       y       z     vdW  Elec       q    Type
REMARK                         _______ _______ _______ _____ _____    ______ ____
ROOT
ATOM      1  C   UNL     1      62.403 -26.544  -7.143  0.00  0.00    -0.101 C 
ATOM      2  N   UNL     1      63.140 -26.331  -6.501  0.00  0.00    +0.375 N 
ATOM      3  C   UNL     1      62.920 -27.151  -5.974  0.00  0.00    -0.101 C 
ATOM      4  C   UNL     1      63.877 -26.117  -5.860  0.00  0.00    -0.101 C 
ENDROOT
BRANCH   2   5
ATOM      5  C   UNL     1      63.361 -25.510  -7.029  0.00  0.00    -0.080 C 
BRANCH   5   6
ATOM      6  C   UNL     1      64.666 -24.907  -8.088  0.00  0.00    -0.024 C 
BRANCH   6   7
ATOM      7  S   UNL     1      63.982 -24.145  -9.602  0.00  0.00    -0.180 S 
ATOM      8  H   UNL     1      63.876 -22.801  -9.426  0.00  0.00    +0.000 HD
ENDBRANCH   6   7
ENDBRANCH   5   6
ENDBRANCH   2   5
TORSDOF 3
ENDMDL
MODEL 4
REMARK VINA RESULT:    -3.336     29.595     29.927
REMARK INTER + INTRA:          -1.776
REMARK INTER:                  -3.447
REMARK INTRA:                   1.671
REMARK UNBOUND:                 1.657
REMARK  Name = cpd215.pdb
REMARK  6 active torsions:
REMARK  status: ('A' for Active; 'I' for Inactive)
REMARK    1  A    between atoms: C_1  and  N_2
REMARK    2  A    between atoms: N_2  and  C_3
REMARK    3  A    between atoms: N_2  and  C_4
REMARK    4  A    between atoms: N_2  and  C_5
REMARK    5  A    between atoms: C_5  and  C_6
REMARK    6  A    between atoms: C_6  and  S_7
REMARK                            x       y       z     vdW  Elec       q    Type
REMARK                         _______ _______ _______ _____ _____    ______ ____
ROOT
ATOM      1  C   UNL     1      64.221 -24.755  -8.834  0.00  0.00    -0.101 C 
ATOM      2  N   UNL     1      63.243 -24.620  -8.992  0.00  0.00    +0.375 N 
ATOM      3  C   UNL     1      63.441 -24.242  -9.897  0.00  0.00    -0.101 C 
ATOM      4  C   UNL     1      62.265 -24.485  -9.150  0.00  0.00    -0.101 C 
ENDROOT
BRANCH   2   5
ATOM      5  C   UNL     1      63.045 -24.998  -8.088  0.00  0.00    -0.080 C 
BRANCH   5   6
ATOM      6  C   UNL     1      62.202 -26.402  -7.377  0.00  0.00    -0.024 C 
BRANCH   6   7
ATOM      7  S   UNL     1      63.223 -27.195  -6.085  0.00  0.00    -0.180 S 
ATOM      8  H   UNL     1      63.566 -28.449  -6.484  0.00  0.00    +0.000 HD
ENDBRANCH   6   7
ENDBRANCH   5   6
ENDBRANCH   2   5
TORSDOF 3
ENDMDL
MODEL 5
REMARK VINA RESULT:    -3.300     21.108     21.435
REMARK INTER + INTRA:          -1.739
REMARK INTER:                  -3.343
REMARK INTRA:                   1.604
REMARK UNBOUND:                 1.657
REMARK  Name = cpd215.pdb
REMARK  6 active torsions:
REMARK  status: ('A' for Active; 'I' for Inactive)
REMARK    1  A    between atoms: C_1  and  N_2
REMARK    2  A    between atoms: N_2  and  C_3
REMARK    3  A    between atoms: N_2  and  C_4
REMARK    4  A    between atoms: N_2  and  C_5
REMARK    5  A    between atoms: C_5  and  C_6
REMARK    6  A    between atoms: C_6  and  S_7
REMARK                            x       y       z     vdW  Elec       q    Type
REMARK                         _______ _______ _______ _____ _____    ______ ____
ROOT
ATOM      1  C   UNL     1      47.837 -21.554 -41.784  0.00  0.00    -0.101 C 
ATOM      2  N   UNL     1      47.293 -22.272 -41.348  0.00  0.00    +0.375 N 
ATOM      3  C   UNL     1      48.125 -22.802 -41.184  0.00  0.00    -0.101 C 
ATOM      4  C   UNL     1      46.749 -22.989 -40.913  0.00  0.00    -0.101 C 
ENDROOT
BRANCH   2   5
ATOM      5  C   UNL     1      46.462 -21.741 -41.513  0.00  0.00    -0.080 C 
BRANCH   5   6
ATOM      6  C   UNL     1      45.095 -21.711 -42.662  0.00  0.00    -0.024 C 
BRANCH   6   7
ATOM      7  S   UNL     1      44.443 -20.016 -42.862  0.00  0.00    -0.180 S 
ATOM      8  H   UNL     1      44.315 -19.432 -41.640  0.00  0.00    +0.000 HD
ENDBRANCH   6   7
ENDBRANCH   5   6
ENDBRANCH   2   5
TORSDOF 3
ENDMDL
MODEL 6
REMARK VINA RESULT:    -3.292     25.260     25.724
REMARK INTER + INTRA:          -1.731
REMARK INTER:                  -3.375
REMARK INTRA:                   1.644
REMARK UNBOUND:                 1.657
REMARK  Name = cpd215.pdb
REMARK  6 active torsions:
REMARK  status: ('A' for Active; 'I' for Inactive)
REMARK    1  A    between atoms: C_1  and  N_2
REMARK    2  A    between atoms: N_2  and  C_3
REMARK    3  A    between atoms: N_2  and  C_4
REMARK    4  A    between atoms: N_2  and  C_5
REMARK    5  A    between atoms: C_5  and  C_6
REMARK    6  A    between atoms: C_6  and  S_7
REMARK                            x       y       z     vdW  Elec       q    Type
REMARK                         _______ _______ _______ _____ _____    ______ ____
ROOT
ATOM      1  C   UNL     1      55.122 -22.154 -47.700  0.00  0.00    -0.101 C 
ATOM      2  N   UNL     1      55.609 -23.024 -47.624  0.00  0.00    +0.375 N 
ATOM      3  C   UNL     1      55.089 -23.382 -48.400  0.00  0.00    -0.101 C 
ATOM      4  C   UNL     1      56.096 -23.894 -47.549  0.00  0.00    -0.101 C 
ENDROOT
BRANCH   2   5
ATOM      5  C   UNL     1      56.129 -22.666 -46.849  0.00  0.00    -0.080 C 
BRANCH   5   6
ATOM      6  C   UNL     1      57.706 -21.889 -46.536  0.00  0.00    -0.024 C 
BRANCH   6   7
ATOM      7  S   UNL     1      57.501 -20.360 -45.557  0.00  0.00    -0.180 S 
ATOM      8  H   UNL     1      57.477 -20.669 -44.233  0.00  0.00    +0.000 HD
ENDBRANCH   6   7
ENDBRANCH   5   6
ENDBRANCH   2   5
TORSDOF 3
ENDMDL
MODEL 7
REMARK VINA RESULT:    -3.285      2.446      3.659
REMARK INTER + INTRA:          -1.723
REMARK INTER:                  -3.365
REMARK INTRA:                   1.642
REMARK UNBOUND:                 1.657
REMARK  Name = cpd215.pdb
REMARK  6 active torsions:
REMARK  status: ('A' for Active; 'I' for Inactive)
REMARK    1  A    between atoms: C_1  and  N_2
REMARK    2  A    between atoms: N_2  and  C_3
REMARK    3  A    between atoms: N_2  and  C_4
REMARK    4  A    between atoms: N_2  and  C_5
REMARK    5  A    between atoms: C_5  and  C_6
REMARK    6  A    between atoms: C_6  and  S_7
REMARK                            x       y       z     vdW  Elec       q    Type
REMARK                         _______ _______ _______ _____ _____    ______ ____
ROOT
ATOM      1  C   UNL     1      45.883 -41.011 -29.984  0.00  0.00    -0.101 C 
ATOM      2  N   UNL     1      45.687 -40.097 -29.630  0.00  0.00    +0.375 N 
ATOM      3  C   UNL     1      44.761 -40.151 -30.001  0.00  0.00    -0.101 C 
ATOM      4  C   UNL     1      45.491 -39.182 -29.276  0.00  0.00    -0.101 C 
ENDROOT
BRANCH   2   5
ATOM      5  C   UNL     1      46.614 -40.042 -29.259  0.00  0.00    -0.080 C 
BRANCH   5   6
ATOM      6  C   UNL     1      48.277 -39.748 -29.840  0.00  0.00    -0.024 C 
BRANCH   6   7
ATOM      7  S   UNL     1      49.144 -38.549 -28.769  0.00  0.00    -0.180 S 
ATOM      8  H   UNL     1      48.610 -38.587 -27.519  0.00  0.00    +0.000 HD
ENDBRANCH   6   7
ENDBRANCH   5   6
ENDBRANCH   2   5
TORSDOF 3
ENDMDL
MODEL 8
REMARK VINA RESULT:    -3.255     25.020     25.743
REMARK INTER + INTRA:          -1.692
REMARK INTER:                  -3.309
REMARK INTRA:                   1.616
REMARK UNBOUND:                 1.657
REMARK  Name = cpd215.pdb
REMARK  6 active torsions:
REMARK  status: ('A' for Active; 'I' for Inactive)
REMARK    1  A    between atoms: C_1  and  N_2
REMARK    2  A    between atoms: N_2  and  C_3
REMARK    3  A    between atoms: N_2  and  C_4
REMARK    4  A    between atoms: N_2  and  C_5
REMARK    5  A    between atoms: C_5  and  C_6
REMARK    6  A    between atoms: C_6  and  S_7
REMARK                            x       y       z     vdW  Elec       q    Type
REMARK                         _______ _______ _______ _____ _____    ______ ____
ROOT
ATOM      1  C   UNL     1      56.107 -21.104 -46.600  0.00  0.00    -0.101 C 
ATOM      2  N   UNL     1      56.996 -21.562 -46.598  0.00  0.00    +0.375 N 
ATOM      3  C   UNL     1      57.331 -20.908 -45.918  0.00  0.00    -0.101 C 
ATOM      4  C   UNL     1      57.885 -22.019 -46.595  0.00  0.00    -0.101 C 
ENDROOT
BRANCH   2   5
ATOM      5  C   UNL     1      56.662 -22.215 -47.277  0.00  0.00    -0.080 C 
BRANCH   5   6
ATOM      6  C   UNL     1      55.660 -23.692 -47.337  0.00  0.00    -0.024 C 
BRANCH   6   7
ATOM      7  S   UNL     1      56.368 -24.918 -48.492  0.00  0.00    -0.180 S 
ATOM      8  H   UNL     1      57.258 -25.704 -47.829  0.00  0.00    +0.000 HD
ENDBRANCH   6   7
ENDBRANCH   5   6
ENDBRANCH   2   5
TORSDOF 3
ENDMDL
MODEL 9
REMARK VINA RESULT:    -3.250     21.213     21.542
REMARK INTER + INTRA:          -1.688
REMARK INTER:                  -3.300
REMARK INTRA:                   1.612
REMARK UNBOUND:                 1.657
REMARK  Name = cpd215.pdb
REMARK  6 active torsions:
REMARK  status: ('A' for Active; 'I' for Inactive)
REMARK    1  A    between atoms: C_1  and  N_2
REMARK    2  A    between atoms: N_2  and  C_3
REMARK    3  A    between atoms: N_2  and  C_4
REMARK    4  A    between atoms: N_2  and  C_5
REMARK    5  A    between atoms: C_5  and  C_6
REMARK    6  A    between atoms: C_6  and  S_7
REMARK                            x       y       z     vdW  Elec       q    Type
REMARK                         _______ _______ _______ _____ _____    ______ ____
ROOT
ATOM      1  C   UNL     1      46.864 -22.980 -41.101  0.00  0.00    -0.101 C 
ATOM      2  N   UNL     1      47.349 -22.183 -41.462  0.00  0.00    +0.375 N 
ATOM      3  C   UNL     1      48.220 -22.661 -41.346  0.00  0.00    -0.101 C 
ATOM      4  C   UNL     1      47.834 -21.386 -41.823  0.00  0.00    -0.101 C 
ENDROOT
BRANCH   2   5
ATOM      5  C   UNL     1      46.478 -21.705 -41.578  0.00  0.00    -0.080 C 
BRANCH   5   6
ATOM      6  C   UNL     1      45.127 -21.645 -42.744  0.00  0.00    -0.024 C 
BRANCH   6   7
ATOM      7  S   UNL     1      44.401 -19.969 -42.821  0.00  0.00    -0.180 S 
ATOM      8  H   UNL     1      43.907 -19.632 -41.600  0.00  0.00    +0.000 HD
ENDBRANCH   6   7
ENDBRANCH   5   6
ENDBRANCH   2   5
TORSDOF 3
ENDMDL
MODEL 10
REMARK VINA RESULT:    -3.160      7.167      8.469
REMARK INTER + INTRA:          -1.595
REMARK INTER:                  -3.230
REMARK INTRA:                   1.634
REMARK UNBOUND:                 1.657
REMARK  Name = cpd215.pdb
REMARK  6 active torsions:
REMARK  status: ('A' for Active; 'I' for Inactive)
REMARK    1  A    between atoms: C_1  and  N_2
REMARK    2  A    between atoms: N_2  and  C_3
REMARK    3  A    between atoms: N_2  and  C_4
REMARK    4  A    between atoms: N_2  and  C_5
REMARK    5  A    between atoms: C_5  and  C_6
REMARK    6  A    between atoms: C_6  and  S_7
REMARK                            x       y       z     vdW  Elec       q    Type
REMARK                         _______ _______ _______ _____ _____    ______ ____
ROOT
ATOM      1  C   UNL     1      40.753 -35.800 -32.816  0.00  0.00    -0.101 C 
ATOM      2  N   UNL     1      40.320 -36.251 -32.036  0.00  0.00    +0.375 N 
ATOM      3  C   UNL     1      39.572 -35.588 -32.068  0.00  0.00    -0.101 C 
ATOM      4  C   UNL     1      39.887 -36.702 -31.256  0.00  0.00    -0.101 C 
ENDROOT
BRANCH   2   5
ATOM      5  C   UNL     1      41.068 -36.915 -32.004  0.00  0.00    -0.080 C 
BRANCH   5   6
ATOM      6  C   UNL     1      42.663 -37.100 -31.224  0.00  0.00    -0.024 C 
BRANCH   6   7
ATOM      7  S   UNL     1      42.881 -38.793 -30.571  0.00  0.00    -0.180 S 
ATOM      8  H   UNL     1      42.195 -38.920 -29.404  0.00  0.00    +0.000 HD
ENDBRANCH   6   7
ENDBRANCH   5   6
ENDBRANCH   2   5
TORSDOF 3
ENDMDL
MODEL 11
REMARK VINA RESULT:    -3.160      7.301      8.174
REMARK INTER + INTRA:          -1.595
REMARK INTER:                  -3.191
REMARK INTRA:                   1.596
REMARK UNBOUND:                 1.657
REMARK  Name = cpd215.pdb
REMARK  6 active torsions:
REMARK  status: ('A' for Active; 'I' for Inactive)
REMARK    1  A    between atoms: C_1  and  N_2
REMARK    2  A    between atoms: N_2  and  C_3
REMARK    3  A    between atoms: N_2  and  C_4
REMARK    4  A    between atoms: N_2  and  C_5
REMARK    5  A    between atoms: C_5  and  C_6
REMARK    6  A    between atoms: C_6  and  S_7
REMARK                            x       y       z     vdW  Elec       q    Type
REMARK                         _______ _______ _______ _____ _____    ______ ____
ROOT
ATOM      1  C   UNL     1      41.687 -36.950 -32.551  0.00  0.00    -0.101 C 
ATOM      2  N   UNL     1      42.051 -36.517 -31.726  0.00  0.00    +0.375 N 
ATOM      3  C   UNL     1      42.776 -37.204 -31.686  0.00  0.00    -0.101 C 
ATOM      4  C   UNL     1      42.415 -36.084 -30.902  0.00  0.00    -0.101 C 
ENDROOT
BRANCH   2   5
ATOM      5  C   UNL     1      41.325 -35.830 -31.767  0.00  0.00    -0.080 C 
BRANCH   5   6
ATOM      6  C   UNL     1      39.611 -35.660 -31.297  0.00  0.00    -0.024 C 
BRANCH   6   7
ATOM      7  S   UNL     1      38.894 -34.123 -31.977  0.00  0.00    -0.180 S 
ATOM      8  H   UNL     1      39.743 -33.595 -32.898  0.00  0.00    +0.000 HD
ENDBRANCH   6   7
ENDBRANCH   5   6
ENDBRANCH   2   5
TORSDOF 3
ENDMDL
MODEL 12
REMARK VINA RESULT:    -3.159     25.775     26.474
REMARK INTER + INTRA:          -1.594
REMARK INTER:                  -3.203
REMARK INTRA:                   1.609
REMARK UNBOUND:                 1.657
REMARK  Name = cpd215.pdb
REMARK  6 active torsions:
REMARK  status: ('A' for Active; 'I' for Inactive)
REMARK    1  A    between atoms: C_1  and  N_2
REMARK    2  A    between atoms: N_2  and  C_3
REMARK    3  A    between atoms: N_2  and  C_4
REMARK    4  A    between atoms: N_2  and  C_5
REMARK    5  A    between atoms: C_5  and  C_6
REMARK    6  A    between atoms: C_6  and  S_7
REMARK                            x       y       z     vdW  Elec       q    Type
REMARK                         _______ _______ _______ _____ _____    ______ ____
ROOT
ATOM      1  C   UNL     1      57.110 -23.283 -47.295  0.00  0.00    -0.101 C 
ATOM      2  N   UNL     1      56.380 -22.613 -47.431  0.00  0.00    +0.375 N 
ATOM      3  C   UNL     1      56.388 -22.406 -46.453  0.00  0.00    -0.101 C 
ATOM      4  C   UNL     1      55.651 -21.942 -47.567  0.00  0.00    -0.101 C 
ENDROOT
BRANCH   2   5
ATOM      5  C   UNL     1      56.373 -22.819 -48.409  0.00  0.00    -0.080 C 
BRANCH   5   6
ATOM      6  C   UNL     1      57.307 -22.407 -49.874  0.00  0.00    -0.024 C 
BRANCH   6   7
ATOM      7  S   UNL     1      56.465 -23.008 -51.381  0.00  0.00    -0.180 S 
ATOM      8  H   UNL     1      56.405 -24.367 -51.355  0.00  0.00    +0.000 HD
ENDBRANCH   6   7
ENDBRANCH   5   6
ENDBRANCH   2   5
TORSDOF 3
ENDMDL
MODEL 13
REMARK VINA RESULT:    -3.135     17.941     18.605
REMARK INTER + INTRA:          -1.569
REMARK INTER:                  -3.188
REMARK INTRA:                   1.618
REMARK UNBOUND:                 1.657
REMARK  Name = cpd215.pdb
REMARK  6 active torsions:
REMARK  status: ('A' for Active; 'I' for Inactive)
REMARK    1  A    between atoms: C_1  and  N_2
REMARK    2  A    between atoms: N_2  and  C_3
REMARK    3  A    between atoms: N_2  and  C_4
REMARK    4  A    between atoms: N_2  and  C_5
REMARK    5  A    between atoms: C_5  and  C_6
REMARK    6  A    between atoms: C_6  and  S_7
REMARK                            x       y       z     vdW  Elec       q    Type
REMARK                         _______ _______ _______ _____ _____    ______ ____
ROOT
ATOM      1  C   UNL     1      53.528 -35.865 -46.760  0.00  0.00    -0.101 C 
ATOM      2  N   UNL     1      54.017 -35.303 -46.094  0.00  0.00    +0.375 N 
ATOM      3  C   UNL     1      53.147 -34.927 -45.773  0.00  0.00    -0.101 C 
ATOM      4  C   UNL     1      54.506 -34.740 -45.427  0.00  0.00    -0.101 C 
ENDROOT
BRANCH   2   5
ATOM      5  C   UNL     1      54.886 -35.678 -46.414  0.00  0.00    -0.080 C 
BRANCH   5   6
ATOM      6  C   UNL     1      56.188 -35.255 -47.561  0.00  0.00    -0.024 C 
BRANCH   6   7
ATOM      7  S   UNL     1      56.798 -36.739 -48.437  0.00  0.00    -0.180 S 
ATOM      8  H   UNL     1      57.252 -37.646 -47.532  0.00  0.00    +0.000 HD
ENDBRANCH   6   7
ENDBRANCH   5   6
ENDBRANCH   2   5
TORSDOF 3
ENDMDL
MODEL 14
REMARK VINA RESULT:    -3.124     30.411     31.161
REMARK INTER + INTRA:          -1.558
REMARK INTER:                  -3.152
REMARK INTRA:                   1.595
REMARK UNBOUND:                 1.657
REMARK  Name = cpd215.pdb
REMARK  6 active torsions:
REMARK  status: ('A' for Active; 'I' for Inactive)
REMARK    1  A    between atoms: C_1  and  N_2
REMARK    2  A    between atoms: N_2  and  C_3
REMARK    3  A    between atoms: N_2  and  C_4
REMARK    4  A    between atoms: N_2  and  C_5
REMARK    5  A    between atoms: C_5  and  C_6
REMARK    6  A    between atoms: C_6  and  S_7
REMARK                            x       y       z     vdW  Elec       q    Type
REMARK                         _______ _______ _______ _____ _____    ______ ____
ROOT
ATOM      1  C   UNL     1      62.113 -25.948  -7.498  0.00  0.00    -0.101 C 
ATOM      2  N   UNL     1      62.557 -25.056  -7.585  0.00  0.00    +0.375 N 
ATOM      3  C   UNL     1      62.351 -25.048  -8.564  0.00  0.00    -0.101 C 
ATOM      4  C   UNL     1      63.002 -24.164  -7.672  0.00  0.00    -0.101 C 
ENDROOT
BRANCH   2   5
ATOM      5  C   UNL     1      62.764 -25.063  -6.607  0.00  0.00    -0.080 C 
BRANCH   5   6
ATOM      6  C   UNL     1      64.028 -25.681  -5.507  0.00  0.00    -0.024 C 
BRANCH   6   7
ATOM      7  S   UNL     1      64.205 -24.604  -4.041  0.00  0.00    -0.180 S 
ATOM      8  H   UNL     1      65.524 -24.451  -3.747  0.00  0.00    +0.000 HD
ENDBRANCH   6   7
ENDBRANCH   5   6
ENDBRANCH   2   5
TORSDOF 3
ENDMDL
MODEL 15
REMARK VINA RESULT:    -3.028     21.086     21.432
REMARK INTER + INTRA:          -1.459
REMARK INTER:                  -3.061
REMARK INTRA:                   1.602
REMARK UNBOUND:                 1.657
REMARK  Name = cpd215.pdb
REMARK  6 active torsions:
REMARK  status: ('A' for Active; 'I' for Inactive)
REMARK    1  A    between atoms: C_1  and  N_2
REMARK    2  A    between atoms: N_2  and  C_3
REMARK    3  A    between atoms: N_2  and  C_4
REMARK    4  A    between atoms: N_2  and  C_5
REMARK    5  A    between atoms: C_5  and  C_6
REMARK    6  A    between atoms: C_6  and  S_7
REMARK                            x       y       z     vdW  Elec       q    Type
REMARK                         _______ _______ _______ _____ _____    ______ ____
ROOT
ATOM      1  C   UNL     1      46.861 -23.065 -40.994  0.00  0.00    -0.101 C 
ATOM      2  N   UNL     1      47.522 -22.437 -41.405  0.00  0.00    +0.375 N 
ATOM      3  C   UNL     1      48.163 -23.195 -41.531  0.00  0.00    -0.101 C 
ATOM      4  C   UNL     1      48.184 -21.810 -41.816  0.00  0.00    -0.101 C 
ENDROOT
BRANCH   2   5
ATOM      5  C   UNL     1      46.882 -21.680 -41.279  0.00  0.00    -0.080 C 
BRANCH   5   6
ATOM      6  C   UNL     1      45.628 -20.815 -42.211  0.00  0.00    -0.024 C 
BRANCH   6   7
ATOM      7  S   UNL     1      45.368 -19.130 -41.554  0.00  0.00    -0.180 S 
ATOM      8  H   UNL     1      44.828 -19.207 -40.309  0.00  0.00    +0.000 HD
ENDBRANCH   6   7
ENDBRANCH   5   6
ENDBRANCH   2   5
TORSDOF 3
ENDMDL
MODEL 16
REMARK VINA RESULT:    -2.996      8.830     10.092
REMARK INTER + INTRA:          -1.426
REMARK INTER:                  -3.035
REMARK INTRA:                   1.609
REMARK UNBOUND:                 1.657
REMARK  Name = cpd215.pdb
REMARK  6 active torsions:
REMARK  status: ('A' for Active; 'I' for Inactive)
REMARK    1  A    between atoms: C_1  and  N_2
REMARK    2  A    between atoms: N_2  and  C_3
REMARK    3  A    between atoms: N_2  and  C_4
REMARK    4  A    between atoms: N_2  and  C_5
REMARK    5  A    between atoms: C_5  and  C_6
REMARK    6  A    between atoms: C_6  and  S_7
REMARK                            x       y       z     vdW  Elec       q    Type
REMARK                         _______ _______ _______ _____ _____    ______ ____
ROOT
ATOM      1  C   UNL     1      38.780 -36.757 -30.721  0.00  0.00    -0.101 C 
ATOM      2  N   UNL     1      38.636 -35.999 -31.357  0.00  0.00    +0.375 N 
ATOM      3  C   UNL     1      37.669 -35.971 -31.104  0.00  0.00    -0.101 C 
ATOM      4  C   UNL     1      38.492 -35.240 -31.992  0.00  0.00    -0.101 C 
ENDROOT
BRANCH   2   5
ATOM      5  C   UNL     1      39.603 -36.026 -31.609  0.00  0.00    -0.080 C 
BRANCH   5   6
ATOM      6  C   UNL     1      41.112 -35.146 -31.237  0.00  0.00    -0.024 C 
BRANCH   6   7
ATOM      7  S   UNL     1      42.541 -36.285 -31.191  0.00  0.00    -0.180 S 
ATOM      8  H   UNL     1      42.411 -37.132 -30.135  0.00  0.00    +0.000 HD
ENDBRANCH   6   7
ENDBRANCH   5   6
ENDBRANCH   2   5
TORSDOF 3
ENDMDL
MODEL 17
REMARK VINA RESULT:    -2.958      8.907      9.463
REMARK INTER + INTRA:          -1.387
REMARK INTER:                  -3.002
REMARK INTRA:                   1.616
REMARK UNBOUND:                 1.657
REMARK  Name = cpd215.pdb
REMARK  6 active torsions:
REMARK  status: ('A' for Active; 'I' for Inactive)
REMARK    1  A    between atoms: C_1  and  N_2
REMARK    2  A    between atoms: N_2  and  C_3
REMARK    3  A    between atoms: N_2  and  C_4
REMARK    4  A    between atoms: N_2  and  C_5
REMARK    5  A    between atoms: C_5  and  C_6
REMARK    6  A    between atoms: C_6  and  S_7
REMARK                            x       y       z     vdW  Elec       q    Type
REMARK                         _______ _______ _______ _____ _____    ______ ____
ROOT
ATOM      1  C   UNL     1      40.159 -34.713 -31.656  0.00  0.00    -0.101 C 
ATOM      2  N   UNL     1      40.512 -35.631 -31.836  0.00  0.00    +0.375 N 
ATOM      3  C   UNL     1      41.416 -35.246 -32.024  0.00  0.00    -0.101 C 
ATOM      4  C   UNL     1      40.866 -36.548 -32.017  0.00  0.00    -0.101 C 
ENDROOT
BRANCH   2   5
ATOM      5  C   UNL     1      39.608 -36.016 -31.649  0.00  0.00    -0.080 C 
BRANCH   5   6
ATOM      6  C   UNL     1      38.750 -36.831 -30.312  0.00  0.00    -0.024 C 
BRANCH   6   7
ATOM      7  S   UNL     1      36.985 -36.357 -30.280  0.00  0.00    -0.180 S 
ATOM      8  H   UNL     1      36.814 -35.300 -29.442  0.00  0.00    +0.000 HD
ENDBRANCH   6   7
ENDBRANCH   5   6
ENDBRANCH   2   5
TORSDOF 3
ENDMDL
MODEL 18
REMARK VINA RESULT:    -2.951     17.907     18.623
REMARK INTER + INTRA:          -1.380
REMARK INTER:                  -2.969
REMARK INTRA:                   1.589
REMARK UNBOUND:                 1.657
REMARK  Name = cpd215.pdb
REMARK  6 active torsions:
REMARK  status: ('A' for Active; 'I' for Inactive)
REMARK    1  A    between atoms: C_1  and  N_2
REMARK    2  A    between atoms: N_2  and  C_3
REMARK    3  A    between atoms: N_2  and  C_4
REMARK    4  A    between atoms: N_2  and  C_5
REMARK    5  A    between atoms: C_5  and  C_6
REMARK    6  A    between atoms: C_6  and  S_7
REMARK                            x       y       z     vdW  Elec       q    Type
REMARK                         _______ _______ _______ _____ _____    ______ ____
ROOT
ATOM      1  C   UNL     1      55.509 -34.797 -47.220  0.00  0.00    -0.101 C 
ATOM      2  N   UNL     1      54.986 -35.133 -46.437  0.00  0.00    +0.375 N 
ATOM      3  C   UNL     1      55.344 -34.386 -45.877  0.00  0.00    -0.101 C 
ATOM      4  C   UNL     1      54.463 -35.469 -45.653  0.00  0.00    -0.101 C 
ENDROOT
BRANCH   2   5
ATOM      5  C   UNL     1      54.627 -35.880 -46.996  0.00  0.00    -0.080 C 
BRANCH   5   6
ATOM      6  C   UNL     1      55.039 -37.570 -47.401  0.00  0.00    -0.024 C 
BRANCH   6   7
ATOM      7  S   UNL     1      53.780 -38.307 -48.501  0.00  0.00    -0.180 S 
ATOM      8  H   UNL     1      53.023 -37.319 -49.050  0.00  0.00    +0.000 HD
ENDBRANCH   6   7
ENDBRANCH   5   6
ENDBRANCH   2   5
TORSDOF 3
ENDMDL
MODEL 19
REMARK VINA RESULT:    -2.950     17.868     18.568
REMARK INTER + INTRA:          -1.378
REMARK INTER:                  -2.974
REMARK INTRA:                   1.596
REMARK UNBOUND:                 1.657
REMARK  Name = cpd215.pdb
REMARK  6 active torsions:
REMARK  status: ('A' for Active; 'I' for Inactive)
REMARK    1  A    between atoms: C_1  and  N_2
REMARK    2  A    between atoms: N_2  and  C_3
REMARK    3  A    between atoms: N_2  and  C_4
REMARK    4  A    between atoms: N_2  and  C_5
REMARK    5  A    between atoms: C_5  and  C_6
REMARK    6  A    between atoms: C_6  and  S_7
REMARK                            x       y       z     vdW  Elec       q    Type
REMARK                         _______ _______ _______ _____ _____    ______ ____
ROOT
ATOM      1  C   UNL     1      55.295 -35.330 -47.863  0.00  0.00    -0.101 C 
ATOM      2  N   UNL     1      55.213 -36.242 -47.462  0.00  0.00    +0.375 N 
ATOM      3  C   UNL     1      56.118 -36.479 -47.817  0.00  0.00    -0.101 C 
ATOM      4  C   UNL     1      55.132 -37.155 -47.061  0.00  0.00    -0.101 C 
ENDROOT
BRANCH   2   5
ATOM      5  C   UNL     1      54.309 -36.005 -47.107  0.00  0.00    -0.080 C 
BRANCH   5   6
ATOM      6  C   UNL     1      53.598 -35.147 -45.712  0.00  0.00    -0.024 C 
BRANCH   6   7
ATOM      7  S   UNL     1      51.774 -35.114 -45.822  0.00  0.00    -0.180 S 
ATOM      8  H   UNL     1      51.397 -35.220 -47.124  0.00  0.00    +0.000 HD
ENDBRANCH   6   7
ENDBRANCH   5   6
ENDBRANCH   2   5
TORSDOF 3
ENDMDL
MODEL 20
REMARK VINA RESULT:    -2.825      7.592      8.221
REMARK INTER + INTRA:          -1.250
REMARK INTER:                  -3.009
REMARK INTRA:                   1.759
REMARK UNBOUND:                 1.657
REMARK  Name = cpd215.pdb
REMARK  6 active torsions:
REMARK  status: ('A' for Active; 'I' for Inactive)
REMARK    1  A    between atoms: C_1  and  N_2
REMARK    2  A    between atoms: N_2  and  C_3
REMARK    3  A    between atoms: N_2  and  C_4
REMARK    4  A    between atoms: N_2  and  C_5
REMARK    5  A    between atoms: C_5  and  C_6
REMARK    6  A    between atoms: C_6  and  S_7
REMARK                            x       y       z     vdW  Elec       q    Type
REMARK                         _______ _______ _______ _____ _____    ______ ____
ROOT
ATOM      1  C   UNL     1      41.956 -36.086 -31.155  0.00  0.00    -0.101 C 
ATOM      2  N   UNL     1      40.993 -36.117 -31.423  0.00  0.00    +0.375 N 
ATOM      3  C   UNL     1      41.029 -35.146 -31.661  0.00  0.00    -0.101 C 
ATOM      4  C   UNL     1      40.030 -36.147 -31.692  0.00  0.00    -0.101 C 
ENDROOT
BRANCH   2   5
ATOM      5  C   UNL     1      40.957 -37.087 -31.186  0.00  0.00    -0.080 C 
BRANCH   5   6
ATOM      6  C   UNL     1      41.289 -38.137 -29.780  0.00  0.00    -0.024 C 
BRANCH   6   7
ATOM      7  S   UNL     1      39.821 -38.271 -28.700  0.00  0.00    -0.180 S 
ATOM      8  H   UNL     1      39.147 -39.416 -28.991  0.00  0.00    +0.000 HD
ENDBRANCH   6   7
ENDBRANCH   5   6
ENDBRANCH   2   5
TORSDOF 3
ENDMDL
