MODEL 1
REMARK VINA RESULT:    -7.539      0.000      0.000
REMARK INTER + INTRA:         -12.438
REMARK INTER:                 -11.065
REMARK INTRA:                  -1.373
REMARK UNBOUND:                -1.373
REMARK  Name = cpd270.pdb
REMARK  9 active torsions:
REMARK  status: ('A' for Active; 'I' for Inactive)
REMARK    1  A    between atoms: C_1  and  N_2
REMARK    2  A    between atoms: N_2  and  C_3
REMARK    3  A    between atoms: N_2  and  C_19
REMARK    4  A    between atoms: C_3  and  C_4
REMARK    5  A    between atoms: C_4  and  C_5
REMARK    6  A    between atoms: C_5  and  N_6
REMARK    7  A    between atoms: N_6  and  C_7
REMARK    8  A    between atoms: C_10  and  C_11
REMARK    9  A    between atoms: C_19  and  C_20
REMARK                            x       y       z     vdW  Elec       q    Type
REMARK                         _______ _______ _______ _____ _____    ______ ____
ROOT
ATOM      1  N   UNL     1      35.129 -36.952 -27.595  0.00  0.00    -0.328 N 
ATOM      2  H   UNL     1      34.923 -37.471 -26.784  0.00  0.00    +0.000 HD
ENDROOT
BRANCH   1   3
ATOM      3  C   UNL     1      36.355 -37.051 -28.286  0.00  0.00    +0.141 A 
ATOM      4  C   UNL     1      37.301 -37.948 -27.812  0.00  0.00    -0.018 A 
ATOM      5  C   UNL     1      38.526 -38.080 -28.468  0.00  0.00    -0.031 A 
ATOM      6  C   UNL     1      38.783 -37.312 -29.596  0.00  0.00    +0.093 A 
ATOM      7  N   UNL     1      37.835 -36.465 -30.051  0.00  0.00    -0.147 NA
ATOM      8  N   UNL     1      36.620 -36.342 -29.400  0.00  0.00    -0.134 NA
BRANCH   6   9
ATOM      9  C   UNL     1      40.045 -37.364 -30.358  0.00  0.00    +0.002 A 
ATOM     10  C   UNL     1      40.214 -36.677 -31.575  0.00  0.00    -0.053 A 
ATOM     11  C   UNL     1      41.419 -36.737 -32.285  0.00  0.00    -0.061 A 
ATOM     12  C   UNL     1      42.482 -37.489 -31.795  0.00  0.00    -0.062 A 
ATOM     13  C   UNL     1      42.341 -38.184 -30.598  0.00  0.00    -0.061 A 
ATOM     14  C   UNL     1      41.136 -38.124 -29.891  0.00  0.00    -0.053 A 
ENDBRANCH   6   9
ENDBRANCH   1   3
BRANCH   1  15
ATOM     15  C   UNL     1      34.191 -36.004 -28.199  0.00  0.00    +0.012 C 
BRANCH  15  16
ATOM     16  C   UNL     1      32.949 -36.728 -28.732  0.00  0.00    -0.025 C 
BRANCH  16  17
ATOM     17  C   UNL     1      32.712 -36.587 -30.245  0.00  0.00    +0.000 C 
BRANCH  17  19
ATOM     18  C   UNL     1      34.213 -37.875 -31.650  0.00  0.00    -0.012 C 
ATOM     19  N   UNL     1      33.946 -36.564 -31.044  0.00  0.00    -0.301 N 
ATOM     20  H   UNL     1      34.722 -36.346 -30.419  0.00  0.00    +0.000 HD
BRANCH  19  21
ATOM     21  C   UNL     1      33.870 -35.518 -32.082  0.00  0.00    +0.024 C 
BRANCH  21  22
ATOM     22  C   UNL     1      33.647 -34.127 -31.521  0.00  0.00    -0.033 A 
ATOM     23  C   UNL     1      32.534 -33.372 -31.918  0.00  0.00    -0.057 A 
ATOM     24  C   UNL     1      32.309 -32.103 -31.379  0.00  0.00    -0.061 A 
ATOM     25  C   UNL     1      33.189 -31.579 -30.433  0.00  0.00    -0.062 A 
ATOM     26  C   UNL     1      34.293 -32.323 -30.023  0.00  0.00    -0.061 A 
ATOM     27  C   UNL     1      34.518 -33.592 -30.559  0.00  0.00    -0.057 A 
ENDBRANCH  21  22
ENDBRANCH  19  21
ENDBRANCH  17  19
ENDBRANCH  16  17
ENDBRANCH  15  16
ENDBRANCH   1  15
TORSDOF 8
ENDMDL
MODEL 2
REMARK VINA RESULT:    -7.391      1.833      4.107
REMARK INTER + INTRA:         -12.221
REMARK INTER:                 -10.652
REMARK INTRA:                  -1.569
REMARK UNBOUND:                -1.373
REMARK  Name = cpd270.pdb
REMARK  9 active torsions:
REMARK  status: ('A' for Active; 'I' for Inactive)
REMARK    1  A    between atoms: C_1  and  N_2
REMARK    2  A    between atoms: N_2  and  C_3
REMARK    3  A    between atoms: N_2  and  C_19
REMARK    4  A    between atoms: C_3  and  C_4
REMARK    5  A    between atoms: C_4  and  C_5
REMARK    6  A    between atoms: C_5  and  N_6
REMARK    7  A    between atoms: N_6  and  C_7
REMARK    8  A    between atoms: C_10  and  C_11
REMARK    9  A    between atoms: C_19  and  C_20
REMARK                            x       y       z     vdW  Elec       q    Type
REMARK                         _______ _______ _______ _____ _____    ______ ____
ROOT
ATOM      1  N   UNL     1      35.360 -34.845 -30.874  0.00  0.00    -0.328 N 
ATOM      2  H   UNL     1      34.526 -35.362 -30.959  0.00  0.00    +0.000 HD
ENDROOT
BRANCH   1   3
ATOM      3  C   UNL     1      36.640 -35.439 -30.868  0.00  0.00    +0.141 A 
ATOM      4  C   UNL     1      36.910 -36.397 -29.902  0.00  0.00    -0.018 A 
ATOM      5  C   UNL     1      38.163 -37.012 -29.863  0.00  0.00    -0.031 A 
ATOM      6  C   UNL     1      39.126 -36.660 -30.799  0.00  0.00    +0.093 A 
ATOM      7  N   UNL     1      38.828 -35.743 -31.744  0.00  0.00    -0.147 NA
ATOM      8  N   UNL     1      37.584 -35.140 -31.781  0.00  0.00    -0.134 NA
BRANCH   6   9
ATOM      9  C   UNL     1      40.482 -37.238 -30.842  0.00  0.00    +0.002 A 
ATOM     10  C   UNL     1      40.960 -38.107 -29.842  0.00  0.00    -0.053 A 
ATOM     11  C   UNL     1      42.249 -38.647 -29.899  0.00  0.00    -0.061 A 
ATOM     12  C   UNL     1      43.094 -38.328 -30.958  0.00  0.00    -0.062 A 
ATOM     13  C   UNL     1      42.652 -37.467 -31.958  0.00  0.00    -0.061 A 
ATOM     14  C   UNL     1      41.363 -36.928 -31.897  0.00  0.00    -0.053 A 
ENDBRANCH   6   9
ENDBRANCH   1   3
BRANCH   1  15
ATOM     15  C   UNL     1      35.390 -33.388 -30.744  0.00  0.00    +0.012 C 
BRANCH  15  16
ATOM     16  C   UNL     1      34.324 -32.905 -29.754  0.00  0.00    -0.025 C 
BRANCH  16  17
ATOM     17  C   UNL     1      33.016 -33.713 -29.759  0.00  0.00    +0.000 C 
BRANCH  17  19
ATOM     18  C   UNL     1      31.645 -33.429 -27.777  0.00  0.00    -0.012 C 
ATOM     19  N   UNL     1      32.650 -34.266 -28.447  0.00  0.00    -0.301 N 
ATOM     20  H   UNL     1      33.487 -34.274 -27.864  0.00  0.00    +0.000 HD
BRANCH  19  21
ATOM     21  C   UNL     1      32.161 -35.651 -28.587  0.00  0.00    +0.024 C 
BRANCH  21  22
ATOM     22  C   UNL     1      33.219 -36.697 -28.296  0.00  0.00    -0.033 A 
ATOM     23  C   UNL     1      34.054 -36.568 -27.177  0.00  0.00    -0.057 A 
ATOM     24  C   UNL     1      35.009 -37.546 -26.888  0.00  0.00    -0.061 A 
ATOM     25  C   UNL     1      35.135 -38.665 -27.710  0.00  0.00    -0.062 A 
ATOM     26  C   UNL     1      34.306 -38.809 -28.820  0.00  0.00    -0.061 A 
ATOM     27  C   UNL     1      33.349 -37.834 -29.108  0.00  0.00    -0.057 A 
ENDBRANCH  21  22
ENDBRANCH  19  21
ENDBRANCH  17  19
ENDBRANCH  16  17
ENDBRANCH  15  16
ENDBRANCH   1  15
TORSDOF 8
ENDMDL
MODEL 3
REMARK VINA RESULT:    -7.141      2.026      4.230
REMARK INTER + INTRA:         -11.853
REMARK INTER:                 -10.076
REMARK INTRA:                  -1.778
REMARK UNBOUND:                -1.373
REMARK  Name = cpd270.pdb
REMARK  9 active torsions:
REMARK  status: ('A' for Active; 'I' for Inactive)
REMARK    1  A    between atoms: C_1  and  N_2
REMARK    2  A    between atoms: N_2  and  C_3
REMARK    3  A    between atoms: N_2  and  C_19
REMARK    4  A    between atoms: C_3  and  C_4
REMARK    5  A    between atoms: C_4  and  C_5
REMARK    6  A    between atoms: C_5  and  N_6
REMARK    7  A    between atoms: N_6  and  C_7
REMARK    8  A    between atoms: C_10  and  C_11
REMARK    9  A    between atoms: C_19  and  C_20
REMARK                            x       y       z     vdW  Elec       q    Type
REMARK                         _______ _______ _______ _____ _____    ______ ____
ROOT
ATOM      1  N   UNL     1      35.336 -35.039 -30.976  0.00  0.00    -0.328 N 
ATOM      2  H   UNL     1      34.933 -34.644 -31.783  0.00  0.00    +0.000 HD
ENDROOT
BRANCH   1   3
ATOM      3  C   UNL     1      36.633 -35.596 -30.952  0.00  0.00    +0.141 A 
ATOM      4  C   UNL     1      36.949 -36.471 -29.924  0.00  0.00    -0.018 A 
ATOM      5  C   UNL     1      38.220 -37.046 -29.865  0.00  0.00    -0.031 A 
ATOM      6  C   UNL     1      39.154 -36.739 -30.845  0.00  0.00    +0.093 A 
ATOM      7  N   UNL     1      38.812 -35.904 -31.849  0.00  0.00    -0.147 NA
ATOM      8  N   UNL     1      37.550 -35.340 -31.905  0.00  0.00    -0.134 NA
BRANCH   6   9
ATOM      9  C   UNL     1      40.526 -37.281 -30.873  0.00  0.00    +0.002 A 
ATOM     10  C   UNL     1      40.991 -38.195 -29.908  0.00  0.00    -0.053 A 
ATOM     11  C   UNL     1      42.296 -38.700 -29.952  0.00  0.00    -0.061 A 
ATOM     12  C   UNL     1      43.167 -38.299 -30.960  0.00  0.00    -0.062 A 
ATOM     13  C   UNL     1      42.737 -37.392 -31.923  0.00  0.00    -0.061 A 
ATOM     14  C   UNL     1      41.434 -36.888 -31.877  0.00  0.00    -0.053 A 
ENDBRANCH   6   9
ENDBRANCH   1   3
BRANCH   1  15
ATOM     15  C   UNL     1      34.647 -35.106 -29.686  0.00  0.00    +0.012 C 
BRANCH  15  16
ATOM     16  C   UNL     1      33.129 -35.189 -29.880  0.00  0.00    -0.025 C 
BRANCH  16  17
ATOM     17  C   UNL     1      32.675 -35.882 -31.176  0.00  0.00    +0.000 C 
BRANCH  17  19
ATOM     18  C   UNL     1      31.108 -37.723 -31.385  0.00  0.00    -0.012 C 
ATOM     19  N   UNL     1      32.482 -37.334 -31.041  0.00  0.00    -0.301 N 
ATOM     20  H   UNL     1      32.642 -37.583 -30.065  0.00  0.00    +0.000 HD
BRANCH  19  21
ATOM     21  C   UNL     1      33.453 -38.064 -31.879  0.00  0.00    +0.024 C 
BRANCH  21  22
ATOM     22  C   UNL     1      34.327 -39.022 -31.093  0.00  0.00    -0.033 A 
ATOM     23  C   UNL     1      35.142 -39.948 -31.759  0.00  0.00    -0.057 A 
ATOM     24  C   UNL     1      35.972 -40.810 -31.038  0.00  0.00    -0.061 A 
ATOM     25  C   UNL     1      36.002 -40.751 -29.646  0.00  0.00    -0.062 A 
ATOM     26  C   UNL     1      35.204 -39.829 -28.972  0.00  0.00    -0.061 A 
ATOM     27  C   UNL     1      34.376 -38.965 -29.691  0.00  0.00    -0.057 A 
ENDBRANCH  21  22
ENDBRANCH  19  21
ENDBRANCH  17  19
ENDBRANCH  16  17
ENDBRANCH  15  16
ENDBRANCH   1  15
TORSDOF 8
ENDMDL
MODEL 4
REMARK VINA RESULT:    -7.038      4.058      6.541
REMARK INTER + INTRA:         -11.702
REMARK INTER:                 -10.832
REMARK INTRA:                  -0.871
REMARK UNBOUND:                -1.373
REMARK  Name = cpd270.pdb
REMARK  9 active torsions:
REMARK  status: ('A' for Active; 'I' for Inactive)
REMARK    1  A    between atoms: C_1  and  N_2
REMARK    2  A    between atoms: N_2  and  C_3
REMARK    3  A    between atoms: N_2  and  C_19
REMARK    4  A    between atoms: C_3  and  C_4
REMARK    5  A    between atoms: C_4  and  C_5
REMARK    6  A    between atoms: C_5  and  N_6
REMARK    7  A    between atoms: N_6  and  C_7
REMARK    8  A    between atoms: C_10  and  C_11
REMARK    9  A    between atoms: C_19  and  C_20
REMARK                            x       y       z     vdW  Elec       q    Type
REMARK                         _______ _______ _______ _____ _____    ______ ____
ROOT
ATOM      1  N   UNL     1      35.205 -37.043 -27.741  0.00  0.00    -0.328 N 
ATOM      2  H   UNL     1      34.408 -36.614 -28.130  0.00  0.00    +0.000 HD
ENDROOT
BRANCH   1   3
ATOM      3  C   UNL     1      36.448 -37.113 -28.406  0.00  0.00    +0.141 A 
ATOM      4  C   UNL     1      37.426 -37.942 -27.877  0.00  0.00    -0.018 A 
ATOM      5  C   UNL     1      38.668 -38.042 -28.506  0.00  0.00    -0.031 A 
ATOM      6  C   UNL     1      38.910 -37.313 -29.662  0.00  0.00    +0.093 A 
ATOM      7  N   UNL     1      37.931 -36.532 -30.170  0.00  0.00    -0.147 NA
ATOM      8  N   UNL     1      36.700 -36.440 -29.545  0.00  0.00    -0.134 NA
BRANCH   6   9
ATOM      9  C   UNL     1      40.187 -37.336 -30.400  0.00  0.00    +0.002 A 
ATOM     10  C   UNL     1      41.285 -38.106 -29.972  0.00  0.00    -0.053 A 
ATOM     11  C   UNL     1      42.489 -38.117 -30.684  0.00  0.00    -0.061 A 
ATOM     12  C   UNL     1      42.624 -37.356 -31.841  0.00  0.00    -0.062 A 
ATOM     13  C   UNL     1      41.557 -36.580 -32.284  0.00  0.00    -0.061 A 
ATOM     14  C   UNL     1      40.356 -36.570 -31.569  0.00  0.00    -0.053 A 
ENDBRANCH   6   9
ENDBRANCH   1   3
BRANCH   1  15
ATOM     15  C   UNL     1      35.214 -37.670 -26.418  0.00  0.00    +0.012 C 
BRANCH  15  16
ATOM     16  C   UNL     1      33.894 -38.403 -26.152  0.00  0.00    -0.025 C 
BRANCH  16  17
ATOM     17  C   UNL     1      32.775 -37.535 -25.555  0.00  0.00    +0.000 C 
BRANCH  17  19
ATOM     18  C   UNL     1      32.862 -35.468 -24.287  0.00  0.00    -0.012 C 
ATOM     19  N   UNL     1      33.122 -36.914 -24.268  0.00  0.00    -0.301 N 
ATOM     20  H   UNL     1      34.120 -37.049 -24.113  0.00  0.00    +0.000 HD
BRANCH  19  21
ATOM     21  C   UNL     1      32.382 -37.559 -23.166  0.00  0.00    +0.024 C 
BRANCH  21  22
ATOM     22  C   UNL     1      33.275 -38.318 -22.204  0.00  0.00    -0.033 A 
ATOM     23  C   UNL     1      33.415 -39.709 -22.312  0.00  0.00    -0.057 A 
ATOM     24  C   UNL     1      34.262 -40.406 -21.447  0.00  0.00    -0.061 A 
ATOM     25  C   UNL     1      34.983 -39.721 -20.470  0.00  0.00    -0.062 A 
ATOM     26  C   UNL     1      34.860 -38.338 -20.358  0.00  0.00    -0.061 A 
ATOM     27  C   UNL     1      34.016 -37.639 -21.223  0.00  0.00    -0.057 A 
ENDBRANCH  21  22
ENDBRANCH  19  21
ENDBRANCH  17  19
ENDBRANCH  16  17
ENDBRANCH  15  16
ENDBRANCH   1  15
TORSDOF 8
ENDMDL
MODEL 5
REMARK VINA RESULT:    -6.883      4.648      7.340
REMARK INTER + INTRA:         -11.475
REMARK INTER:                 -10.674
REMARK INTRA:                  -0.801
REMARK UNBOUND:                -1.373
REMARK  Name = cpd270.pdb
REMARK  9 active torsions:
REMARK  status: ('A' for Active; 'I' for Inactive)
REMARK    1  A    between atoms: C_1  and  N_2
REMARK    2  A    between atoms: N_2  and  C_3
REMARK    3  A    between atoms: N_2  and  C_19
REMARK    4  A    between atoms: C_3  and  C_4
REMARK    5  A    between atoms: C_4  and  C_5
REMARK    6  A    between atoms: C_5  and  N_6
REMARK    7  A    between atoms: N_6  and  C_7
REMARK    8  A    between atoms: C_10  and  C_11
REMARK    9  A    between atoms: C_19  and  C_20
REMARK                            x       y       z     vdW  Elec       q    Type
REMARK                         _______ _______ _______ _____ _____    ______ ____
ROOT
ATOM      1  N   UNL     1      35.311 -38.523 -26.855  0.00  0.00    -0.328 N 
ATOM      2  H   UNL     1      35.113 -39.467 -26.654  0.00  0.00    +0.000 HD
ENDROOT
BRANCH   1   3
ATOM      3  C   UNL     1      36.313 -38.121 -27.764  0.00  0.00    +0.141 A 
ATOM      4  C   UNL     1      36.135 -36.926 -28.446  0.00  0.00    -0.018 A 
ATOM      5  C   UNL     1      37.104 -36.490 -29.351  0.00  0.00    -0.031 A 
ATOM      6  C   UNL     1      38.243 -37.257 -29.556  0.00  0.00    +0.093 A 
ATOM      7  N   UNL     1      38.403 -38.404 -28.860  0.00  0.00    -0.147 NA
ATOM      8  N   UNL     1      37.442 -38.830 -27.961  0.00  0.00    -0.134 NA
BRANCH   6   9
ATOM      9  C   UNL     1      39.322 -36.896 -30.494  0.00  0.00    +0.002 A 
ATOM     10  C   UNL     1      39.129 -35.972 -31.539  0.00  0.00    -0.053 A 
ATOM     11  C   UNL     1      40.164 -35.640 -32.419  0.00  0.00    -0.061 A 
ATOM     12  C   UNL     1      41.417 -36.229 -32.278  0.00  0.00    -0.062 A 
ATOM     13  C   UNL     1      41.635 -37.152 -31.260  0.00  0.00    -0.061 A 
ATOM     14  C   UNL     1      40.599 -37.482 -30.382  0.00  0.00    -0.053 A 
ENDBRANCH   6   9
ENDBRANCH   1   3
BRANCH   1  15
ATOM     15  C   UNL     1      34.595 -37.404 -26.241  0.00  0.00    +0.012 C 
BRANCH  15  16
ATOM     16  C   UNL     1      33.658 -37.898 -25.133  0.00  0.00    -0.025 C 
BRANCH  16  17
ATOM     17  C   UNL     1      33.602 -37.006 -23.881  0.00  0.00    +0.000 C 
BRANCH  17  19
ATOM     18  C   UNL     1      31.596 -37.212 -22.532  0.00  0.00    -0.012 C 
ATOM     19  N   UNL     1      32.985 -37.653 -22.714  0.00  0.00    -0.301 N 
ATOM     20  H   UNL     1      33.511 -37.375 -21.886  0.00  0.00    +0.000 HD
BRANCH  19  21
ATOM     21  C   UNL     1      33.050 -39.122 -22.842  0.00  0.00    +0.024 C 
BRANCH  21  22
ATOM     22  C   UNL     1      34.018 -39.769 -21.871  0.00  0.00    -0.033 A 
ATOM     23  C   UNL     1      34.302 -39.160 -20.640  0.00  0.00    -0.057 A 
ATOM     24  C   UNL     1      35.168 -39.770 -19.730  0.00  0.00    -0.061 A 
ATOM     25  C   UNL     1      35.755 -40.997 -20.036  0.00  0.00    -0.062 A 
ATOM     26  C   UNL     1      35.474 -41.617 -21.252  0.00  0.00    -0.061 A 
ATOM     27  C   UNL     1      34.607 -41.010 -22.162  0.00  0.00    -0.057 A 
ENDBRANCH  21  22
ENDBRANCH  19  21
ENDBRANCH  17  19
ENDBRANCH  16  17
ENDBRANCH  15  16
ENDBRANCH   1  15
TORSDOF 8
ENDMDL
MODEL 6
REMARK VINA RESULT:    -6.713      1.591      2.233
REMARK INTER + INTRA:         -11.225
REMARK INTER:                  -9.620
REMARK INTRA:                  -1.605
REMARK UNBOUND:                -1.373
REMARK  Name = cpd270.pdb
REMARK  9 active torsions:
REMARK  status: ('A' for Active; 'I' for Inactive)
REMARK    1  A    between atoms: C_1  and  N_2
REMARK    2  A    between atoms: N_2  and  C_3
REMARK    3  A    between atoms: N_2  and  C_19
REMARK    4  A    between atoms: C_3  and  C_4
REMARK    5  A    between atoms: C_4  and  C_5
REMARK    6  A    between atoms: C_5  and  N_6
REMARK    7  A    between atoms: N_6  and  C_7
REMARK    8  A    between atoms: C_10  and  C_11
REMARK    9  A    between atoms: C_19  and  C_20
REMARK                            x       y       z     vdW  Elec       q    Type
REMARK                         _______ _______ _______ _____ _____    ______ ____
ROOT
ATOM      1  N   UNL     1      34.946 -37.095 -28.314  0.00  0.00    -0.328 N 
ATOM      2  H   UNL     1      34.518 -36.285 -27.953  0.00  0.00    +0.000 HD
ENDROOT
BRANCH   1   3
ATOM      3  C   UNL     1      36.230 -37.096 -28.899  0.00  0.00    +0.141 A 
ATOM      4  C   UNL     1      36.520 -36.118 -29.839  0.00  0.00    -0.018 A 
ATOM      5  C   UNL     1      37.779 -36.081 -30.439  0.00  0.00    -0.031 A 
ATOM      6  C   UNL     1      38.734 -37.023 -30.083  0.00  0.00    +0.093 A 
ATOM      7  N   UNL     1      38.435 -37.949 -29.146  0.00  0.00    -0.147 NA
ATOM      8  N   UNL     1      37.186 -37.979 -28.551  0.00  0.00    -0.134 NA
BRANCH   6   9
ATOM      9  C   UNL     1      40.090 -37.082 -30.661  0.00  0.00    +0.002 A 
ATOM     10  C   UNL     1      40.478 -36.274 -31.747  0.00  0.00    -0.053 A 
ATOM     11  C   UNL     1      41.769 -36.343 -32.282  0.00  0.00    -0.061 A 
ATOM     12  C   UNL     1      42.702 -37.224 -31.745  0.00  0.00    -0.062 A 
ATOM     13  C   UNL     1      42.345 -38.039 -30.676  0.00  0.00    -0.061 A 
ATOM     14  C   UNL     1      41.055 -37.970 -30.143  0.00  0.00    -0.053 A 
ENDBRANCH   6   9
ENDBRANCH   1   3
BRANCH   1  15
ATOM     15  C   UNL     1      34.311 -38.414 -28.294  0.00  0.00    +0.012 C 
BRANCH  15  16
ATOM     16  C   UNL     1      32.797 -38.296 -28.502  0.00  0.00    -0.025 C 
BRANCH  16  17
ATOM     17  C   UNL     1      32.126 -37.131 -27.757  0.00  0.00    +0.000 C 
BRANCH  17  19
ATOM     18  C   UNL     1      30.159 -35.935 -28.524  0.00  0.00    -0.012 C 
ATOM     19  N   UNL     1      31.617 -36.070 -28.639  0.00  0.00    -0.301 N 
ATOM     20  H   UNL     1      31.831 -36.333 -29.601  0.00  0.00    +0.000 HD
BRANCH  19  21
ATOM     21  C   UNL     1      32.283 -34.787 -28.342  0.00  0.00    +0.024 C 
BRANCH  21  22
ATOM     22  C   UNL     1      33.151 -34.281 -29.478  0.00  0.00    -0.033 A 
ATOM     23  C   UNL     1      33.058 -34.857 -30.753  0.00  0.00    -0.057 A 
ATOM     24  C   UNL     1      33.834 -34.372 -31.808  0.00  0.00    -0.061 A 
ATOM     25  C   UNL     1      34.705 -33.304 -31.603  0.00  0.00    -0.062 A 
ATOM     26  C   UNL     1      34.800 -32.716 -30.343  0.00  0.00    -0.061 A 
ATOM     27  C   UNL     1      34.024 -33.198 -29.288  0.00  0.00    -0.057 A 
ENDBRANCH  21  22
ENDBRANCH  19  21
ENDBRANCH  17  19
ENDBRANCH  16  17
ENDBRANCH  15  16
ENDBRANCH   1  15
TORSDOF 8
ENDMDL
MODEL 7
REMARK VINA RESULT:    -6.631      2.490      4.344
REMARK INTER + INTRA:         -11.105
REMARK INTER:                 -10.028
REMARK INTRA:                  -1.077
REMARK UNBOUND:                -1.373
REMARK  Name = cpd270.pdb
REMARK  9 active torsions:
REMARK  status: ('A' for Active; 'I' for Inactive)
REMARK    1  A    between atoms: C_1  and  N_2
REMARK    2  A    between atoms: N_2  and  C_3
REMARK    3  A    between atoms: N_2  and  C_19
REMARK    4  A    between atoms: C_3  and  C_4
REMARK    5  A    between atoms: C_4  and  C_5
REMARK    6  A    between atoms: C_5  and  N_6
REMARK    7  A    between atoms: N_6  and  C_7
REMARK    8  A    between atoms: C_10  and  C_11
REMARK    9  A    between atoms: C_19  and  C_20
REMARK                            x       y       z     vdW  Elec       q    Type
REMARK                         _______ _______ _______ _____ _____    ______ ____
ROOT
ATOM      1  N   UNL     1      34.519 -35.255 -29.313  0.00  0.00    -0.328 N 
ATOM      2  H   UNL     1      34.291 -35.219 -28.356  0.00  0.00    +0.000 HD
ENDROOT
BRANCH   1   3
ATOM      3  C   UNL     1      35.795 -35.626 -29.790  0.00  0.00    +0.141 A 
ATOM      4  C   UNL     1      36.514 -36.566 -29.066  0.00  0.00    -0.018 A 
ATOM      5  C   UNL     1      37.778 -36.964 -29.505  0.00  0.00    -0.031 A 
ATOM      6  C   UNL     1      38.301 -36.416 -30.669  0.00  0.00    +0.093 A 
ATOM      7  N   UNL     1      37.569 -35.521 -31.367  0.00  0.00    -0.147 NA
ATOM      8  N   UNL     1      36.315 -35.134 -30.930  0.00  0.00    -0.134 NA
BRANCH   6   9
ATOM      9  C   UNL     1      39.628 -36.757 -31.216  0.00  0.00    +0.002 A 
ATOM     10  C   UNL     1      40.043 -36.334 -32.493  0.00  0.00    -0.053 A 
ATOM     11  C   UNL     1      41.306 -36.665 -32.996  0.00  0.00    -0.061 A 
ATOM     12  C   UNL     1      42.183 -37.431 -32.233  0.00  0.00    -0.062 A 
ATOM     13  C   UNL     1      41.797 -37.868 -30.970  0.00  0.00    -0.061 A 
ATOM     14  C   UNL     1      40.534 -37.537 -30.471  0.00  0.00    -0.053 A 
ENDBRANCH   6   9
ENDBRANCH   1   3
BRANCH   1  15
ATOM     15  C   UNL     1      33.569 -34.928 -30.377  0.00  0.00    +0.012 C 
BRANCH  15  16
ATOM     16  C   UNL     1      32.127 -34.993 -29.862  0.00  0.00    -0.025 C 
BRANCH  16  17
ATOM     17  C   UNL     1      31.814 -34.058 -28.682  0.00  0.00    +0.000 C 
BRANCH  17  19
ATOM     18  C   UNL     1      29.646 -34.527 -27.698  0.00  0.00    -0.012 C 
ATOM     19  N   UNL     1      31.098 -34.711 -27.575  0.00  0.00    -0.301 N 
ATOM     20  H   UNL     1      31.396 -34.271 -26.705  0.00  0.00    +0.000 HD
BRANCH  19  21
ATOM     21  C   UNL     1      31.436 -36.146 -27.516  0.00  0.00    +0.024 C 
BRANCH  21  22
ATOM     22  C   UNL     1      32.277 -36.518 -26.311  0.00  0.00    -0.033 A 
ATOM     23  C   UNL     1      33.301 -37.470 -26.426  0.00  0.00    -0.057 A 
ATOM     24  C   UNL     1      34.098 -37.791 -25.324  0.00  0.00    -0.061 A 
ATOM     25  C   UNL     1      33.885 -37.161 -24.099  0.00  0.00    -0.062 A 
ATOM     26  C   UNL     1      32.877 -36.207 -23.974  0.00  0.00    -0.061 A 
ATOM     27  C   UNL     1      32.082 -35.883 -25.074  0.00  0.00    -0.057 A 
ENDBRANCH  21  22
ENDBRANCH  19  21
ENDBRANCH  17  19
ENDBRANCH  16  17
ENDBRANCH  15  16
ENDBRANCH   1  15
TORSDOF 8
ENDMDL
MODEL 8
REMARK VINA RESULT:    -6.614      2.281      4.880
REMARK INTER + INTRA:         -11.080
REMARK INTER:                  -9.315
REMARK INTRA:                  -1.765
REMARK UNBOUND:                -1.373
REMARK  Name = cpd270.pdb
REMARK  9 active torsions:
REMARK  status: ('A' for Active; 'I' for Inactive)
REMARK    1  A    between atoms: C_1  and  N_2
REMARK    2  A    between atoms: N_2  and  C_3
REMARK    3  A    between atoms: N_2  and  C_19
REMARK    4  A    between atoms: C_3  and  C_4
REMARK    5  A    between atoms: C_4  and  C_5
REMARK    6  A    between atoms: C_5  and  N_6
REMARK    7  A    between atoms: N_6  and  C_7
REMARK    8  A    between atoms: C_10  and  C_11
REMARK    9  A    between atoms: C_19  and  C_20
REMARK                            x       y       z     vdW  Elec       q    Type
REMARK                         _______ _______ _______ _____ _____    ______ ____
ROOT
ATOM      1  N   UNL     1      33.925 -35.750 -30.082  0.00  0.00    -0.328 N 
ATOM      2  H   UNL     1      33.190 -36.041 -30.668  0.00  0.00    +0.000 HD
ENDROOT
BRANCH   1   3
ATOM      3  C   UNL     1      35.288 -35.942 -30.397  0.00  0.00    +0.141 A 
ATOM      4  C   UNL     1      35.831 -37.203 -30.204  0.00  0.00    -0.018 A 
ATOM      5  C   UNL     1      37.174 -37.437 -30.506  0.00  0.00    -0.031 A 
ATOM      6  C   UNL     1      37.952 -36.401 -31.004  0.00  0.00    +0.093 A 
ATOM      7  N   UNL     1      37.392 -35.189 -31.206  0.00  0.00    -0.147 NA
ATOM      8  N   UNL     1      36.059 -34.964 -30.909  0.00  0.00    -0.134 NA
BRANCH   6   9
ATOM      9  C   UNL     1      39.380 -36.534 -31.346  0.00  0.00    +0.002 A 
ATOM     10  C   UNL     1      40.294 -37.200 -30.506  0.00  0.00    -0.053 A 
ATOM     11  C   UNL     1      41.645 -37.319 -30.847  0.00  0.00    -0.061 A 
ATOM     12  C   UNL     1      42.117 -36.770 -32.036  0.00  0.00    -0.062 A 
ATOM     13  C   UNL     1      41.239 -36.101 -32.882  0.00  0.00    -0.061 A 
ATOM     14  C   UNL     1      39.889 -35.983 -32.539  0.00  0.00    -0.053 A 
ENDBRANCH   6   9
ENDBRANCH   1   3
BRANCH   1  15
ATOM     15  C   UNL     1      33.711 -35.077 -28.800  0.00  0.00    +0.012 C 
BRANCH  15  16
ATOM     16  C   UNL     1      33.285 -36.079 -27.721  0.00  0.00    -0.025 C 
BRANCH  16  17
ATOM     17  C   UNL     1      32.439 -37.259 -28.225  0.00  0.00    +0.000 C 
BRANCH  17  19
ATOM     18  C   UNL     1      31.902 -38.741 -26.380  0.00  0.00    -0.012 C 
ATOM     19  N   UNL     1      32.745 -38.539 -27.566  0.00  0.00    -0.301 N 
ATOM     20  H   UNL     1      33.716 -38.509 -27.257  0.00  0.00    +0.000 HD
BRANCH  19  21
ATOM     21  C   UNL     1      32.586 -39.659 -28.513  0.00  0.00    +0.024 C 
BRANCH  21  22
ATOM     22  C   UNL     1      33.898 -40.147 -29.095  0.00  0.00    -0.033 A 
ATOM     23  C   UNL     1      35.009 -40.353 -28.264  0.00  0.00    -0.057 A 
ATOM     24  C   UNL     1      36.210 -40.833 -28.792  0.00  0.00    -0.061 A 
ATOM     25  C   UNL     1      36.312 -41.119 -30.152  0.00  0.00    -0.062 A 
ATOM     26  C   UNL     1      35.213 -40.928 -30.987  0.00  0.00    -0.061 A 
ATOM     27  C   UNL     1      34.011 -40.450 -30.461  0.00  0.00    -0.057 A 
ENDBRANCH  21  22
ENDBRANCH  19  21
ENDBRANCH  17  19
ENDBRANCH  16  17
ENDBRANCH  15  16
ENDBRANCH   1  15
TORSDOF 8
ENDMDL
MODEL 9
REMARK VINA RESULT:    -6.598      2.721      5.143
REMARK INTER + INTRA:         -11.057
REMARK INTER:                  -8.662
REMARK INTRA:                  -2.394
REMARK UNBOUND:                -1.373
REMARK  Name = cpd270.pdb
REMARK  9 active torsions:
REMARK  status: ('A' for Active; 'I' for Inactive)
REMARK    1  A    between atoms: C_1  and  N_2
REMARK    2  A    between atoms: N_2  and  C_3
REMARK    3  A    between atoms: N_2  and  C_19
REMARK    4  A    between atoms: C_3  and  C_4
REMARK    5  A    between atoms: C_4  and  C_5
REMARK    6  A    between atoms: C_5  and  N_6
REMARK    7  A    between atoms: N_6  and  C_7
REMARK    8  A    between atoms: C_10  and  C_11
REMARK    9  A    between atoms: C_19  and  C_20
REMARK                            x       y       z     vdW  Elec       q    Type
REMARK                         _______ _______ _______ _____ _____    ______ ____
ROOT
ATOM      1  N   UNL     1      32.486 -30.888 -30.775  0.00  0.00    -0.328 N 
ATOM      2  H   UNL     1      32.640 -30.037 -31.246  0.00  0.00    +0.000 HD
ENDROOT
BRANCH   1   3
ATOM      3  C   UNL     1      33.447 -31.920 -30.710  0.00  0.00    +0.141 A 
ATOM      4  C   UNL     1      33.376 -32.812 -29.651  0.00  0.00    -0.018 A 
ATOM      5  C   UNL     1      34.305 -33.849 -29.551  0.00  0.00    -0.031 A 
ATOM      6  C   UNL     1      35.290 -33.980 -30.520  0.00  0.00    +0.093 A 
ATOM      7  N   UNL     1      35.321 -33.112 -31.554  0.00  0.00    -0.147 NA
ATOM      8  N   UNL     1      34.396 -32.088 -31.651  0.00  0.00    -0.134 NA
BRANCH   6   9
ATOM      9  C   UNL     1      36.325 -35.030 -30.506  0.00  0.00    +0.002 A 
ATOM     10  C   UNL     1      36.326 -36.070 -29.556  0.00  0.00    -0.053 A 
ATOM     11  C   UNL     1      37.316 -37.059 -29.558  0.00  0.00    -0.061 A 
ATOM     12  C   UNL     1      38.331 -37.029 -30.509  0.00  0.00    -0.062 A 
ATOM     13  C   UNL     1      38.360 -36.010 -31.456  0.00  0.00    -0.061 A 
ATOM     14  C   UNL     1      37.370 -35.022 -31.451  0.00  0.00    -0.053 A 
ENDBRANCH   6   9
ENDBRANCH   1   3
BRANCH   1  15
ATOM     15  C   UNL     1      31.240 -31.204 -30.075  0.00  0.00    +0.012 C 
BRANCH  15  16
ATOM     16  C   UNL     1      30.356 -32.126 -30.922  0.00  0.00    -0.025 C 
BRANCH  16  17
ATOM     17  C   UNL     1      29.593 -33.203 -30.133  0.00  0.00    +0.000 C 
BRANCH  17  19
ATOM     18  C   UNL     1      28.098 -34.900 -31.013  0.00  0.00    -0.012 C 
ATOM     19  N   UNL     1      29.498 -34.497 -30.827  0.00  0.00    -0.301 N 
ATOM     20  H   UNL     1      29.950 -35.200 -30.243  0.00  0.00    +0.000 HD
BRANCH  19  21
ATOM     21  C   UNL     1      30.199 -34.441 -32.124  0.00  0.00    +0.024 C 
BRANCH  21  22
ATOM     22  C   UNL     1      31.473 -35.262 -32.156  0.00  0.00    -0.033 A 
ATOM     23  C   UNL     1      31.664 -36.311 -31.246  0.00  0.00    -0.057 A 
ATOM     24  C   UNL     1      32.823 -37.090 -31.294  0.00  0.00    -0.061 A 
ATOM     25  C   UNL     1      33.799 -36.833 -32.256  0.00  0.00    -0.062 A 
ATOM     26  C   UNL     1      33.617 -35.800 -33.172  0.00  0.00    -0.061 A 
ATOM     27  C   UNL     1      32.459 -35.022 -33.127  0.00  0.00    -0.057 A 
ENDBRANCH  21  22
ENDBRANCH  19  21
ENDBRANCH  17  19
ENDBRANCH  16  17
ENDBRANCH  15  16
ENDBRANCH   1  15
TORSDOF 8
ENDMDL
MODEL 10
REMARK VINA RESULT:    -6.557     33.042     35.241
REMARK INTER + INTRA:         -10.997
REMARK INTER:                 -10.151
REMARK INTRA:                  -0.846
REMARK UNBOUND:                -1.373
REMARK  Name = cpd270.pdb
REMARK  9 active torsions:
REMARK  status: ('A' for Active; 'I' for Inactive)
REMARK    1  A    between atoms: C_1  and  N_2
REMARK    2  A    between atoms: N_2  and  C_3
REMARK    3  A    between atoms: N_2  and  C_19
REMARK    4  A    between atoms: C_3  and  C_4
REMARK    5  A    between atoms: C_4  and  C_5
REMARK    6  A    between atoms: C_5  and  N_6
REMARK    7  A    between atoms: N_6  and  C_7
REMARK    8  A    between atoms: C_10  and  C_11
REMARK    9  A    between atoms: C_19  and  C_20
REMARK                            x       y       z     vdW  Elec       q    Type
REMARK                         _______ _______ _______ _____ _____    ______ ____
ROOT
ATOM      1  N   UNL     1      63.038 -20.160 -10.630  0.00  0.00    -0.328 N 
ATOM      2  H   UNL     1      63.393 -20.080 -11.545  0.00  0.00    +0.000 HD
ENDROOT
BRANCH   1   3
ATOM      3  C   UNL     1      63.069 -21.363  -9.892  0.00  0.00    +0.141 A 
ATOM      4  C   UNL     1      63.224 -22.552 -10.589  0.00  0.00    -0.018 A 
ATOM      5  C   UNL     1      63.263 -23.764  -9.897  0.00  0.00    -0.031 A 
ATOM      6  C   UNL     1      63.151 -23.766  -8.514  0.00  0.00    +0.093 A 
ATOM      7  N   UNL     1      63.025 -22.591  -7.858  0.00  0.00    -0.147 NA
ATOM      8  N   UNL     1      62.992 -21.393  -8.548  0.00  0.00    -0.134 NA
BRANCH   6   9
ATOM      9  C   UNL     1      63.168 -24.987  -7.687  0.00  0.00    +0.002 A 
ATOM     10  C   UNL     1      64.165 -25.224  -6.721  0.00  0.00    -0.053 A 
ATOM     11  C   UNL     1      64.166 -26.387  -5.944  0.00  0.00    -0.061 A 
ATOM     12  C   UNL     1      63.171 -27.344  -6.118  0.00  0.00    -0.062 A 
ATOM     13  C   UNL     1      62.176 -27.140  -7.069  0.00  0.00    -0.061 A 
ATOM     14  C   UNL     1      62.178 -25.977  -7.845  0.00  0.00    -0.053 A 
ENDBRANCH   6   9
ENDBRANCH   1   3
BRANCH   1  15
ATOM     15  C   UNL     1      62.430 -19.044  -9.904  0.00  0.00    +0.012 C 
BRANCH  15  16
ATOM     16  C   UNL     1      61.074 -18.671 -10.514  0.00  0.00    -0.025 C 
BRANCH  16  17
ATOM     17  C   UNL     1      60.049 -18.098  -9.521  0.00  0.00    +0.000 C 
BRANCH  17  19
ATOM     18  C   UNL     1      57.722 -17.740  -8.933  0.00  0.00    -0.012 C 
ATOM     19  N   UNL     1      58.649 -18.275  -9.939  0.00  0.00    -0.301 N 
ATOM     20  H   UNL     1      58.472 -19.275 -10.026  0.00  0.00    +0.000 HD
BRANCH  19  21
ATOM     21  C   UNL     1      58.417 -17.639 -11.250  0.00  0.00    +0.024 C 
BRANCH  21  22
ATOM     22  C   UNL     1      57.594 -18.492 -12.196  0.00  0.00    -0.033 A 
ATOM     23  C   UNL     1      57.896 -19.851 -12.370  0.00  0.00    -0.057 A 
ATOM     24  C   UNL     1      57.120 -20.646 -13.216  0.00  0.00    -0.061 A 
ATOM     25  C   UNL     1      56.032 -20.096 -13.892  0.00  0.00    -0.062 A 
ATOM     26  C   UNL     1      55.716 -18.750 -13.720  0.00  0.00    -0.061 A 
ATOM     27  C   UNL     1      56.489 -17.954 -12.873  0.00  0.00    -0.057 A 
ENDBRANCH  21  22
ENDBRANCH  19  21
ENDBRANCH  17  19
ENDBRANCH  16  17
ENDBRANCH  15  16
ENDBRANCH   1  15
TORSDOF 8
ENDMDL
MODEL 11
REMARK VINA RESULT:    -6.444     17.992     20.001
REMARK INTER + INTRA:         -10.831
REMARK INTER:                  -8.846
REMARK INTRA:                  -1.985
REMARK UNBOUND:                -1.373
REMARK  Name = cpd270.pdb
REMARK  9 active torsions:
REMARK  status: ('A' for Active; 'I' for Inactive)
REMARK    1  A    between atoms: C_1  and  N_2
REMARK    2  A    between atoms: N_2  and  C_3
REMARK    3  A    between atoms: N_2  and  C_19
REMARK    4  A    between atoms: C_3  and  C_4
REMARK    5  A    between atoms: C_4  and  C_5
REMARK    6  A    between atoms: C_5  and  N_6
REMARK    7  A    between atoms: N_6  and  C_7
REMARK    8  A    between atoms: C_10  and  C_11
REMARK    9  A    between atoms: C_19  and  C_20
REMARK                            x       y       z     vdW  Elec       q    Type
REMARK                         _______ _______ _______ _____ _____    ______ ____
ROOT
ATOM      1  N   UNL     1      46.540 -17.776 -36.269  0.00  0.00    -0.328 N 
ATOM      2  H   UNL     1      47.292 -17.586 -35.661  0.00  0.00    +0.000 HD
ENDROOT
BRANCH   1   3
ATOM      3  C   UNL     1      46.617 -18.709 -37.325  0.00  0.00    +0.141 A 
ATOM      4  C   UNL     1      46.676 -18.223 -38.623  0.00  0.00    -0.018 A 
ATOM      5  C   UNL     1      46.757 -19.112 -39.696  0.00  0.00    -0.031 A 
ATOM      6  C   UNL     1      46.782 -20.478 -39.451  0.00  0.00    +0.093 A 
ATOM      7  N   UNL     1      46.749 -20.924 -38.177  0.00  0.00    -0.147 NA
ATOM      8  N   UNL     1      46.673 -20.038 -37.117  0.00  0.00    -0.134 NA
BRANCH   6   9
ATOM      9  C   UNL     1      46.855 -21.504 -40.509  0.00  0.00    +0.002 A 
ATOM     10  C   UNL     1      45.912 -21.573 -41.553  0.00  0.00    -0.053 A 
ATOM     11  C   UNL     1      45.997 -22.552 -42.549  0.00  0.00    -0.061 A 
ATOM     12  C   UNL     1      47.026 -23.488 -42.522  0.00  0.00    -0.062 A 
ATOM     13  C   UNL     1      47.969 -23.448 -41.499  0.00  0.00    -0.061 A 
ATOM     14  C   UNL     1      47.881 -22.470 -40.505  0.00  0.00    -0.053 A 
ENDBRANCH   6   9
ENDBRANCH   1   3
BRANCH   1  15
ATOM     15  C   UNL     1      45.238 -17.116 -36.165  0.00  0.00    +0.012 C 
BRANCH  15  16
ATOM     16  C   UNL     1      44.527 -17.513 -34.865  0.00  0.00    -0.025 C 
BRANCH  16  17
ATOM     17  C   UNL     1      43.377 -18.519 -35.032  0.00  0.00    +0.000 C 
BRANCH  17  19
ATOM     18  C   UNL     1      44.679 -20.460 -34.378  0.00  0.00    -0.012 C 
ATOM     19  N   UNL     1      43.816 -19.871 -35.411  0.00  0.00    -0.301 N 
ATOM     20  H   UNL     1      44.363 -19.796 -36.268  0.00  0.00    +0.000 HD
BRANCH  19  21
ATOM     21  C   UNL     1      42.651 -20.739 -35.670  0.00  0.00    +0.024 C 
BRANCH  21  22
ATOM     22  C   UNL     1      42.450 -21.055 -37.139  0.00  0.00    -0.033 A 
ATOM     23  C   UNL     1      43.168 -20.355 -38.120  0.00  0.00    -0.057 A 
ATOM     24  C   UNL     1      43.008 -20.666 -39.473  0.00  0.00    -0.061 A 
ATOM     25  C   UNL     1      42.137 -21.683 -39.859  0.00  0.00    -0.062 A 
ATOM     26  C   UNL     1      41.425 -22.393 -38.894  0.00  0.00    -0.061 A 
ATOM     27  C   UNL     1      41.585 -22.085 -37.542  0.00  0.00    -0.057 A 
ENDBRANCH  21  22
ENDBRANCH  19  21
ENDBRANCH  17  19
ENDBRANCH  16  17
ENDBRANCH  15  16
ENDBRANCH   1  15
TORSDOF 8
ENDMDL
MODEL 12
REMARK VINA RESULT:    -6.405      3.767      5.852
REMARK INTER + INTRA:         -10.773
REMARK INTER:                 -10.359
REMARK INTRA:                  -0.415
REMARK UNBOUND:                -1.373
REMARK  Name = cpd270.pdb
REMARK  9 active torsions:
REMARK  status: ('A' for Active; 'I' for Inactive)
REMARK    1  A    between atoms: C_1  and  N_2
REMARK    2  A    between atoms: N_2  and  C_3
REMARK    3  A    between atoms: N_2  and  C_19
REMARK    4  A    between atoms: C_3  and  C_4
REMARK    5  A    between atoms: C_4  and  C_5
REMARK    6  A    between atoms: C_5  and  N_6
REMARK    7  A    between atoms: N_6  and  C_7
REMARK    8  A    between atoms: C_10  and  C_11
REMARK    9  A    between atoms: C_19  and  C_20
REMARK                            x       y       z     vdW  Elec       q    Type
REMARK                         _______ _______ _______ _____ _____    ______ ____
ROOT
ATOM      1  N   UNL     1      34.887 -37.129 -28.005  0.00  0.00    -0.328 N 
ATOM      2  H   UNL     1      34.050 -36.788 -28.397  0.00  0.00    +0.000 HD
ENDROOT
BRANCH   1   3
ATOM      3  C   UNL     1      36.126 -37.097 -28.680  0.00  0.00    +0.141 A 
ATOM      4  C   UNL     1      37.199 -37.763 -28.107  0.00  0.00    -0.018 A 
ATOM      5  C   UNL     1      38.441 -37.759 -28.744  0.00  0.00    -0.031 A 
ATOM      6  C   UNL     1      38.588 -37.090 -29.952  0.00  0.00    +0.093 A 
ATOM      7  N   UNL     1      37.520 -36.471 -30.500  0.00  0.00    -0.147 NA
ATOM      8  N   UNL     1      36.290 -36.481 -29.867  0.00  0.00    -0.134 NA
BRANCH   6   9
ATOM      9  C   UNL     1      39.855 -37.014 -30.703  0.00  0.00    +0.002 A 
ATOM     10  C   UNL     1      39.972 -36.288 -31.904  0.00  0.00    -0.053 A 
ATOM     11  C   UNL     1      41.182 -36.225 -32.603  0.00  0.00    -0.061 A 
ATOM     12  C   UNL     1      42.304 -36.891 -32.119  0.00  0.00    -0.062 A 
ATOM     13  C   UNL     1      42.216 -37.622 -30.938  0.00  0.00    -0.061 A 
ATOM     14  C   UNL     1      41.005 -37.684 -30.242  0.00  0.00    -0.053 A 
ENDBRANCH   6   9
ENDBRANCH   1   3
BRANCH   1  15
ATOM     15  C   UNL     1      34.965 -37.716 -26.666  0.00  0.00    +0.012 C 
BRANCH  15  16
ATOM     16  C   UNL     1      33.753 -38.614 -26.392  0.00  0.00    -0.025 C 
BRANCH  16  17
ATOM     17  C   UNL     1      32.839 -38.144 -25.249  0.00  0.00    +0.000 C 
BRANCH  17  19
ATOM     18  C   UNL     1      30.846 -36.805 -25.603  0.00  0.00    -0.012 C 
ATOM     19  N   UNL     1      32.305 -36.786 -25.432  0.00  0.00    -0.301 N 
ATOM     20  H   UNL     1      32.714 -36.399 -26.282  0.00  0.00    +0.000 HD
BRANCH  19  21
ATOM     21  C   UNL     1      32.682 -35.925 -24.294  0.00  0.00    +0.024 C 
BRANCH  21  22
ATOM     22  C   UNL     1      32.889 -36.690 -23.002  0.00  0.00    -0.033 A 
ATOM     23  C   UNL     1      34.179 -36.875 -22.485  0.00  0.00    -0.057 A 
ATOM     24  C   UNL     1      34.370 -37.552 -21.278  0.00  0.00    -0.061 A 
ATOM     25  C   UNL     1      33.274 -38.046 -20.572  0.00  0.00    -0.062 A 
ATOM     26  C   UNL     1      31.986 -37.861 -21.070  0.00  0.00    -0.061 A 
ATOM     27  C   UNL     1      31.793 -37.182 -22.274  0.00  0.00    -0.057 A 
ENDBRANCH  21  22
ENDBRANCH  19  21
ENDBRANCH  17  19
ENDBRANCH  16  17
ENDBRANCH  15  16
ENDBRANCH   1  15
TORSDOF 8
ENDMDL
MODEL 13
REMARK VINA RESULT:    -6.387      2.392      4.637
REMARK INTER + INTRA:         -10.747
REMARK INTER:                  -9.009
REMARK INTRA:                  -1.739
REMARK UNBOUND:                -1.373
REMARK  Name = cpd270.pdb
REMARK  9 active torsions:
REMARK  status: ('A' for Active; 'I' for Inactive)
REMARK    1  A    between atoms: C_1  and  N_2
REMARK    2  A    between atoms: N_2  and  C_3
REMARK    3  A    between atoms: N_2  and  C_19
REMARK    4  A    between atoms: C_3  and  C_4
REMARK    5  A    between atoms: C_4  and  C_5
REMARK    6  A    between atoms: C_5  and  N_6
REMARK    7  A    between atoms: N_6  and  C_7
REMARK    8  A    between atoms: C_10  and  C_11
REMARK    9  A    between atoms: C_19  and  C_20
REMARK                            x       y       z     vdW  Elec       q    Type
REMARK                         _______ _______ _______ _____ _____    ______ ____
ROOT
ATOM      1  N   UNL     1      33.969 -35.822 -29.962  0.00  0.00    -0.328 N 
ATOM      2  H   UNL     1      33.632 -35.072 -29.420  0.00  0.00    +0.000 HD
ENDROOT
BRANCH   1   3
ATOM      3  C   UNL     1      35.333 -35.993 -30.282  0.00  0.00    +0.141 A 
ATOM      4  C   UNL     1      35.927 -37.210 -29.981  0.00  0.00    -0.018 A 
ATOM      5  C   UNL     1      37.272 -37.422 -30.285  0.00  0.00    -0.031 A 
ATOM      6  C   UNL     1      38.003 -36.410 -30.893  0.00  0.00    +0.093 A 
ATOM      7  N   UNL     1      37.394 -35.244 -31.198  0.00  0.00    -0.147 NA
ATOM      8  N   UNL     1      36.059 -35.041 -30.899  0.00  0.00    -0.134 NA
BRANCH   6   9
ATOM      9  C   UNL     1      39.431 -36.524 -31.247  0.00  0.00    +0.002 A 
ATOM     10  C   UNL     1      39.949 -36.003 -32.449  0.00  0.00    -0.053 A 
ATOM     11  C   UNL     1      41.306 -36.118 -32.768  0.00  0.00    -0.061 A 
ATOM     12  C   UNL     1      42.177 -36.762 -31.894  0.00  0.00    -0.062 A 
ATOM     13  C   UNL     1      41.692 -37.292 -30.703  0.00  0.00    -0.061 A 
ATOM     14  C   UNL     1      40.336 -37.176 -30.386  0.00  0.00    -0.053 A 
ENDBRANCH   6   9
ENDBRANCH   1   3
BRANCH   1  15
ATOM     15  C   UNL     1      33.103 -36.866 -30.512  0.00  0.00    +0.012 C 
BRANCH  15  16
ATOM     16  C   UNL     1      33.065 -36.794 -32.043  0.00  0.00    -0.025 C 
BRANCH  16  17
ATOM     17  C   UNL     1      32.020 -37.702 -32.712  0.00  0.00    +0.000 C 
BRANCH  17  19
ATOM     18  C   UNL     1      30.423 -39.442 -32.155  0.00  0.00    -0.012 C 
ATOM     19  N   UNL     1      31.812 -38.984 -32.022  0.00  0.00    -0.301 N 
ATOM     20  H   UNL     1      31.999 -38.841 -31.030  0.00  0.00    +0.000 HD
BRANCH  19  21
ATOM     21  C   UNL     1      32.747 -40.004 -32.535  0.00  0.00    +0.024 C 
BRANCH  21  22
ATOM     22  C   UNL     1      33.789 -40.431 -31.520  0.00  0.00    -0.033 A 
ATOM     23  C   UNL     1      35.126 -40.605 -31.907  0.00  0.00    -0.057 A 
ATOM     24  C   UNL     1      36.095 -40.967 -30.967  0.00  0.00    -0.061 A 
ATOM     25  C   UNL     1      35.739 -41.153 -29.632  0.00  0.00    -0.062 A 
ATOM     26  C   UNL     1      34.416 -40.975 -29.233  0.00  0.00    -0.061 A 
ATOM     27  C   UNL     1      33.448 -40.610 -30.170  0.00  0.00    -0.057 A 
ENDBRANCH  21  22
ENDBRANCH  19  21
ENDBRANCH  17  19
ENDBRANCH  16  17
ENDBRANCH  15  16
ENDBRANCH   1  15
TORSDOF 8
ENDMDL
MODEL 14
REMARK VINA RESULT:    -6.297     15.214     18.157
REMARK INTER + INTRA:         -10.615
REMARK INTER:                  -7.656
REMARK INTRA:                  -2.959
REMARK UNBOUND:                -1.373
REMARK  Name = cpd270.pdb
REMARK  9 active torsions:
REMARK  status: ('A' for Active; 'I' for Inactive)
REMARK    1  A    between atoms: C_1  and  N_2
REMARK    2  A    between atoms: N_2  and  C_3
REMARK    3  A    between atoms: N_2  and  C_19
REMARK    4  A    between atoms: C_3  and  C_4
REMARK    5  A    between atoms: C_4  and  C_5
REMARK    6  A    between atoms: C_5  and  N_6
REMARK    7  A    between atoms: N_6  and  C_7
REMARK    8  A    between atoms: C_10  and  C_11
REMARK    9  A    between atoms: C_19  and  C_20
REMARK                            x       y       z     vdW  Elec       q    Type
REMARK                         _______ _______ _______ _____ _____    ______ ____
ROOT
ATOM      1  N   UNL     1      41.844 -21.989 -40.225  0.00  0.00    -0.328 N 
ATOM      2  H   UNL     1      41.745 -22.679 -40.921  0.00  0.00    +0.000 HD
ENDROOT
BRANCH   1   3
ATOM      3  C   UNL     1      41.074 -21.967 -39.043  0.00  0.00    +0.141 A 
ATOM      4  C   UNL     1      40.184 -20.918 -38.863  0.00  0.00    -0.018 A 
ATOM      5  C   UNL     1      39.401 -20.860 -37.709  0.00  0.00    -0.031 A 
ATOM      6  C   UNL     1      39.517 -21.861 -36.753  0.00  0.00    +0.093 A 
ATOM      7  N   UNL     1      40.372 -22.884 -36.966  0.00  0.00    -0.147 NA
ATOM      8  N   UNL     1      41.144 -22.939 -38.113  0.00  0.00    -0.134 NA
BRANCH   6   9
ATOM      9  C   UNL     1      38.746 -21.892 -35.496  0.00  0.00    +0.002 A 
ATOM     10  C   UNL     1      37.947 -20.811 -35.079  0.00  0.00    -0.053 A 
ATOM     11  C   UNL     1      37.222 -20.859 -33.883  0.00  0.00    -0.061 A 
ATOM     12  C   UNL     1      37.283 -21.989 -33.074  0.00  0.00    -0.062 A 
ATOM     13  C   UNL     1      38.070 -23.070 -33.457  0.00  0.00    -0.061 A 
ATOM     14  C   UNL     1      38.794 -23.020 -34.652  0.00  0.00    -0.053 A 
ENDBRANCH   6   9
ENDBRANCH   1   3
BRANCH   1  15
ATOM     15  C   UNL     1      42.804 -20.888 -40.319  0.00  0.00    +0.012 C 
BRANCH  15  16
ATOM     16  C   UNL     1      43.827 -20.957 -39.179  0.00  0.00    -0.025 C 
BRANCH  16  17
ATOM     17  C   UNL     1      44.278 -19.595 -38.625  0.00  0.00    +0.000 C 
BRANCH  17  19
ATOM     18  C   UNL     1      44.938 -18.439 -36.596  0.00  0.00    -0.012 C 
ATOM     19  N   UNL     1      44.016 -19.416 -37.189  0.00  0.00    -0.301 N 
ATOM     20  H   UNL     1      44.172 -20.312 -36.727  0.00  0.00    +0.000 HD
BRANCH  19  21
ATOM     21  C   UNL     1      42.615 -19.009 -36.967  0.00  0.00    +0.024 C 
BRANCH  21  22
ATOM     22  C   UNL     1      42.086 -19.393 -35.599  0.00  0.00    -0.033 A 
ATOM     23  C   UNL     1      41.171 -18.564 -34.934  0.00  0.00    -0.057 A 
ATOM     24  C   UNL     1      40.657 -18.931 -33.688  0.00  0.00    -0.061 A 
ATOM     25  C   UNL     1      41.046 -20.131 -33.096  0.00  0.00    -0.062 A 
ATOM     26  C   UNL     1      41.947 -20.969 -33.750  0.00  0.00    -0.061 A 
ATOM     27  C   UNL     1      42.460 -20.605 -34.997  0.00  0.00    -0.057 A 
ENDBRANCH  21  22
ENDBRANCH  19  21
ENDBRANCH  17  19
ENDBRANCH  16  17
ENDBRANCH  15  16
ENDBRANCH   1  15
TORSDOF 8
ENDMDL
MODEL 15
REMARK VINA RESULT:    -6.264      2.260      4.620
REMARK INTER + INTRA:         -10.566
REMARK INTER:                  -8.217
REMARK INTRA:                  -2.349
REMARK UNBOUND:                -1.373
REMARK  Name = cpd270.pdb
REMARK  9 active torsions:
REMARK  status: ('A' for Active; 'I' for Inactive)
REMARK    1  A    between atoms: C_1  and  N_2
REMARK    2  A    between atoms: N_2  and  C_3
REMARK    3  A    between atoms: N_2  and  C_19
REMARK    4  A    between atoms: C_3  and  C_4
REMARK    5  A    between atoms: C_4  and  C_5
REMARK    6  A    between atoms: C_5  and  N_6
REMARK    7  A    between atoms: N_6  and  C_7
REMARK    8  A    between atoms: C_10  and  C_11
REMARK    9  A    between atoms: C_19  and  C_20
REMARK                            x       y       z     vdW  Elec       q    Type
REMARK                         _______ _______ _______ _____ _____    ______ ____
ROOT
ATOM      1  N   UNL     1      30.595 -35.405 -28.809  0.00  0.00    -0.328 N 
ATOM      2  H   UNL     1      30.149 -35.103 -27.984  0.00  0.00    +0.000 HD
ENDROOT
BRANCH   1   3
ATOM      3  C   UNL     1      31.951 -35.792 -28.856  0.00  0.00    +0.141 A 
ATOM      4  C   UNL     1      32.697 -35.703 -27.690  0.00  0.00    -0.018 A 
ATOM      5  C   UNL     1      34.041 -36.080 -27.693  0.00  0.00    -0.031 A 
ATOM      6  C   UNL     1      34.618 -36.545 -28.867  0.00  0.00    +0.093 A 
ATOM      7  N   UNL     1      33.863 -36.646 -29.982  0.00  0.00    -0.147 NA
ATOM      8  N   UNL     1      32.529 -36.276 -29.973  0.00  0.00    -0.134 NA
BRANCH   6   9
ATOM      9  C   UNL     1      36.029 -36.959 -28.984  0.00  0.00    +0.002 A 
ATOM     10  C   UNL     1      36.675 -37.712 -27.985  0.00  0.00    -0.053 A 
ATOM     11  C   UNL     1      38.014 -38.096 -28.114  0.00  0.00    -0.061 A 
ATOM     12  C   UNL     1      38.741 -37.732 -29.244  0.00  0.00    -0.062 A 
ATOM     13  C   UNL     1      38.130 -36.982 -30.244  0.00  0.00    -0.061 A 
ATOM     14  C   UNL     1      36.792 -36.599 -30.113  0.00  0.00    -0.053 A 
ENDBRANCH   6   9
ENDBRANCH   1   3
BRANCH   1  15
ATOM     15  C   UNL     1      29.914 -35.497 -30.101  0.00  0.00    +0.012 C 
BRANCH  15  16
ATOM     16  C   UNL     1      28.893 -34.366 -30.263  0.00  0.00    -0.025 C 
BRANCH  16  17
ATOM     17  C   UNL     1      29.248 -33.058 -29.537  0.00  0.00    +0.000 C 
BRANCH  17  19
ATOM     18  C   UNL     1      29.321 -30.933 -30.707  0.00  0.00    -0.012 C 
ATOM     19  N   UNL     1      30.074 -32.138 -30.334  0.00  0.00    -0.301 N 
ATOM     20  H   UNL     1      30.339 -32.618 -31.194  0.00  0.00    +0.000 HD
BRANCH  19  21
ATOM     21  C   UNL     1      31.302 -31.777 -29.599  0.00  0.00    +0.024 C 
BRANCH  21  22
ATOM     22  C   UNL     1      32.556 -32.404 -30.175  0.00  0.00    -0.033 A 
ATOM     23  C   UNL     1      33.716 -32.515 -29.395  0.00  0.00    -0.057 A 
ATOM     24  C   UNL     1      34.863 -33.122 -29.913  0.00  0.00    -0.061 A 
ATOM     25  C   UNL     1      34.862 -33.628 -31.212  0.00  0.00    -0.062 A 
ATOM     26  C   UNL     1      33.713 -33.531 -31.994  0.00  0.00    -0.061 A 
ATOM     27  C   UNL     1      32.565 -32.928 -31.477  0.00  0.00    -0.057 A 
ENDBRANCH  21  22
ENDBRANCH  19  21
ENDBRANCH  17  19
ENDBRANCH  16  17
ENDBRANCH  15  16
ENDBRANCH   1  15
TORSDOF 8
ENDMDL
MODEL 16
REMARK VINA RESULT:    -6.223     16.708     18.701
REMARK INTER + INTRA:         -10.507
REMARK INTER:                  -7.996
REMARK INTRA:                  -2.511
REMARK UNBOUND:                -1.373
REMARK  Name = cpd270.pdb
REMARK  9 active torsions:
REMARK  status: ('A' for Active; 'I' for Inactive)
REMARK    1  A    between atoms: C_1  and  N_2
REMARK    2  A    between atoms: N_2  and  C_3
REMARK    3  A    between atoms: N_2  and  C_19
REMARK    4  A    between atoms: C_3  and  C_4
REMARK    5  A    between atoms: C_4  and  C_5
REMARK    6  A    between atoms: C_5  and  N_6
REMARK    7  A    between atoms: N_6  and  C_7
REMARK    8  A    between atoms: C_10  and  C_11
REMARK    9  A    between atoms: C_19  and  C_20
REMARK                            x       y       z     vdW  Elec       q    Type
REMARK                         _______ _______ _______ _____ _____    ______ ____
ROOT
ATOM      1  N   UNL     1      42.556 -18.025 -36.077  0.00  0.00    -0.328 N 
ATOM      2  H   UNL     1      41.978 -17.248 -36.258  0.00  0.00    +0.000 HD
ENDROOT
BRANCH   1   3
ATOM      3  C   UNL     1      43.166 -18.788 -37.095  0.00  0.00    +0.141 A 
ATOM      4  C   UNL     1      42.947 -18.413 -38.412  0.00  0.00    -0.018 A 
ATOM      5  C   UNL     1      43.536 -19.139 -39.450  0.00  0.00    -0.031 A 
ATOM      6  C   UNL     1      44.342 -20.229 -39.150  0.00  0.00    +0.093 A 
ATOM      7  N   UNL     1      44.559 -20.556 -37.857  0.00  0.00    -0.147 NA
ATOM      8  N   UNL     1      43.977 -19.831 -36.833  0.00  0.00    -0.134 NA
BRANCH   6   9
ATOM      9  C   UNL     1      45.003 -21.069 -40.165  0.00  0.00    +0.002 A 
ATOM     10  C   UNL     1      44.506 -21.190 -41.478  0.00  0.00    -0.053 A 
ATOM     11  C   UNL     1      45.146 -21.991 -42.429  0.00  0.00    -0.061 A 
ATOM     12  C   UNL     1      46.298 -22.695 -42.089  0.00  0.00    -0.062 A 
ATOM     13  C   UNL     1      46.808 -22.600 -40.798  0.00  0.00    -0.061 A 
ATOM     14  C   UNL     1      46.166 -21.799 -39.849  0.00  0.00    -0.053 A 
ENDBRANCH   6   9
ENDBRANCH   1   3
BRANCH   1  15
ATOM     15  C   UNL     1      42.863 -18.498 -34.727  0.00  0.00    +0.012 C 
BRANCH  15  16
ATOM     16  C   UNL     1      41.713 -19.346 -34.170  0.00  0.00    -0.025 C 
BRANCH  16  17
ATOM     17  C   UNL     1      42.067 -20.813 -33.877  0.00  0.00    +0.000 C 
BRANCH  17  19
ATOM     18  C   UNL     1      40.587 -22.728 -33.698  0.00  0.00    -0.012 C 
ATOM     19  N   UNL     1      41.243 -21.784 -34.613  0.00  0.00    -0.301 N 
ATOM     20  H   UNL     1      41.860 -22.320 -35.224  0.00  0.00    +0.000 HD
BRANCH  19  21
ATOM     21  C   UNL     1      40.244 -21.089 -35.446  0.00  0.00    +0.024 C 
BRANCH  21  22
ATOM     22  C   UNL     1      40.451 -21.294 -36.934  0.00  0.00    -0.033 A 
ATOM     23  C   UNL     1      39.806 -20.463 -37.861  0.00  0.00    -0.057 A 
ATOM     24  C   UNL     1      40.020 -20.629 -39.232  0.00  0.00    -0.061 A 
ATOM     25  C   UNL     1      40.885 -21.622 -39.689  0.00  0.00    -0.062 A 
ATOM     26  C   UNL     1      41.539 -22.448 -38.778  0.00  0.00    -0.061 A 
ATOM     27  C   UNL     1      41.328 -22.281 -37.408  0.00  0.00    -0.057 A 
ENDBRANCH  21  22
ENDBRANCH  19  21
ENDBRANCH  17  19
ENDBRANCH  16  17
ENDBRANCH  15  16
ENDBRANCH   1  15
TORSDOF 8
ENDMDL
MODEL 17
REMARK VINA RESULT:    -6.024      2.000      2.918
REMARK INTER + INTRA:         -10.214
REMARK INTER:                  -9.181
REMARK INTRA:                  -1.033
REMARK UNBOUND:                -1.373
REMARK  Name = cpd270.pdb
REMARK  9 active torsions:
REMARK  status: ('A' for Active; 'I' for Inactive)
REMARK    1  A    between atoms: C_1  and  N_2
REMARK    2  A    between atoms: N_2  and  C_3
REMARK    3  A    between atoms: N_2  and  C_19
REMARK    4  A    between atoms: C_3  and  C_4
REMARK    5  A    between atoms: C_4  and  C_5
REMARK    6  A    between atoms: C_5  and  N_6
REMARK    7  A    between atoms: N_6  and  C_7
REMARK    8  A    between atoms: C_10  and  C_11
REMARK    9  A    between atoms: C_19  and  C_20
REMARK                            x       y       z     vdW  Elec       q    Type
REMARK                         _______ _______ _______ _____ _____    ______ ____
ROOT
ATOM      1  N   UNL     1      34.760 -37.277 -28.252  0.00  0.00    -0.328 N 
ATOM      2  H   UNL     1      33.897 -37.160 -28.712  0.00  0.00    +0.000 HD
ENDROOT
BRANCH   1   3
ATOM      3  C   UNL     1      36.006 -37.166 -28.906  0.00  0.00    +0.141 A 
ATOM      4  C   UNL     1      37.132 -37.644 -28.251  0.00  0.00    -0.018 A 
ATOM      5  C   UNL     1      38.383 -37.557 -28.864  0.00  0.00    -0.031 A 
ATOM      6  C   UNL     1      38.486 -36.996 -30.130  0.00  0.00    +0.093 A 
ATOM      7  N   UNL     1      37.371 -36.562 -30.756  0.00  0.00    -0.147 NA
ATOM      8  N   UNL     1      36.132 -36.654 -30.145  0.00  0.00    -0.134 NA
BRANCH   6   9
ATOM      9  C   UNL     1      39.757 -36.846 -30.864  0.00  0.00    +0.002 A 
ATOM     10  C   UNL     1      39.823 -36.237 -32.132  0.00  0.00    -0.053 A 
ATOM     11  C   UNL     1      41.038 -36.102 -32.813  0.00  0.00    -0.061 A 
ATOM     12  C   UNL     1      42.215 -36.577 -32.243  0.00  0.00    -0.062 A 
ATOM     13  C   UNL     1      42.179 -37.189 -30.994  0.00  0.00    -0.061 A 
ATOM     14  C   UNL     1      40.964 -37.324 -30.316  0.00  0.00    -0.053 A 
ENDBRANCH   6   9
ENDBRANCH   1   3
BRANCH   1  15
ATOM     15  C   UNL     1      34.874 -37.582 -26.825  0.00  0.00    +0.012 C 
BRANCH  15  16
ATOM     16  C   UNL     1      33.706 -36.973 -26.041  0.00  0.00    -0.025 C 
BRANCH  16  17
ATOM     17  C   UNL     1      32.332 -37.602 -26.324  0.00  0.00    +0.000 C 
BRANCH  17  19
ATOM     18  C   UNL     1      30.068 -36.804 -25.969  0.00  0.00    -0.012 C 
ATOM     19  N   UNL     1      31.306 -36.635 -26.742  0.00  0.00    -0.301 N 
ATOM     20  H   UNL     1      31.088 -36.812 -27.722  0.00  0.00    +0.000 HD
BRANCH  19  21
ATOM     21  C   UNL     1      31.814 -35.255 -26.613  0.00  0.00    +0.024 C 
BRANCH  21  22
ATOM     22  C   UNL     1      31.748 -34.466 -27.906  0.00  0.00    -0.033 A 
ATOM     23  C   UNL     1      31.396 -33.108 -27.891  0.00  0.00    -0.057 A 
ATOM     24  C   UNL     1      31.366 -32.371 -29.077  0.00  0.00    -0.061 A 
ATOM     25  C   UNL     1      31.692 -32.979 -30.288  0.00  0.00    -0.062 A 
ATOM     26  C   UNL     1      32.052 -34.324 -30.315  0.00  0.00    -0.061 A 
ATOM     27  C   UNL     1      32.086 -35.062 -29.131  0.00  0.00    -0.057 A 
ENDBRANCH  21  22
ENDBRANCH  19  21
ENDBRANCH  17  19
ENDBRANCH  16  17
ENDBRANCH  15  16
ENDBRANCH   1  15
TORSDOF 8
ENDMDL
MODEL 18
REMARK VINA RESULT:    -5.976     19.786     21.808
REMARK INTER + INTRA:         -10.144
REMARK INTER:                  -7.435
REMARK INTRA:                  -2.708
REMARK UNBOUND:                -1.373
REMARK  Name = cpd270.pdb
REMARK  9 active torsions:
REMARK  status: ('A' for Active; 'I' for Inactive)
REMARK    1  A    between atoms: C_1  and  N_2
REMARK    2  A    between atoms: N_2  and  C_3
REMARK    3  A    between atoms: N_2  and  C_19
REMARK    4  A    between atoms: C_3  and  C_4
REMARK    5  A    between atoms: C_4  and  C_5
REMARK    6  A    between atoms: C_5  and  N_6
REMARK    7  A    between atoms: N_6  and  C_7
REMARK    8  A    between atoms: C_10  and  C_11
REMARK    9  A    between atoms: C_19  and  C_20
REMARK                            x       y       z     vdW  Elec       q    Type
REMARK                         _______ _______ _______ _____ _____    ______ ____
ROOT
ATOM      1  N   UNL     1      42.433 -17.725 -38.123  0.00  0.00    -0.328 N 
ATOM      2  H   UNL     1      42.088 -17.842 -37.208  0.00  0.00    +0.000 HD
ENDROOT
BRANCH   1   3
ATOM      3  C   UNL     1      43.255 -18.675 -38.767  0.00  0.00    +0.141 A 
ATOM      4  C   UNL     1      43.484 -19.882 -38.124  0.00  0.00    -0.018 A 
ATOM      5  C   UNL     1      44.288 -20.851 -38.728  0.00  0.00    -0.031 A 
ATOM      6  C   UNL     1      44.847 -20.595 -39.972  0.00  0.00    +0.093 A 
ATOM      7  N   UNL     1      44.587 -19.421 -40.588  0.00  0.00    -0.147 NA
ATOM      8  N   UNL     1      43.786 -18.467 -39.986  0.00  0.00    -0.134 NA
BRANCH   6   9
ATOM      9  C   UNL     1      45.718 -21.541 -40.694  0.00  0.00    +0.002 A 
ATOM     10  C   UNL     1      46.877 -22.088 -40.111  0.00  0.00    -0.053 A 
ATOM     11  C   UNL     1      47.692 -22.985 -40.810  0.00  0.00    -0.061 A 
ATOM     12  C   UNL     1      47.368 -23.355 -42.112  0.00  0.00    -0.062 A 
ATOM     13  C   UNL     1      46.232 -22.825 -42.717  0.00  0.00    -0.061 A 
ATOM     14  C   UNL     1      45.421 -21.928 -42.016  0.00  0.00    -0.053 A 
ENDBRANCH   6   9
ENDBRANCH   1   3
BRANCH   1  15
ATOM     15  C   UNL     1      42.142 -16.550 -38.945  0.00  0.00    +0.012 C 
BRANCH  15  16
ATOM     16  C   UNL     1      42.992 -15.352 -38.506  0.00  0.00    -0.025 C 
BRANCH  16  17
ATOM     17  C   UNL     1      44.055 -14.900 -39.521  0.00  0.00    +0.000 C 
BRANCH  17  19
ATOM     18  C   UNL     1      46.089 -15.454 -40.722  0.00  0.00    -0.012 C 
ATOM     19  N   UNL     1      45.251 -15.755 -39.554  0.00  0.00    -0.301 N 
ATOM     20  H   UNL     1      44.943 -16.724 -39.632  0.00  0.00    +0.000 HD
BRANCH  19  21
ATOM     21  C   UNL     1      46.026 -15.607 -38.307  0.00  0.00    +0.024 C 
BRANCH  21  22
ATOM     22  C   UNL     1      46.342 -16.927 -37.633  0.00  0.00    -0.033 A 
ATOM     23  C   UNL     1      45.881 -17.190 -36.335  0.00  0.00    -0.057 A 
ATOM     24  C   UNL     1      46.143 -18.418 -35.724  0.00  0.00    -0.061 A 
ATOM     25  C   UNL     1      46.863 -19.399 -36.404  0.00  0.00    -0.062 A 
ATOM     26  C   UNL     1      47.319 -19.154 -37.698  0.00  0.00    -0.061 A 
ATOM     27  C   UNL     1      47.056 -17.928 -38.311  0.00  0.00    -0.057 A 
ENDBRANCH  21  22
ENDBRANCH  19  21
ENDBRANCH  17  19
ENDBRANCH  16  17
ENDBRANCH  15  16
ENDBRANCH   1  15
TORSDOF 8
ENDMDL
MODEL 19
REMARK VINA RESULT:    -5.791     18.812     20.388
REMARK INTER + INTRA:          -9.873
REMARK INTER:                  -7.465
REMARK INTRA:                  -2.408
REMARK UNBOUND:                -1.373
REMARK  Name = cpd270.pdb
REMARK  9 active torsions:
REMARK  status: ('A' for Active; 'I' for Inactive)
REMARK    1  A    between atoms: C_1  and  N_2
REMARK    2  A    between atoms: N_2  and  C_3
REMARK    3  A    between atoms: N_2  and  C_19
REMARK    4  A    between atoms: C_3  and  C_4
REMARK    5  A    between atoms: C_4  and  C_5
REMARK    6  A    between atoms: C_5  and  N_6
REMARK    7  A    between atoms: N_6  and  C_7
REMARK    8  A    between atoms: C_10  and  C_11
REMARK    9  A    between atoms: C_19  and  C_20
REMARK                            x       y       z     vdW  Elec       q    Type
REMARK                         _______ _______ _______ _____ _____    ______ ____
ROOT
ATOM      1  N   UNL     1      42.314 -17.887 -35.901  0.00  0.00    -0.328 N 
ATOM      2  H   UNL     1      42.413 -16.912 -35.804  0.00  0.00    +0.000 HD
ENDROOT
BRANCH   1   3
ATOM      3  C   UNL     1      42.952 -18.632 -36.915  0.00  0.00    +0.141 A 
ATOM      4  C   UNL     1      43.733 -17.947 -37.834  0.00  0.00    -0.018 A 
ATOM      5  C   UNL     1      44.385 -18.647 -38.852  0.00  0.00    -0.031 A 
ATOM      6  C   UNL     1      44.249 -20.026 -38.928  0.00  0.00    +0.093 A 
ATOM      7  N   UNL     1      43.503 -20.671 -38.005  0.00  0.00    -0.147 NA
ATOM      8  N   UNL     1      42.862 -19.973 -36.997  0.00  0.00    -0.134 NA
BRANCH   6   9
ATOM      9  C   UNL     1      44.884 -20.860 -39.966  0.00  0.00    +0.002 A 
ATOM     10  C   UNL     1      46.005 -21.669 -39.696  0.00  0.00    -0.053 A 
ATOM     11  C   UNL     1      46.594 -22.455 -40.692  0.00  0.00    -0.061 A 
ATOM     12  C   UNL     1      46.078 -22.448 -41.984  0.00  0.00    -0.062 A 
ATOM     13  C   UNL     1      44.975 -21.653 -42.282  0.00  0.00    -0.061 A 
ATOM     14  C   UNL     1      44.389 -20.868 -41.285  0.00  0.00    -0.053 A 
ENDBRANCH   6   9
ENDBRANCH   1   3
BRANCH   1  15
ATOM     15  C   UNL     1      41.490 -18.702 -35.006  0.00  0.00    +0.012 C 
BRANCH  15  16
ATOM     16  C   UNL     1      42.160 -18.856 -33.636  0.00  0.00    -0.025 C 
BRANCH  16  17
ATOM     17  C   UNL     1      42.819 -17.581 -33.085  0.00  0.00    +0.000 C 
BRANCH  17  19
ATOM     18  C   UNL     1      44.843 -17.151 -31.819  0.00  0.00    -0.012 C 
ATOM     19  N   UNL     1      44.289 -17.615 -33.098  0.00  0.00    -0.301 N 
ATOM     20  H   UNL     1      44.612 -16.979 -33.826  0.00  0.00    +0.000 HD
BRANCH  19  21
ATOM     21  C   UNL     1      44.772 -18.974 -33.411  0.00  0.00    +0.024 C 
BRANCH  21  22
ATOM     22  C   UNL     1      45.730 -19.017 -34.585  0.00  0.00    -0.033 A 
ATOM     23  C   UNL     1      45.983 -20.225 -35.251  0.00  0.00    -0.057 A 
ATOM     24  C   UNL     1      46.841 -20.261 -36.353  0.00  0.00    -0.061 A 
ATOM     25  C   UNL     1      47.449 -19.092 -36.805  0.00  0.00    -0.062 A 
ATOM     26  C   UNL     1      47.200 -17.883 -36.158  0.00  0.00    -0.061 A 
ATOM     27  C   UNL     1      46.341 -17.845 -35.059  0.00  0.00    -0.057 A 
ENDBRANCH  21  22
ENDBRANCH  19  21
ENDBRANCH  17  19
ENDBRANCH  16  17
ENDBRANCH  15  16
ENDBRANCH   1  15
TORSDOF 8
ENDMDL
MODEL 20
REMARK VINA RESULT:    -5.663     15.999     18.694
REMARK INTER + INTRA:          -9.685
REMARK INTER:                  -6.769
REMARK INTRA:                  -2.916
REMARK UNBOUND:                -1.373
REMARK  Name = cpd270.pdb
REMARK  9 active torsions:
REMARK  status: ('A' for Active; 'I' for Inactive)
REMARK    1  A    between atoms: C_1  and  N_2
REMARK    2  A    between atoms: N_2  and  C_3
REMARK    3  A    between atoms: N_2  and  C_19
REMARK    4  A    between atoms: C_3  and  C_4
REMARK    5  A    between atoms: C_4  and  C_5
REMARK    6  A    between atoms: C_5  and  N_6
REMARK    7  A    between atoms: N_6  and  C_7
REMARK    8  A    between atoms: C_10  and  C_11
REMARK    9  A    between atoms: C_19  and  C_20
REMARK                            x       y       z     vdW  Elec       q    Type
REMARK                         _______ _______ _______ _____ _____    ______ ____
ROOT
ATOM      1  N   UNL     1      44.195 -17.410 -33.311  0.00  0.00    -0.328 N 
ATOM      2  H   UNL     1      44.464 -16.582 -32.850  0.00  0.00    +0.000 HD
ENDROOT
BRANCH   1   3
ATOM      3  C   UNL     1      42.902 -17.967 -33.209  0.00  0.00    +0.141 A 
ATOM      4  C   UNL     1      42.794 -19.313 -32.893  0.00  0.00    -0.018 A 
ATOM      5  C   UNL     1      41.534 -19.902 -32.779  0.00  0.00    -0.031 A 
ATOM      6  C   UNL     1      40.398 -19.130 -32.979  0.00  0.00    +0.093 A 
ATOM      7  N   UNL     1      40.531 -17.816 -33.262  0.00  0.00    -0.147 NA
ATOM      8  N   UNL     1      41.783 -17.236 -33.369  0.00  0.00    -0.134 NA
BRANCH   6   9
ATOM      9  C   UNL     1      39.021 -19.652 -32.894  0.00  0.00    +0.002 A 
ATOM     10  C   UNL     1      37.894 -18.820 -33.036  0.00  0.00    -0.053 A 
ATOM     11  C   UNL     1      36.595 -19.333 -32.953  0.00  0.00    -0.061 A 
ATOM     12  C   UNL     1      36.392 -20.690 -32.723  0.00  0.00    -0.062 A 
ATOM     13  C   UNL     1      37.488 -21.535 -32.572  0.00  0.00    -0.061 A 
ATOM     14  C   UNL     1      38.785 -21.020 -32.654  0.00  0.00    -0.053 A 
ENDBRANCH   6   9
ENDBRANCH   1   3
BRANCH   1  15
ATOM     15  C   UNL     1      45.099 -18.180 -34.167  0.00  0.00    +0.012 C 
BRANCH  15  16
ATOM     16  C   UNL     1      44.665 -18.096 -35.635  0.00  0.00    -0.025 C 
BRANCH  16  17
ATOM     17  C   UNL     1      44.973 -19.344 -36.478  0.00  0.00    +0.000 C 
BRANCH  17  19
ATOM     18  C   UNL     1      44.166 -20.574 -38.408  0.00  0.00    -0.012 C 
ATOM     19  N   UNL     1      43.796 -19.919 -37.147  0.00  0.00    -0.301 N 
ATOM     20  H   UNL     1      43.156 -19.155 -37.368  0.00  0.00    +0.000 HD
BRANCH  19  21
ATOM     21  C   UNL     1      43.104 -20.867 -36.253  0.00  0.00    +0.024 C 
BRANCH  21  22
ATOM     22  C   UNL     1      41.593 -20.767 -36.320  0.00  0.00    -0.033 A 
ATOM     23  C   UNL     1      40.795 -21.888 -36.050  0.00  0.00    -0.057 A 
ATOM     24  C   UNL     1      39.402 -21.791 -36.079  0.00  0.00    -0.061 A 
ATOM     25  C   UNL     1      38.792 -20.572 -36.372  0.00  0.00    -0.062 A 
ATOM     26  C   UNL     1      39.573 -19.449 -36.633  0.00  0.00    -0.061 A 
ATOM     27  C   UNL     1      40.965 -19.544 -36.601  0.00  0.00    -0.057 A 
ENDBRANCH  21  22
ENDBRANCH  19  21
ENDBRANCH  17  19
ENDBRANCH  16  17
ENDBRANCH  15  16
ENDBRANCH   1  15
TORSDOF 8
ENDMDL
