REMARK  Name = cpd270.pdb
REMARK  9 active torsions:
REMARK  status: ('A' for Active; 'I' for Inactive)
REMARK    1  A    between atoms: C_1  and  N_2
REMARK    2  A    between atoms: N_2  and  C_3
REMARK    3  A    between atoms: N_2  and  C_19
REMARK    4  A    between atoms: C_3  and  C_4
REMARK    5  A    between atoms: C_4  and  C_5
REMARK    6  A    between atoms: C_5  and  N_6
REMARK    7  A    between atoms: N_6  and  C_7
REMARK    8  A    between atoms: C_10  and  C_11
REMARK    9  A    between atoms: C_19  and  C_20
REMARK                            x       y       z     vdW  Elec       q    Type
REMARK                         _______ _______ _______ _____ _____    ______ ____
ROOT
ATOM      1  N   UNL     1      -0.551   2.703   0.972  0.00  0.00    -0.328 N 
ATOM      2  H   UNL     1      -0.014   2.639   1.795  0.00  0.00    +0.000 HD
ENDROOT
BRANCH   1   3
ATOM      3  C   UNL     1      -1.793   2.053   0.807  0.00  0.00    +0.141 A 
ATOM      4  C   UNL     1      -2.219   1.195   1.810  0.00  0.00    -0.018 A 
ATOM      5  C   UNL     1      -3.443   0.535   1.688  0.00  0.00    -0.031 A 
ATOM      6  C   UNL     1      -4.226   0.750   0.562  0.00  0.00    +0.093 A 
ATOM      7  N   UNL     1      -3.799   1.610  -0.388  0.00  0.00    -0.147 NA
ATOM      8  N   UNL     1      -2.587   2.265  -0.260  0.00  0.00    -0.134 NA
BRANCH   6   9
ATOM      9  C   UNL     1      -5.528   0.098   0.327  0.00  0.00    +0.002 A 
ATOM     10  C   UNL     1      -5.825  -1.185   0.826  0.00  0.00    -0.053 A 
ATOM     11  C   UNL     1      -7.066  -1.788   0.594  0.00  0.00    -0.061 A 
ATOM     12  C   UNL     1      -8.039  -1.123  -0.146  0.00  0.00    -0.062 A 
ATOM     13  C   UNL     1      -7.771   0.143  -0.657  0.00  0.00    -0.061 A 
ATOM     14  C   UNL     1      -6.530   0.743  -0.425  0.00  0.00    -0.053 A 
ENDBRANCH   6   9
ENDBRANCH   1   3
BRANCH   1  15
ATOM     15  C   UNL     1      -0.138   3.481  -0.197  0.00  0.00    +0.012 C 
BRANCH  15  16
ATOM     16  C   UNL     1       1.183   4.211   0.071  0.00  0.00    -0.025 C 
BRANCH  16  17
ATOM     17  C   UNL     1       2.338   3.315   0.547  0.00  0.00    +0.000 C 
BRANCH  17  19
ATOM     18  C   UNL     1       3.060   2.397  -1.580  0.00  0.00    -0.012 C 
ATOM     19  N   UNL     1       2.514   2.092  -0.251  0.00  0.00    -0.301 N 
ATOM     20  H   UNL     1       1.596   1.667  -0.381  0.00  0.00    +0.000 HD
BRANCH  19  21
ATOM     21  C   UNL     1       3.381   1.132   0.459  0.00  0.00    +0.024 C 
BRANCH  21  22
ATOM     22  C   UNL     1       3.321  -0.271  -0.112  0.00  0.00    -0.033 A 
ATOM     23  C   UNL     1       4.500  -0.996  -0.338  0.00  0.00    -0.057 A 
ATOM     24  C   UNL     1       4.446  -2.301  -0.834  0.00  0.00    -0.061 A 
ATOM     25  C   UNL     1       3.215  -2.897  -1.103  0.00  0.00    -0.062 A 
ATOM     26  C   UNL     1       2.036  -2.191  -0.874  0.00  0.00    -0.061 A 
ATOM     27  C   UNL     1       2.088  -0.888  -0.376  0.00  0.00    -0.057 A 
ENDBRANCH  21  22
ENDBRANCH  19  21
ENDBRANCH  17  19
ENDBRANCH  16  17
ENDBRANCH  15  16
ENDBRANCH   1  15
TORSDOF 8
