@<TRIPOS>MOLECULE
*****
 25 27 0 0 0
SMALL
GASTEIGER

@<TRIPOS>ATOM
      1 C           2.5981    1.5000    0.0000 C.3     1  UNL1        0.0899
      2 N           1.7321    2.0000    0.0000 N.3     1  UNL1       -0.2677
      3 C           1.7321    3.0000    0.0000 C.3     1  UNL1        0.0742
      4 C           0.8660    3.5000    0.0000 C.3     1  UNL1        0.0407
      5 C           0.0000    3.0000    0.0000 C.3     1  UNL1        0.1153
      6 N           0.0000    2.0000    0.0000 N.pl3   1  UNL1       -0.2188
      7 C          -0.8660    1.5000    0.0000 C.ar    1  UNL1        0.1693
      8 C          -0.8660    0.5000    0.0000 C.ar    1  UNL1        0.0392
      9 C          -1.7321    0.0000    0.0000 C.ar    1  UNL1        0.0239
     10 C          -2.5981    0.5000    0.0000 C.ar    1  UNL1        0.1030
     11 C          -3.4641    0.0000    0.0000 C.ar    1  UNL1        0.0194
     12 C          -3.4641   -1.0000    0.0000 C.ar    1  UNL1        0.0016
     13 C          -4.3301   -1.5000    0.0000 C.ar    1  UNL1        0.0000
     14 C          -5.1962   -1.0000    0.0000 C.ar    1  UNL1        0.0000
     15 C          -5.1962    0.0000    0.0000 C.ar    1  UNL1        0.0000
     16 C          -4.3301    0.5000    0.0000 C.ar    1  UNL1        0.0016
     17 N          -2.5981    1.5000    0.0000 N.ar    1  UNL1       -0.1467
     18 N          -1.7321    2.0000    0.0000 N.ar    1  UNL1       -0.1314
     19 C           0.8660    1.5000    0.0000 C.3     1  UNL1        0.0992
     20 C           0.8660    0.5000    0.0000 C.ar    1  UNL1       -0.0061
     21 C           1.7321    0.0000    0.0000 C.ar    1  UNL1       -0.0029
     22 C           1.7321   -1.0000    0.0000 C.ar    1  UNL1       -0.0003
     23 C           0.8660   -1.5000    0.0000 C.ar    1  UNL1       -0.0000
     24 C           0.0000   -1.0000    0.0000 C.ar    1  UNL1       -0.0003
     25 C          -0.0000   -0.0000    0.0000 C.ar    1  UNL1       -0.0029
@<TRIPOS>BOND
     1     1     2    1
     2     2     3    1
     3     3     4    1
     4     4     5    1
     5     5     6    1
     6     6     7    1
     7     7     8   ar
     8     8     9   ar
     9     9    10   ar
    10    10    11    1
    11    11    12   ar
    12    12    13   ar
    13    13    14   ar
    14    14    15   ar
    15    15    16   ar
    16    11    16   ar
    17    10    17   ar
    18    17    18   ar
    19     7    18   ar
    20     2    19    1
    21    19    20    1
    22    20    21   ar
    23    21    22   ar
    24    22    23   ar
    25    23    24   ar
    26    24    25   ar
    27    20    25   ar
