@<TRIPOS>MOLECULE
*****
 32 34 0 0 0
SMALL
GASTEIGER

@<TRIPOS>ATOM
      1 C          -5.1962    1.0000    0.0000 C.3     1  UNL1        0.0006
      2 C          -5.1962    0.0000    0.0000 C.3     1  UNL1        0.0111
      3 C          -6.0622   -0.5000    0.0000 C.3     1  UNL1        0.0009
      4 C          -6.9282    0.0000    0.0000 C.3     1  UNL1        0.0041
      5 C          -7.7942   -0.5000    0.0000 C.3     1  UNL1        0.0205
      6 C          -7.7942   -1.5000    0.0000 C.2     1  UNL1       -0.0162
      7 C          -6.9282   -2.0000    0.0000 C.3     1  UNL1        0.2041
      8 O          -6.9282   -3.0000    0.0000 O.3     1  UNL1       -0.2155
      9 C          -8.6603   -2.0000    0.0000 C.2     1  UNL1       -0.0321
     10 C          -9.5263   -1.5000    0.0000 C.3     1  UNL1        0.0255
     11 C          -9.5263   -0.5000    0.0000 C.3     1  UNL1        0.0046
     12 C         -10.3923    0.0000    0.0000 C.3     1  UNL1        0.0003
     13 C         -11.3923    0.0000    0.0000 C.3     1  UNL1        0.0000
     14 C         -10.8923   -0.8660    0.0000 C.3     1  UNL1        0.0000
     15 C         -10.3923    1.0000    0.0000 C.3     1  UNL1        0.0000
     16 C          -9.5263    1.5000    0.0000 C.3     1  UNL1        0.0000
     17 C          -8.6603    1.0000    0.0000 C.3     1  UNL1        0.0003
     18 C          -8.6603    0.0000    0.0000 C.3     1  UNL1        0.0038
     19 C          -7.7942    0.5000    0.0000 C.3     1  UNL1        0.0003
     20 C          -4.3301   -0.5000    0.0000 C.3     1  UNL1        0.1096
     21 C          -3.4641    0.0000    0.0000 C.2     1  UNL1        0.3170
     22 O          -2.5981   -0.5000    0.0000 O.2     1  UNL1       -0.2501
     23 O          -3.4641    1.0000    0.0000 O.3     1  UNL1       -0.4484
     24 C          -2.5981    1.5000    0.0000 C.3     1  UNL1        0.2099
     25 C          -1.7321    1.0000    0.0000 C.3     1  UNL1        0.0647
     26 C          -0.8660    1.5000    0.0000 C.3     1  UNL1        0.0759
     27 N          -0.0000    1.0000    0.0000 N.3     1  UNL1       -0.2726
     28 C           0.8660    1.5000    0.0000 C.3     1  UNL1        0.0721
     29 C           1.7321    1.0000    0.0000 C.3     1  UNL1        0.0174
     30 C           1.7321   -0.0000    0.0000 C.3     1  UNL1        0.0029
     31 C           0.8660   -0.5000    0.0000 C.3     1  UNL1        0.0174
     32 C           0.0000   -0.0000    0.0000 C.3     1  UNL1        0.0721
@<TRIPOS>BOND
     1     1     2    1
     2     2     3    1
     3     3     4    1
     4     4     5    1
     5     5     6    1
     6     6     7    1
     7     7     8    1
     8     6     9    2
     9     9    10    1
    10    10    11    1
    11    11    12    1
    12    12    13    1
    13    12    14    1
    14    12    15    1
    15    15    16    1
    16    16    17    1
    17    17    18    1
    18     5    18    1
    19    11    18    1
    20    18    19    1
    21     2    20    1
    22    20    21    1
    23    21    22    2
    24    21    23    1
    25    23    24    1
    26    24    25    1
    27    25    26    1
    28    26    27    1
    29    27    28    1
    30    28    29    1
    31    29    30    1
    32    30    31    1
    33    31    32    1
    34    27    32    1
