REMARK  Name = cpd303.pdb
REMARK  16 active torsions:
REMARK  status: ('A' for Active; 'I' for Inactive)
REMARK    1  A    between atoms: C_1  and  C_2
REMARK    2  A    between atoms: C_2  and  C_3
REMARK    3  A    between atoms: C_2  and  C_20
REMARK    4  A    between atoms: C_3  and  C_4
REMARK    5  A    between atoms: C_4  and  C_5
REMARK    6  A    between atoms: C_6  and  C_7
REMARK    7  A    between atoms: C_7  and  O_8
REMARK    8  A    between atoms: C_12  and  C_13
REMARK    9  A    between atoms: C_12  and  C_14
REMARK   10  A    between atoms: C_18  and  C_19
REMARK   11  A    between atoms: C_20  and  C_21
REMARK   12  A    between atoms: C_21  and  O_23
REMARK   13  A    between atoms: O_23  and  C_24
REMARK   14  A    between atoms: C_24  and  C_25
REMARK   15  A    between atoms: C_25  and  C_26
REMARK   16  A    between atoms: C_26  and  N_27
REMARK                            x       y       z     vdW  Elec       q    Type
REMARK                         _______ _______ _______ _____ _____    ______ ____
ROOT
ATOM      1  C   UNL     1      -6.028  -0.161   2.172  0.00  0.00    -0.049 C 
ENDROOT
BRANCH   1   3
ATOM      2  C   UNL     1      -5.200   1.865   0.871  0.00  0.00    -0.062 C 
ATOM      3  C   UNL     1      -5.088   0.353   1.062  0.00  0.00    -0.034 C 
BRANCH   3   4
ATOM      4  C   UNL     1      -3.626  -0.074   1.313  0.00  0.00    +0.048 C 
BRANCH   4   5
ATOM      5  C   UNL     1      -3.028   0.462   2.596  0.00  0.00    +0.307 C 
ATOM      6  O   UNL     1      -3.325  -0.030   3.683  0.00  0.00    -0.251 OA
BRANCH   5   7
ATOM      7  O   UNL     1      -2.200   1.529   2.541  0.00  0.00    -0.465 OA
BRANCH   7   8
ATOM      8  C   UNL     1      -1.562   2.026   1.348  0.00  0.00    +0.094 C 
BRANCH   8   9
ATOM      9  C   UNL     1      -0.340   1.177   1.009  0.00  0.00    -0.006 C 
BRANCH   9  10
ATOM     10  C   UNL     1       0.366   1.707  -0.243  0.00  0.00    +0.002 C 
BRANCH  10  11
ATOM     11  N   UNL     1       1.640   1.022  -0.517  0.00  0.00    -0.302 N 
ATOM     12  C   UNL     1       2.406   1.772  -1.529  0.00  0.00    -0.001 C 
ATOM     13  C   UNL     1       3.773   1.138  -1.784  0.00  0.00    -0.040 C 
ATOM     14  C   UNL     1       3.637  -0.321  -2.197  0.00  0.00    -0.051 C 
ATOM     15  C   UNL     1       2.784  -1.077  -1.187  0.00  0.00    -0.040 C 
ATOM     16  C   UNL     1       1.446  -0.373  -0.944  0.00  0.00    -0.001 C 
ATOM     17  H   UNL     1       2.167   0.993   0.356  0.00  0.00    +0.000 HD
ENDBRANCH  10  11
ENDBRANCH   9  10
ENDBRANCH   8   9
ENDBRANCH   7   8
ENDBRANCH   5   7
ENDBRANCH   4   5
ENDBRANCH   3   4
ENDBRANCH   1   3
BRANCH   1  18
ATOM     18  C   UNL     1      -7.549  -0.060   1.919  0.00  0.00    -0.046 C 
BRANCH  18  19
ATOM     19  C   UNL     1      -8.144  -0.677   0.606  0.00  0.00    -0.012 C 
ATOM     20  C   UNL     1      -8.303  -2.204   0.672  0.00  0.00    -0.045 C 
ATOM     21  C   UNL     1      -9.396  -2.813   0.181  0.00  0.00    -0.082 C 
ATOM     22  C   UNL     1     -10.536  -2.133  -0.490  0.00  0.00    -0.031 C 
ATOM     23  C   UNL     1     -10.248  -0.691  -0.968  0.00  0.00    -0.027 C 
ATOM     24  C   UNL     1     -11.564   0.027  -1.499  0.00  0.00    -0.031 C 
ATOM     25  C   UNL     1     -11.243   0.857  -2.767  0.00  0.00    -0.060 C 
ATOM     26  C   UNL     1     -12.659  -0.975  -1.957  0.00  0.00    -0.060 C 
ATOM     27  C   UNL     1     -12.192   0.957  -0.427  0.00  0.00    -0.048 C 
ATOM     28  C   UNL     1     -11.928   0.497   1.000  0.00  0.00    -0.052 C 
ATOM     29  C   UNL     1     -10.444   0.338   1.354  0.00  0.00    -0.047 C 
ATOM     30  C   UNL     1      -9.481   0.102   0.153  0.00  0.00    -0.022 C 
ATOM     31  C   UNL     1      -9.005   1.478  -0.395  0.00  0.00    -0.059 C 
BRANCH  20  32
ATOM     32  C   UNL     1      -7.147  -3.009   1.229  0.00  0.00    +0.066 C 
BRANCH  32  33
ATOM     33  O   UNL     1      -7.298  -4.408   1.026  0.00  0.00    -0.391 OA
ATOM     34  H   UNL     1      -8.094  -4.717   1.486  0.00  0.00    +0.000 HD
ENDBRANCH  32  33
ENDBRANCH  20  32
ENDBRANCH  18  19
ENDBRANCH   1  18
TORSDOF 12
