MODEL 1
REMARK VINA RESULT:    -7.060      0.000      0.000
REMARK INTER + INTRA:         -13.415
REMARK INTER:                 -11.806
REMARK INTRA:                  -1.609
REMARK UNBOUND:                -1.609
REMARK  Name = cpd303.pdb
REMARK  16 active torsions:
REMARK  status: ('A' for Active; 'I' for Inactive)
REMARK    1  A    between atoms: C_1  and  C_2
REMARK    2  A    between atoms: C_2  and  C_3
REMARK    3  A    between atoms: C_2  and  C_20
REMARK    4  A    between atoms: C_3  and  C_4
REMARK    5  A    between atoms: C_4  and  C_5
REMARK    6  A    between atoms: C_6  and  C_7
REMARK    7  A    between atoms: C_7  and  O_8
REMARK    8  A    between atoms: C_12  and  C_13
REMARK    9  A    between atoms: C_12  and  C_14
REMARK   10  A    between atoms: C_18  and  C_19
REMARK   11  A    between atoms: C_20  and  C_21
REMARK   12  A    between atoms: C_21  and  O_23
REMARK   13  A    between atoms: O_23  and  C_24
REMARK   14  A    between atoms: C_24  and  C_25
REMARK   15  A    between atoms: C_25  and  C_26
REMARK   16  A    between atoms: C_26  and  N_27
REMARK                            x       y       z     vdW  Elec       q    Type
REMARK                         _______ _______ _______ _____ _____    ______ ____
ROOT
ATOM      1  C   UNL     1      35.679 -37.327 -29.546  0.00  0.00    -0.049 C 
ENDROOT
BRANCH   1   3
ATOM      2  C   UNL     1      34.714 -38.933 -31.271  0.00  0.00    -0.062 C 
ATOM      3  C   UNL     1      34.598 -38.386 -29.849  0.00  0.00    -0.034 C 
BRANCH   3   4
ATOM      4  C   UNL     1      34.612 -39.525 -28.807  0.00  0.00    +0.048 C 
BRANCH   4   5
ATOM      5  C   UNL     1      35.932 -40.256 -28.695  0.00  0.00    +0.307 C 
ATOM      6  O   UNL     1      36.092 -41.354 -29.226  0.00  0.00    -0.251 OA
BRANCH   5   7
ATOM      7  O   UNL     1      36.925 -39.713 -27.956  0.00  0.00    -0.465 OA
BRANCH   7   8
ATOM      8  C   UNL     1      38.324 -39.730 -28.301  0.00  0.00    +0.094 C 
BRANCH   8   9
ATOM      9  C   UNL     1      38.869 -38.306 -28.370  0.00  0.00    -0.006 C 
BRANCH   9  10
ATOM     10  C   UNL     1      40.401 -38.305 -28.391  0.00  0.00    +0.002 C 
BRANCH  10  11
ATOM     11  N   UNL     1      40.959 -37.564 -29.534  0.00  0.00    -0.302 N 
ATOM     12  C   UNL     1      39.867 -36.995 -30.346  0.00  0.00    -0.001 C 
ATOM     13  C   UNL     1      40.404 -36.148 -31.499  0.00  0.00    -0.040 C 
ATOM     14  C   UNL     1      41.354 -36.951 -32.377  0.00  0.00    -0.051 C 
ATOM     15  C   UNL     1      42.439 -37.597 -31.527  0.00  0.00    -0.040 C 
ATOM     16  C   UNL     1      41.841 -38.397 -30.367  0.00  0.00    -0.001 C 
ATOM     17  H   UNL     1      41.533 -36.808 -29.160  0.00  0.00    +0.000 HD
ENDBRANCH  10  11
ENDBRANCH   9  10
ENDBRANCH   8   9
ENDBRANCH   7   8
ENDBRANCH   5   7
ENDBRANCH   4   5
ENDBRANCH   3   4
ENDBRANCH   1   3
BRANCH   1  18
ATOM     18  C   UNL     1      35.198 -35.907 -29.174  0.00  0.00    -0.046 C 
BRANCH  18  19
ATOM     19  C   UNL     1      33.658 -35.614 -29.125  0.00  0.00    -0.012 C 
ATOM     20  C   UNL     1      33.103 -35.526 -27.694  0.00  0.00    -0.045 C 
ATOM     21  C   UNL     1      32.208 -34.584 -27.350  0.00  0.00    -0.082 C 
ATOM     22  C   UNL     1      31.633 -33.563 -28.266  0.00  0.00    -0.031 C 
ATOM     23  C   UNL     1      31.810 -33.863 -29.773  0.00  0.00    -0.027 C 
ATOM     24  C   UNL     1      31.340 -32.640 -30.675  0.00  0.00    -0.031 C 
ATOM     25  C   UNL     1      30.577 -33.158 -31.920  0.00  0.00    -0.060 C 
ATOM     26  C   UNL     1      30.324 -31.710 -29.956  0.00  0.00    -0.060 C 
ATOM     27  C   UNL     1      32.536 -31.766 -31.138  0.00  0.00    -0.048 C 
ATOM     28  C   UNL     1      33.701 -31.769 -30.159  0.00  0.00    -0.052 C 
ATOM     29  C   UNL     1      34.258 -33.162 -29.836  0.00  0.00    -0.047 C 
ATOM     30  C   UNL     1      33.278 -34.352 -30.054  0.00  0.00    -0.022 C 
ATOM     31  C   UNL     1      33.404 -34.853 -31.521  0.00  0.00    -0.059 C 
BRANCH  20  32
ATOM     32  C   UNL     1      33.531 -36.592 -26.707  0.00  0.00    +0.066 C 
BRANCH  32  33
ATOM     33  O   UNL     1      32.548 -37.603 -26.522  0.00  0.00    -0.391 OA
ATOM     34  H   UNL     1      32.863 -38.243 -25.865  0.00  0.00    +0.000 HD
ENDBRANCH  32  33
ENDBRANCH  20  32
ENDBRANCH  18  19
ENDBRANCH   1  18
TORSDOF 12
ENDMDL
MODEL 2
REMARK VINA RESULT:    -7.051     17.471     20.665
REMARK INTER + INTRA:         -13.401
REMARK INTER:                 -11.302
REMARK INTRA:                  -2.098
REMARK UNBOUND:                -1.609
REMARK  Name = cpd303.pdb
REMARK  16 active torsions:
REMARK  status: ('A' for Active; 'I' for Inactive)
REMARK    1  A    between atoms: C_1  and  C_2
REMARK    2  A    between atoms: C_2  and  C_3
REMARK    3  A    between atoms: C_2  and  C_20
REMARK    4  A    between atoms: C_3  and  C_4
REMARK    5  A    between atoms: C_4  and  C_5
REMARK    6  A    between atoms: C_6  and  C_7
REMARK    7  A    between atoms: C_7  and  O_8
REMARK    8  A    between atoms: C_12  and  C_13
REMARK    9  A    between atoms: C_12  and  C_14
REMARK   10  A    between atoms: C_18  and  C_19
REMARK   11  A    between atoms: C_20  and  C_21
REMARK   12  A    between atoms: C_21  and  O_23
REMARK   13  A    between atoms: O_23  and  C_24
REMARK   14  A    between atoms: C_24  and  C_25
REMARK   15  A    between atoms: C_25  and  C_26
REMARK   16  A    between atoms: C_26  and  N_27
REMARK                            x       y       z     vdW  Elec       q    Type
REMARK                         _______ _______ _______ _____ _____    ______ ____
ROOT
ATOM      1  C   UNL     1      44.980 -19.396 -35.370  0.00  0.00    -0.049 C 
ENDROOT
BRANCH   1   3
ATOM      2  C   UNL     1      46.962 -17.843 -35.744  0.00  0.00    -0.062 C 
ATOM      3  C   UNL     1      45.942 -18.370 -34.736  0.00  0.00    -0.034 C 
BRANCH   3   4
ATOM      4  C   UNL     1      45.175 -17.216 -34.058  0.00  0.00    +0.048 C 
BRANCH   4   5
ATOM      5  C   UNL     1      44.565 -17.570 -32.719  0.00  0.00    +0.307 C 
ATOM      6  O   UNL     1      45.222 -18.162 -31.865  0.00  0.00    -0.251 OA
BRANCH   5   7
ATOM      7  O   UNL     1      43.266 -17.275 -32.488  0.00  0.00    -0.465 OA
BRANCH   7   8
ATOM      8  C   UNL     1      42.144 -17.869 -33.171  0.00  0.00    +0.094 C 
BRANCH   8   9
ATOM      9  C   UNL     1      42.084 -19.366 -32.884  0.00  0.00    -0.006 C 
BRANCH   9  10
ATOM     10  C   UNL     1      40.638 -19.827 -32.675  0.00  0.00    +0.002 C 
BRANCH  10  11
ATOM     11  N   UNL     1      40.346 -21.116 -33.324  0.00  0.00    -0.302 N 
ATOM     12  C   UNL     1      38.958 -21.125 -33.821  0.00  0.00    -0.001 C 
ATOM     13  C   UNL     1      38.638 -22.416 -34.574  0.00  0.00    -0.040 C 
ATOM     14  C   UNL     1      38.898 -23.640 -33.707  0.00  0.00    -0.051 C 
ATOM     15  C   UNL     1      40.308 -23.591 -33.135  0.00  0.00    -0.040 C 
ATOM     16  C   UNL     1      40.582 -22.260 -32.429  0.00  0.00    -0.001 C 
ATOM     17  H   UNL     1      40.989 -21.217 -34.109  0.00  0.00    +0.000 HD
ENDBRANCH  10  11
ENDBRANCH   9  10
ENDBRANCH   8   9
ENDBRANCH   7   8
ENDBRANCH   5   7
ENDBRANCH   4   5
ENDBRANCH   3   4
ENDBRANCH   1   3
BRANCH   1  18
ATOM     18  C   UNL     1      44.586 -19.182 -36.849  0.00  0.00    -0.046 C 
BRANCH  18  19
ATOM     19  C   UNL     1      44.318 -20.435 -37.753  0.00  0.00    -0.012 C 
ATOM     20  C   UNL     1      42.836 -20.609 -38.122  0.00  0.00    -0.045 C 
ATOM     21  C   UNL     1      42.465 -20.968 -39.363  0.00  0.00    -0.082 C 
ATOM     22  C   UNL     1      43.389 -21.262 -40.491  0.00  0.00    -0.031 C 
ATOM     23  C   UNL     1      44.857 -21.526 -40.082  0.00  0.00    -0.027 C 
ATOM     24  C   UNL     1      45.809 -21.643 -41.350  0.00  0.00    -0.031 C 
ATOM     25  C   UNL     1      46.837 -22.783 -41.140  0.00  0.00    -0.060 C 
ATOM     26  C   UNL     1      45.049 -22.039 -42.646  0.00  0.00    -0.060 C 
ATOM     27  C   UNL     1      46.567 -20.319 -41.632  0.00  0.00    -0.048 C 
ATOM     28  C   UNL     1      45.802 -19.079 -41.190  0.00  0.00    -0.052 C 
ATOM     29  C   UNL     1      45.410 -19.068 -39.707  0.00  0.00    -0.047 C 
ATOM     30  C   UNL     1      45.316 -20.462 -39.019  0.00  0.00    -0.022 C 
ATOM     31  C   UNL     1      46.713 -20.843 -38.449  0.00  0.00    -0.059 C 
BRANCH  20  32
ATOM     32  C   UNL     1      41.812 -20.450 -37.018  0.00  0.00    +0.066 C 
BRANCH  32  33
ATOM     33  O   UNL     1      41.963 -21.410 -35.980  0.00  0.00    -0.391 OA
ATOM     34  H   UNL     1      41.716 -21.010 -35.132  0.00  0.00    +0.000 HD
ENDBRANCH  32  33
ENDBRANCH  20  32
ENDBRANCH  18  19
ENDBRANCH   1  18
TORSDOF 12
ENDMDL
MODEL 3
REMARK VINA RESULT:    -6.677     15.852     18.252
REMARK INTER + INTRA:         -12.775
REMARK INTER:                 -10.951
REMARK INTRA:                  -1.824
REMARK UNBOUND:                -1.609
REMARK  Name = cpd303.pdb
REMARK  16 active torsions:
REMARK  status: ('A' for Active; 'I' for Inactive)
REMARK    1  A    between atoms: C_1  and  C_2
REMARK    2  A    between atoms: C_2  and  C_3
REMARK    3  A    between atoms: C_2  and  C_20
REMARK    4  A    between atoms: C_3  and  C_4
REMARK    5  A    between atoms: C_4  and  C_5
REMARK    6  A    between atoms: C_6  and  C_7
REMARK    7  A    between atoms: C_7  and  O_8
REMARK    8  A    between atoms: C_12  and  C_13
REMARK    9  A    between atoms: C_12  and  C_14
REMARK   10  A    between atoms: C_18  and  C_19
REMARK   11  A    between atoms: C_20  and  C_21
REMARK   12  A    between atoms: C_21  and  O_23
REMARK   13  A    between atoms: O_23  and  C_24
REMARK   14  A    between atoms: C_24  and  C_25
REMARK   15  A    between atoms: C_25  and  C_26
REMARK   16  A    between atoms: C_26  and  N_27
REMARK                            x       y       z     vdW  Elec       q    Type
REMARK                         _______ _______ _______ _____ _____    ______ ____
ROOT
ATOM      1  C   UNL     1      40.497 -22.824 -36.467  0.00  0.00    -0.049 C 
ENDROOT
BRANCH   1   3
ATOM      2  C   UNL     1      39.659 -21.656 -38.569  0.00  0.00    -0.062 C 
ATOM      3  C   UNL     1      40.885 -22.120 -37.784  0.00  0.00    -0.034 C 
BRANCH   3   4
ATOM      4  C   UNL     1      41.867 -20.956 -37.538  0.00  0.00    +0.048 C 
BRANCH   4   5
ATOM      5  C   UNL     1      42.937 -20.803 -38.598  0.00  0.00    +0.307 C 
ATOM      6  O   UNL     1      42.967 -21.550 -39.574  0.00  0.00    -0.251 OA
BRANCH   5   7
ATOM      7  O   UNL     1      43.897 -19.865 -38.435  0.00  0.00    -0.465 OA
BRANCH   7   8
ATOM      8  C   UNL     1      44.910 -19.882 -37.410  0.00  0.00    +0.094 C 
BRANCH   8   9
ATOM      9  C   UNL     1      46.279 -20.158 -38.024  0.00  0.00    -0.006 C 
BRANCH   9  10
ATOM     10  C   UNL     1      46.280 -19.847 -39.524  0.00  0.00    +0.002 C 
BRANCH  10  11
ATOM     11  N   UNL     1      45.995 -21.027 -40.356  0.00  0.00    -0.302 N 
ATOM     12  C   UNL     1      47.143 -21.952 -40.327  0.00  0.00    -0.001 C 
ATOM     13  C   UNL     1      46.856 -23.230 -41.114  0.00  0.00    -0.040 C 
ATOM     14  C   UNL     1      46.464 -22.918 -42.551  0.00  0.00    -0.051 C 
ATOM     15  C   UNL     1      45.325 -21.908 -42.579  0.00  0.00    -0.040 C 
ATOM     16  C   UNL     1      45.655 -20.668 -41.742  0.00  0.00    -0.001 C 
ATOM     17  H   UNL     1      45.176 -21.490 -39.962  0.00  0.00    +0.000 HD
ENDBRANCH  10  11
ENDBRANCH   9  10
ENDBRANCH   8   9
ENDBRANCH   7   8
ENDBRANCH   5   7
ENDBRANCH   4   5
ENDBRANCH   3   4
ENDBRANCH   1   3
BRANCH   1  18
ATOM     18  C   UNL     1      40.107 -21.927 -35.271  0.00  0.00    -0.046 C 
BRANCH  18  19
ATOM     19  C   UNL     1      38.588 -21.725 -34.936  0.00  0.00    -0.012 C 
ATOM     20  C   UNL     1      38.096 -22.621 -33.788  0.00  0.00    -0.045 C 
ATOM     21  C   UNL     1      37.268 -22.148 -32.841  0.00  0.00    -0.082 C 
ATOM     22  C   UNL     1      36.713 -20.769 -32.788  0.00  0.00    -0.031 C 
ATOM     23  C   UNL     1      36.813 -19.972 -34.109  0.00  0.00    -0.027 C 
ATOM     24  C   UNL     1      36.375 -18.456 -33.916  0.00  0.00    -0.031 C 
ATOM     25  C   UNL     1      35.536 -17.985 -35.131  0.00  0.00    -0.060 C 
ATOM     26  C   UNL     1      35.441 -18.245 -32.694  0.00  0.00    -0.060 C 
ATOM     27  C   UNL     1      37.597 -17.514 -33.746  0.00  0.00    -0.048 C 
ATOM     28  C   UNL     1      38.798 -18.195 -33.105  0.00  0.00    -0.052 C 
ATOM     29  C   UNL     1      39.291 -19.446 -33.844  0.00  0.00    -0.047 C 
ATOM     30  C   UNL     1      38.240 -20.162 -34.742  0.00  0.00    -0.022 C 
ATOM     31  C   UNL     1      38.281 -19.539 -36.167  0.00  0.00    -0.059 C 
BRANCH  20  32
ATOM     32  C   UNL     1      38.504 -24.079 -33.809  0.00  0.00    +0.066 C 
BRANCH  32  33
ATOM     33  O   UNL     1      37.696 -24.892 -32.968  0.00  0.00    -0.391 OA
ATOM     34  H   UNL     1      38.196 -25.681 -32.704  0.00  0.00    +0.000 HD
ENDBRANCH  32  33
ENDBRANCH  20  32
ENDBRANCH  18  19
ENDBRANCH   1  18
TORSDOF 12
ENDMDL
MODEL 4
REMARK VINA RESULT:    -6.595     17.353     19.830
REMARK INTER + INTRA:         -12.638
REMARK INTER:                 -10.166
REMARK INTRA:                  -2.472
REMARK UNBOUND:                -1.609
REMARK  Name = cpd303.pdb
REMARK  16 active torsions:
REMARK  status: ('A' for Active; 'I' for Inactive)
REMARK    1  A    between atoms: C_1  and  C_2
REMARK    2  A    between atoms: C_2  and  C_3
REMARK    3  A    between atoms: C_2  and  C_20
REMARK    4  A    between atoms: C_3  and  C_4
REMARK    5  A    between atoms: C_4  and  C_5
REMARK    6  A    between atoms: C_6  and  C_7
REMARK    7  A    between atoms: C_7  and  O_8
REMARK    8  A    between atoms: C_12  and  C_13
REMARK    9  A    between atoms: C_12  and  C_14
REMARK   10  A    between atoms: C_18  and  C_19
REMARK   11  A    between atoms: C_20  and  C_21
REMARK   12  A    between atoms: C_21  and  O_23
REMARK   13  A    between atoms: O_23  and  C_24
REMARK   14  A    between atoms: C_24  and  C_25
REMARK   15  A    between atoms: C_25  and  C_26
REMARK   16  A    between atoms: C_26  and  N_27
REMARK                            x       y       z     vdW  Elec       q    Type
REMARK                         _______ _______ _______ _____ _____    ______ ____
ROOT
ATOM      1  C   UNL     1      39.970 -21.979 -37.375  0.00  0.00    -0.049 C 
ENDROOT
BRANCH   1   3
ATOM      2  C   UNL     1      39.858 -20.248 -39.238  0.00  0.00    -0.062 C 
ATOM      3  C   UNL     1      40.330 -21.645 -38.837  0.00  0.00    -0.034 C 
BRANCH   3   4
ATOM      4  C   UNL     1      41.839 -21.827 -39.107  0.00  0.00    +0.048 C 
BRANCH   4   5
ATOM      5  C   UNL     1      42.235 -21.705 -40.563  0.00  0.00    +0.307 C 
ATOM      6  O   UNL     1      41.499 -22.127 -41.453  0.00  0.00    -0.251 OA
BRANCH   5   7
ATOM      7  O   UNL     1      43.437 -21.172 -40.876  0.00  0.00    -0.465 OA
BRANCH   7   8
ATOM      8  C   UNL     1      43.909 -20.912 -42.213  0.00  0.00    +0.094 C 
BRANCH   8   9
ATOM      9  C   UNL     1      45.043 -21.870 -42.569  0.00  0.00    -0.006 C 
BRANCH   9  10
ATOM     10  C   UNL     1      46.363 -21.413 -41.940  0.00  0.00    +0.002 C 
BRANCH  10  11
ATOM     11  N   UNL     1      46.177 -20.717 -40.656  0.00  0.00    -0.302 N 
ATOM     12  C   UNL     1      46.885 -19.424 -40.679  0.00  0.00    -0.001 C 
ATOM     13  C   UNL     1      46.650 -18.632 -39.393  0.00  0.00    -0.040 C 
ATOM     14  C   UNL     1      47.057 -19.436 -38.166  0.00  0.00    -0.051 C 
ATOM     15  C   UNL     1      46.381 -20.801 -38.183  0.00  0.00    -0.040 C 
ATOM     16  C   UNL     1      46.618 -21.528 -39.509  0.00  0.00    -0.001 C 
ATOM     17  H   UNL     1      45.177 -20.556 -40.536  0.00  0.00    +0.000 HD
ENDBRANCH  10  11
ENDBRANCH   9  10
ENDBRANCH   8   9
ENDBRANCH   7   8
ENDBRANCH   5   7
ENDBRANCH   4   5
ENDBRANCH   3   4
ENDBRANCH   1   3
BRANCH   1  18
ATOM     18  C   UNL     1      41.093 -21.855 -36.320  0.00  0.00    -0.046 C 
BRANCH  18  19
ATOM     19  C   UNL     1      41.033 -20.683 -35.280  0.00  0.00    -0.012 C 
ATOM     20  C   UNL     1      40.710 -21.155 -33.854  0.00  0.00    -0.045 C 
ATOM     21  C   UNL     1      41.349 -20.642 -32.788  0.00  0.00    -0.082 C 
ATOM     22  C   UNL     1      42.386 -19.577 -32.833  0.00  0.00    -0.031 C 
ATOM     23  C   UNL     1      42.442 -18.773 -34.152  0.00  0.00    -0.027 C 
ATOM     24  C   UNL     1      43.691 -17.790 -34.191  0.00  0.00    -0.031 C 
ATOM     25  C   UNL     1      43.283 -16.434 -34.818  0.00  0.00    -0.060 C 
ATOM     26  C   UNL     1      44.217 -17.422 -32.776  0.00  0.00    -0.060 C 
ATOM     27  C   UNL     1      44.877 -18.387 -34.996  0.00  0.00    -0.048 C 
ATOM     28  C   UNL     1      44.925 -19.908 -34.958  0.00  0.00    -0.052 C 
ATOM     29  C   UNL     1      43.649 -20.599 -35.455  0.00  0.00    -0.047 C 
ATOM     30  C   UNL     1      42.345 -19.751 -35.380  0.00  0.00    -0.022 C 
ATOM     31  C   UNL     1      42.189 -18.940 -36.699  0.00  0.00    -0.059 C 
BRANCH  20  32
ATOM     32  C   UNL     1      39.584 -22.153 -33.681  0.00  0.00    +0.066 C 
BRANCH  32  33
ATOM     33  O   UNL     1      40.029 -23.408 -33.183  0.00  0.00    -0.391 OA
ATOM     34  H   UNL     1      39.914 -23.433 -32.220  0.00  0.00    +0.000 HD
ENDBRANCH  32  33
ENDBRANCH  20  32
ENDBRANCH  18  19
ENDBRANCH   1  18
TORSDOF 12
ENDMDL
MODEL 5
REMARK VINA RESULT:    -6.590     16.897     19.450
REMARK INTER + INTRA:         -12.629
REMARK INTER:                 -10.153
REMARK INTRA:                  -2.475
REMARK UNBOUND:                -1.609
REMARK  Name = cpd303.pdb
REMARK  16 active torsions:
REMARK  status: ('A' for Active; 'I' for Inactive)
REMARK    1  A    between atoms: C_1  and  C_2
REMARK    2  A    between atoms: C_2  and  C_3
REMARK    3  A    between atoms: C_2  and  C_20
REMARK    4  A    between atoms: C_3  and  C_4
REMARK    5  A    between atoms: C_4  and  C_5
REMARK    6  A    between atoms: C_6  and  C_7
REMARK    7  A    between atoms: C_7  and  O_8
REMARK    8  A    between atoms: C_12  and  C_13
REMARK    9  A    between atoms: C_12  and  C_14
REMARK   10  A    between atoms: C_18  and  C_19
REMARK   11  A    between atoms: C_20  and  C_21
REMARK   12  A    between atoms: C_21  and  O_23
REMARK   13  A    between atoms: O_23  and  C_24
REMARK   14  A    between atoms: C_24  and  C_25
REMARK   15  A    between atoms: C_25  and  C_26
REMARK   16  A    between atoms: C_26  and  N_27
REMARK                            x       y       z     vdW  Elec       q    Type
REMARK                         _______ _______ _______ _____ _____    ______ ____
ROOT
ATOM      1  C   UNL     1      42.178 -18.988 -38.066  0.00  0.00    -0.049 C 
ENDROOT
BRANCH   1   3
ATOM      2  C   UNL     1      43.432 -18.054 -40.076  0.00  0.00    -0.062 C 
ATOM      3  C   UNL     1      42.693 -19.259 -39.495  0.00  0.00    -0.034 C 
BRANCH   3   4
ATOM      4  C   UNL     1      43.563 -20.533 -39.553  0.00  0.00    +0.048 C 
BRANCH   4   5
ATOM      5  C   UNL     1      43.544 -21.245 -40.889  0.00  0.00    +0.307 C 
ATOM      6  O   UNL     1      42.534 -21.830 -41.276  0.00  0.00    -0.251 OA
BRANCH   5   7
ATOM      7  O   UNL     1      44.671 -21.277 -41.633  0.00  0.00    -0.465 OA
BRANCH   7   8
ATOM      8  C   UNL     1      45.846 -22.055 -41.330  0.00  0.00    +0.094 C 
BRANCH   8   9
ATOM      9  C   UNL     1      46.987 -21.139 -40.894  0.00  0.00    -0.006 C 
BRANCH   9  10
ATOM     10  C   UNL     1      47.456 -21.484 -39.477  0.00  0.00    +0.002 C 
BRANCH  10  11
ATOM     11  N   UNL     1      47.389 -20.338 -38.555  0.00  0.00    -0.302 N 
ATOM     12  C   UNL     1      46.552 -20.679 -37.390  0.00  0.00    -0.001 C 
ATOM     13  C   UNL     1      46.521 -19.543 -36.368  0.00  0.00    -0.040 C 
ATOM     14  C   UNL     1      46.044 -18.243 -37.001  0.00  0.00    -0.051 C 
ATOM     15  C   UNL     1      46.864 -17.931 -38.246  0.00  0.00    -0.040 C 
ATOM     16  C   UNL     1      46.890 -19.119 -39.212  0.00  0.00    -0.001 C 
ATOM     17  H   UNL     1      48.340 -20.138 -38.244  0.00  0.00    +0.000 HD
ENDBRANCH  10  11
ENDBRANCH   9  10
ENDBRANCH   8   9
ENDBRANCH   7   8
ENDBRANCH   5   7
ENDBRANCH   4   5
ENDBRANCH   3   4
ENDBRANCH   1   3
BRANCH   1  18
ATOM     18  C   UNL     1      41.903 -20.212 -37.165  0.00  0.00    -0.046 C 
BRANCH  18  19
ATOM     19  C   UNL     1      40.422 -20.563 -36.790  0.00  0.00    -0.012 C 
ATOM     20  C   UNL     1      39.975 -21.939 -37.309  0.00  0.00    -0.045 C 
ATOM     21  C   UNL     1      39.235 -22.764 -36.549  0.00  0.00    -0.082 C 
ATOM     22  C   UNL     1      38.742 -22.467 -35.178  0.00  0.00    -0.031 C 
ATOM     23  C   UNL     1      38.782 -20.974 -34.778  0.00  0.00    -0.027 C 
ATOM     24  C   UNL     1      38.421 -20.766 -33.243  0.00  0.00    -0.031 C 
ATOM     25  C   UNL     1      37.520 -19.518 -33.073  0.00  0.00    -0.060 C 
ATOM     26  C   UNL     1      37.584 -21.934 -32.653  0.00  0.00    -0.060 C 
ATOM     27  C   UNL     1      39.690 -20.601 -32.364  0.00  0.00    -0.048 C 
ATOM     28  C   UNL     1      40.904 -21.337 -32.914  0.00  0.00    -0.052 C 
ATOM     29  C   UNL     1      41.293 -20.945 -34.345  0.00  0.00    -0.047 C 
ATOM     30  C   UNL     1      40.153 -20.338 -35.216  0.00  0.00    -0.022 C 
ATOM     31  C   UNL     1      40.119 -18.797 -35.008  0.00  0.00    -0.059 C 
BRANCH  20  32
ATOM     32  C   UNL     1      40.321 -22.298 -38.740  0.00  0.00    +0.066 C 
BRANCH  32  33
ATOM     33  O   UNL     1      41.327 -23.298 -38.832  0.00  0.00    -0.391 OA
ATOM     34  H   UNL     1      42.134 -22.985 -38.396  0.00  0.00    +0.000 HD
ENDBRANCH  32  33
ENDBRANCH  20  32
ENDBRANCH  18  19
ENDBRANCH   1  18
TORSDOF 12
ENDMDL
MODEL 6
REMARK VINA RESULT:    -6.573     17.439     20.154
REMARK INTER + INTRA:         -12.601
REMARK INTER:                 -10.423
REMARK INTRA:                  -2.178
REMARK UNBOUND:                -1.609
REMARK  Name = cpd303.pdb
REMARK  16 active torsions:
REMARK  status: ('A' for Active; 'I' for Inactive)
REMARK    1  A    between atoms: C_1  and  C_2
REMARK    2  A    between atoms: C_2  and  C_3
REMARK    3  A    between atoms: C_2  and  C_20
REMARK    4  A    between atoms: C_3  and  C_4
REMARK    5  A    between atoms: C_4  and  C_5
REMARK    6  A    between atoms: C_6  and  C_7
REMARK    7  A    between atoms: C_7  and  O_8
REMARK    8  A    between atoms: C_12  and  C_13
REMARK    9  A    between atoms: C_12  and  C_14
REMARK   10  A    between atoms: C_18  and  C_19
REMARK   11  A    between atoms: C_20  and  C_21
REMARK   12  A    between atoms: C_21  and  O_23
REMARK   13  A    between atoms: O_23  and  C_24
REMARK   14  A    between atoms: C_24  and  C_25
REMARK   15  A    between atoms: C_25  and  C_26
REMARK   16  A    between atoms: C_26  and  N_27
REMARK                            x       y       z     vdW  Elec       q    Type
REMARK                         _______ _______ _______ _____ _____    ______ ____
ROOT
ATOM      1  C   UNL     1      41.177 -21.236 -36.331  0.00  0.00    -0.049 C 
ENDROOT
BRANCH   1   3
ATOM      2  C   UNL     1      39.296 -22.917 -35.990  0.00  0.00    -0.062 C 
ATOM      3  C   UNL     1      39.714 -21.451 -35.892  0.00  0.00    -0.034 C 
BRANCH   3   4
ATOM      4  C   UNL     1      39.456 -20.887 -34.479  0.00  0.00    +0.048 C 
BRANCH   4   5
ATOM      5  C   UNL     1      40.156 -21.639 -33.367  0.00  0.00    +0.307 C 
ATOM      6  O   UNL     1      39.567 -22.509 -32.728  0.00  0.00    -0.251 OA
BRANCH   5   7
ATOM      7  O   UNL     1      41.426 -21.307 -33.045  0.00  0.00    -0.465 OA
BRANCH   7   8
ATOM      8  C   UNL     1      41.957 -19.967 -33.032  0.00  0.00    +0.094 C 
BRANCH   8   9
ATOM      9  C   UNL     1      43.312 -19.929 -33.733  0.00  0.00    -0.006 C 
BRANCH   9  10
ATOM     10  C   UNL     1      44.197 -18.819 -33.158  0.00  0.00    +0.002 C 
BRANCH  10  11
ATOM     11  N   UNL     1      44.822 -17.985 -34.198  0.00  0.00    -0.302 N 
ATOM     12  C   UNL     1      43.931 -17.893 -35.369  0.00  0.00    -0.001 C 
ATOM     13  C   UNL     1      44.507 -16.969 -36.442  0.00  0.00    -0.040 C 
ATOM     14  C   UNL     1      45.898 -17.418 -36.869  0.00  0.00    -0.051 C 
ATOM     15  C   UNL     1      46.795 -17.583 -35.650  0.00  0.00    -0.040 C 
ATOM     16  C   UNL     1      46.148 -18.485 -34.595  0.00  0.00    -0.001 C 
ATOM     17  H   UNL     1      44.962 -17.055 -33.803  0.00  0.00    +0.000 HD
ENDBRANCH  10  11
ENDBRANCH   9  10
ENDBRANCH   8   9
ENDBRANCH   7   8
ENDBRANCH   5   7
ENDBRANCH   4   5
ENDBRANCH   3   4
ENDBRANCH   1   3
BRANCH   1  18
ATOM     18  C   UNL     1      41.418 -20.618 -37.727  0.00  0.00    -0.046 C 
BRANCH  18  19
ATOM     19  C   UNL     1      42.317 -21.389 -38.755  0.00  0.00    -0.012 C 
ATOM     20  C   UNL     1      41.523 -21.976 -39.933  0.00  0.00    -0.045 C 
ATOM     21  C   UNL     1      41.995 -21.917 -41.190  0.00  0.00    -0.082 C 
ATOM     22  C   UNL     1      43.301 -21.332 -41.596  0.00  0.00    -0.031 C 
ATOM     23  C   UNL     1      44.312 -21.127 -40.444  0.00  0.00    -0.027 C 
ATOM     24  C   UNL     1      45.600 -20.327 -40.927  0.00  0.00    -0.031 C 
ATOM     25  C   UNL     1      46.874 -20.937 -40.291  0.00  0.00    -0.060 C 
ATOM     26  C   UNL     1      45.840 -20.433 -42.458  0.00  0.00    -0.060 C 
ATOM     27  C   UNL     1      45.519 -18.821 -40.563  0.00  0.00    -0.048 C 
ATOM     28  C   UNL     1      44.094 -18.288 -40.509  0.00  0.00    -0.052 C 
ATOM     29  C   UNL     1      43.171 -19.037 -39.540  0.00  0.00    -0.047 C 
ATOM     30  C   UNL     1      43.585 -20.499 -39.199  0.00  0.00    -0.022 C 
ATOM     31  C   UNL     1      44.542 -20.483 -37.972  0.00  0.00    -0.059 C 
BRANCH  20  32
ATOM     32  C   UNL     1      40.232 -22.703 -39.619  0.00  0.00    +0.066 C 
BRANCH  32  33
ATOM     33  O   UNL     1      40.357 -24.117 -39.706  0.00  0.00    -0.391 OA
ATOM     34  H   UNL     1      39.896 -24.528 -38.958  0.00  0.00    +0.000 HD
ENDBRANCH  32  33
ENDBRANCH  20  32
ENDBRANCH  18  19
ENDBRANCH   1  18
TORSDOF 12
ENDMDL
MODEL 7
REMARK VINA RESULT:    -6.517     17.919     20.825
REMARK INTER + INTRA:         -12.507
REMARK INTER:                 -10.395
REMARK INTRA:                  -2.113
REMARK UNBOUND:                -1.609
REMARK  Name = cpd303.pdb
REMARK  16 active torsions:
REMARK  status: ('A' for Active; 'I' for Inactive)
REMARK    1  A    between atoms: C_1  and  C_2
REMARK    2  A    between atoms: C_2  and  C_3
REMARK    3  A    between atoms: C_2  and  C_20
REMARK    4  A    between atoms: C_3  and  C_4
REMARK    5  A    between atoms: C_4  and  C_5
REMARK    6  A    between atoms: C_6  and  C_7
REMARK    7  A    between atoms: C_7  and  O_8
REMARK    8  A    between atoms: C_12  and  C_13
REMARK    9  A    between atoms: C_12  and  C_14
REMARK   10  A    between atoms: C_18  and  C_19
REMARK   11  A    between atoms: C_20  and  C_21
REMARK   12  A    between atoms: C_21  and  O_23
REMARK   13  A    between atoms: O_23  and  C_24
REMARK   14  A    between atoms: C_24  and  C_25
REMARK   15  A    between atoms: C_25  and  C_26
REMARK   16  A    between atoms: C_26  and  N_27
REMARK                            x       y       z     vdW  Elec       q    Type
REMARK                         _______ _______ _______ _____ _____    ______ ____
ROOT
ATOM      1  C   UNL     1      40.642 -18.979 -38.251  0.00  0.00    -0.049 C 
ENDROOT
BRANCH   1   3
ATOM      2  C   UNL     1      39.470 -21.192 -38.715  0.00  0.00    -0.062 C 
ATOM      3  C   UNL     1      40.088 -20.288 -37.649  0.00  0.00    -0.034 C 
BRANCH   3   4
ATOM      4  C   UNL     1      41.164 -21.037 -36.834  0.00  0.00    +0.048 C 
BRANCH   4   5
ATOM      5  C   UNL     1      40.612 -22.027 -35.830  0.00  0.00    +0.307 C 
ATOM      6  O   UNL     1      40.793 -23.235 -35.972  0.00  0.00    -0.251 OA
BRANCH   5   7
ATOM      7  O   UNL     1      39.868 -21.572 -34.798  0.00  0.00    -0.465 OA
BRANCH   7   8
ATOM      8  C   UNL     1      40.062 -21.925 -33.414  0.00  0.00    +0.094 C 
BRANCH   8   9
ATOM      9  C   UNL     1      41.479 -21.572 -32.972  0.00  0.00    -0.006 C 
BRANCH   9  10
ATOM     10  C   UNL     1      41.704 -20.057 -33.008  0.00  0.00    +0.002 C 
BRANCH  10  11
ATOM     11  N   UNL     1      43.128 -19.688 -33.059  0.00  0.00    -0.302 N 
ATOM     12  C   UNL     1      43.290 -18.261 -32.725  0.00  0.00    -0.001 C 
ATOM     13  C   UNL     1      44.763 -17.856 -32.687  0.00  0.00    -0.040 C 
ATOM     14  C   UNL     1      45.458 -18.174 -34.004  0.00  0.00    -0.051 C 
ATOM     15  C   UNL     1      45.228 -19.631 -34.382  0.00  0.00    -0.040 C 
ATOM     16  C   UNL     1      43.738 -19.987 -34.364  0.00  0.00    -0.001 C 
ATOM     17  H   UNL     1      43.617 -20.257 -32.367  0.00  0.00    +0.000 HD
ENDBRANCH  10  11
ENDBRANCH   9  10
ENDBRANCH   8   9
ENDBRANCH   7   8
ENDBRANCH   5   7
ENDBRANCH   4   5
ENDBRANCH   3   4
ENDBRANCH   1   3
BRANCH   1  18
ATOM     18  C   UNL     1      42.177 -18.809 -38.292  0.00  0.00    -0.046 C 
BRANCH  18  19
ATOM     19  C   UNL     1      42.903 -18.793 -39.682  0.00  0.00    -0.012 C 
ATOM     20  C   UNL     1      43.595 -17.456 -39.988  0.00  0.00    -0.045 C 
ATOM     21  C   UNL     1      44.814 -17.415 -40.553  0.00  0.00    -0.082 C 
ATOM     22  C   UNL     1      45.614 -18.598 -40.969  0.00  0.00    -0.031 C 
ATOM     23  C   UNL     1      44.816 -19.917 -41.089  0.00  0.00    -0.027 C 
ATOM     24  C   UNL     1      45.772 -21.161 -41.351  0.00  0.00    -0.031 C 
ATOM     25  C   UNL     1      45.131 -22.116 -42.388  0.00  0.00    -0.060 C 
ATOM     26  C   UNL     1      47.133 -20.758 -41.981  0.00  0.00    -0.060 C 
ATOM     27  C   UNL     1      46.069 -21.950 -40.048  0.00  0.00    -0.048 C 
ATOM     28  C   UNL     1      46.038 -21.083 -38.797  0.00  0.00    -0.052 C 
ATOM     29  C   UNL     1      44.720 -20.328 -38.577  0.00  0.00    -0.047 C 
ATOM     30  C   UNL     1      43.860 -20.080 -39.851  0.00  0.00    -0.022 C 
ATOM     31  C   UNL     1      42.908 -21.291 -40.066  0.00  0.00    -0.059 C 
BRANCH  20  32
ATOM     32  C   UNL     1      42.820 -16.183 -39.715  0.00  0.00    +0.066 C 
BRANCH  32  33
ATOM     33  O   UNL     1      43.119 -15.616 -38.446  0.00  0.00    -0.391 OA
ATOM     34  H   UNL     1      42.699 -16.144 -37.749  0.00  0.00    +0.000 HD
ENDBRANCH  32  33
ENDBRANCH  20  32
ENDBRANCH  18  19
ENDBRANCH   1  18
TORSDOF 12
ENDMDL
MODEL 8
REMARK VINA RESULT:    -6.476     19.230     21.888
REMARK INTER + INTRA:         -12.438
REMARK INTER:                  -9.944
REMARK INTRA:                  -2.494
REMARK UNBOUND:                -1.609
REMARK  Name = cpd303.pdb
REMARK  16 active torsions:
REMARK  status: ('A' for Active; 'I' for Inactive)
REMARK    1  A    between atoms: C_1  and  C_2
REMARK    2  A    between atoms: C_2  and  C_3
REMARK    3  A    between atoms: C_2  and  C_20
REMARK    4  A    between atoms: C_3  and  C_4
REMARK    5  A    between atoms: C_4  and  C_5
REMARK    6  A    between atoms: C_6  and  C_7
REMARK    7  A    between atoms: C_7  and  O_8
REMARK    8  A    between atoms: C_12  and  C_13
REMARK    9  A    between atoms: C_12  and  C_14
REMARK   10  A    between atoms: C_18  and  C_19
REMARK   11  A    between atoms: C_20  and  C_21
REMARK   12  A    between atoms: C_21  and  O_23
REMARK   13  A    between atoms: O_23  and  C_24
REMARK   14  A    between atoms: C_24  and  C_25
REMARK   15  A    between atoms: C_25  and  C_26
REMARK   16  A    between atoms: C_26  and  N_27
REMARK                            x       y       z     vdW  Elec       q    Type
REMARK                         _______ _______ _______ _____ _____    ______ ____
ROOT
ATOM      1  C   UNL     1      42.190 -19.495 -36.173  0.00  0.00    -0.049 C 
ENDROOT
BRANCH   1   3
ATOM      2  C   UNL     1      42.744 -17.441 -34.773  0.00  0.00    -0.062 C 
ATOM      3  C   UNL     1      43.298 -18.682 -35.473  0.00  0.00    -0.034 C 
BRANCH   3   4
ATOM      4  C   UNL     1      44.116 -19.557 -34.498  0.00  0.00    +0.048 C 
BRANCH   4   5
ATOM      5  C   UNL     1      45.102 -18.789 -33.644  0.00  0.00    +0.307 C 
ATOM      6  O   UNL     1      44.833 -18.498 -32.480  0.00  0.00    -0.251 OA
BRANCH   5   7
ATOM      7  O   UNL     1      46.267 -18.378 -34.192  0.00  0.00    -0.465 OA
BRANCH   7   8
ATOM      8  C   UNL     1      46.825 -18.868 -35.426  0.00  0.00    +0.094 C 
BRANCH   8   9
ATOM      9  C   UNL     1      47.246 -17.703 -36.317  0.00  0.00    -0.006 C 
BRANCH   9  10
ATOM     10  C   UNL     1      46.029 -16.887 -36.765  0.00  0.00    +0.002 C 
BRANCH  10  11
ATOM     11  N   UNL     1      45.902 -16.803 -38.229  0.00  0.00    -0.302 N 
ATOM     12  C   UNL     1      47.238 -16.832 -38.852  0.00  0.00    -0.001 C 
ATOM     13  C   UNL     1      47.148 -16.828 -40.377  0.00  0.00    -0.040 C 
ATOM     14  C   UNL     1      46.354 -15.630 -40.881  0.00  0.00    -0.051 C 
ATOM     15  C   UNL     1      45.003 -15.562 -40.183  0.00  0.00    -0.040 C 
ATOM     16  C   UNL     1      45.155 -15.610 -38.660  0.00  0.00    -0.001 C 
ATOM     17  H   UNL     1      45.365 -17.614 -38.538  0.00  0.00    +0.000 HD
ENDBRANCH  10  11
ENDBRANCH   9  10
ENDBRANCH   8   9
ENDBRANCH   7   8
ENDBRANCH   5   7
ENDBRANCH   4   5
ENDBRANCH   3   4
ENDBRANCH   1   3
BRANCH   1  18
ATOM     18  C   UNL     1      42.141 -19.449 -37.716  0.00  0.00    -0.046 C 
BRANCH  18  19
ATOM     19  C   UNL     1      42.550 -20.726 -38.529  0.00  0.00    -0.012 C 
ATOM     20  C   UNL     1      41.369 -21.380 -39.264  0.00  0.00    -0.045 C 
ATOM     21  C   UNL     1      41.501 -21.849 -40.516  0.00  0.00    -0.082 C 
ATOM     22  C   UNL     1      42.754 -21.831 -41.318  0.00  0.00    -0.031 C 
ATOM     23  C   UNL     1      44.048 -21.595 -40.505  0.00  0.00    -0.027 C 
ATOM     24  C   UNL     1      45.311 -21.402 -41.451  0.00  0.00    -0.031 C 
ATOM     25  C   UNL     1      46.538 -22.139 -40.859  0.00  0.00    -0.060 C 
ATOM     26  C   UNL     1      45.118 -22.034 -42.857  0.00  0.00    -0.060 C 
ATOM     27  C   UNL     1      45.664 -19.904 -41.651  0.00  0.00    -0.048 C 
ATOM     28  C   UNL     1      44.456 -18.981 -41.557  0.00  0.00    -0.052 C 
ATOM     29  C   UNL     1      43.672 -19.089 -40.243  0.00  0.00    -0.047 C 
ATOM     30  C   UNL     1      43.825 -20.432 -39.470  0.00  0.00    -0.022 C 
ATOM     31  C   UNL     1      45.046 -20.329 -38.510  0.00  0.00    -0.059 C 
BRANCH  20  32
ATOM     32  C   UNL     1      40.074 -21.559 -38.498  0.00  0.00    +0.066 C 
BRANCH  32  33
ATOM     33  O   UNL     1      39.791 -22.920 -38.200  0.00  0.00    -0.391 OA
ATOM     34  H   UNL     1      39.845 -23.446 -39.013  0.00  0.00    +0.000 HD
ENDBRANCH  32  33
ENDBRANCH  20  32
ENDBRANCH  18  19
ENDBRANCH   1  18
TORSDOF 12
ENDMDL
MODEL 9
REMARK VINA RESULT:    -6.457     17.908     21.073
REMARK INTER + INTRA:         -12.408
REMARK INTER:                 -10.249
REMARK INTRA:                  -2.158
REMARK UNBOUND:                -1.609
REMARK  Name = cpd303.pdb
REMARK  16 active torsions:
REMARK  status: ('A' for Active; 'I' for Inactive)
REMARK    1  A    between atoms: C_1  and  C_2
REMARK    2  A    between atoms: C_2  and  C_3
REMARK    3  A    between atoms: C_2  and  C_20
REMARK    4  A    between atoms: C_3  and  C_4
REMARK    5  A    between atoms: C_4  and  C_5
REMARK    6  A    between atoms: C_6  and  C_7
REMARK    7  A    between atoms: C_7  and  O_8
REMARK    8  A    between atoms: C_12  and  C_13
REMARK    9  A    between atoms: C_12  and  C_14
REMARK   10  A    between atoms: C_18  and  C_19
REMARK   11  A    between atoms: C_20  and  C_21
REMARK   12  A    between atoms: C_21  and  O_23
REMARK   13  A    between atoms: O_23  and  C_24
REMARK   14  A    between atoms: C_24  and  C_25
REMARK   15  A    between atoms: C_25  and  C_26
REMARK   16  A    between atoms: C_26  and  N_27
REMARK                            x       y       z     vdW  Elec       q    Type
REMARK                         _______ _______ _______ _____ _____    ______ ____
ROOT
ATOM      1  C   UNL     1      43.674 -17.706 -36.168  0.00  0.00    -0.049 C 
ENDROOT
BRANCH   1   3
ATOM      2  C   UNL     1      44.109 -15.769 -34.574  0.00  0.00    -0.062 C 
ATOM      3  C   UNL     1      44.658 -17.066 -35.166  0.00  0.00    -0.034 C 
BRANCH   3   4
ATOM      4  C   UNL     1      45.066 -18.060 -34.058  0.00  0.00    +0.048 C 
BRANCH   4   5
ATOM      5  C   UNL     1      44.149 -18.068 -32.854  0.00  0.00    +0.307 C 
ATOM      6  O   UNL     1      44.486 -17.527 -31.802  0.00  0.00    -0.251 OA
BRANCH   5   7
ATOM      7  O   UNL     1      42.971 -18.726 -32.928  0.00  0.00    -0.465 OA
BRANCH   7   8
ATOM      8  C   UNL     1      41.670 -18.121 -32.796  0.00  0.00    +0.094 C 
BRANCH   8   9
ATOM      9  C   UNL     1      40.609 -19.192 -32.559  0.00  0.00    -0.006 C 
BRANCH   9  10
ATOM     10  C   UNL     1      39.546 -19.165 -33.662  0.00  0.00    +0.002 C 
BRANCH  10  11
ATOM     11  N   UNL     1      39.655 -20.302 -34.591  0.00  0.00    -0.302 N 
ATOM     12  C   UNL     1      40.316 -21.437 -33.922  0.00  0.00    -0.001 C 
ATOM     13  C   UNL     1      40.377 -22.666 -34.828  0.00  0.00    -0.040 C 
ATOM     14  C   UNL     1      41.073 -22.349 -36.144  0.00  0.00    -0.051 C 
ATOM     15  C   UNL     1      40.434 -21.131 -36.798  0.00  0.00    -0.040 C 
ATOM     16  C   UNL     1      40.366 -19.946 -35.830  0.00  0.00    -0.001 C 
ATOM     17  H   UNL     1      38.708 -20.570 -34.861  0.00  0.00    +0.000 HD
ENDBRANCH  10  11
ENDBRANCH   9  10
ENDBRANCH   8   9
ENDBRANCH   7   8
ENDBRANCH   5   7
ENDBRANCH   4   5
ENDBRANCH   3   4
ENDBRANCH   1   3
BRANCH   1  18
ATOM     18  C   UNL     1      44.029 -19.105 -36.718  0.00  0.00    -0.046 C 
BRANCH  18  19
ATOM     19  C   UNL     1      44.960 -19.215 -37.975  0.00  0.00    -0.012 C 
ATOM     20  C   UNL     1      46.262 -19.983 -37.700  0.00  0.00    -0.045 C 
ATOM     21  C   UNL     1      46.754 -20.863 -38.589  0.00  0.00    -0.082 C 
ATOM     22  C   UNL     1      46.154 -21.181 -39.912  0.00  0.00    -0.031 C 
ATOM     23  C   UNL     1      45.117 -20.155 -40.424  0.00  0.00    -0.027 C 
ATOM     24  C   UNL     1      44.389 -20.661 -41.744  0.00  0.00    -0.031 C 
ATOM     25  C   UNL     1      44.215 -19.488 -42.740  0.00  0.00    -0.060 C 
ATOM     26  C   UNL     1      45.218 -21.716 -42.527  0.00  0.00    -0.060 C 
ATOM     27  C   UNL     1      43.000 -21.282 -41.440  0.00  0.00    -0.048 C 
ATOM     28  C   UNL     1      42.912 -21.919 -40.060  0.00  0.00    -0.052 C 
ATOM     29  C   UNL     1      43.247 -20.973 -38.900  0.00  0.00    -0.047 C 
ATOM     30  C   UNL     1      44.142 -19.750 -39.258  0.00  0.00    -0.022 C 
ATOM     31  C   UNL     1      43.234 -18.569 -39.705  0.00  0.00    -0.059 C 
BRANCH  20  32
ATOM     32  C   UNL     1      47.022 -19.649 -36.432  0.00  0.00    +0.066 C 
BRANCH  32  33
ATOM     33  O   UNL     1      47.175 -20.767 -35.568  0.00  0.00    -0.391 OA
ATOM     34  H   UNL     1      47.165 -20.467 -34.646  0.00  0.00    +0.000 HD
ENDBRANCH  32  33
ENDBRANCH  20  32
ENDBRANCH  18  19
ENDBRANCH   1  18
TORSDOF 12
ENDMDL
MODEL 10
REMARK VINA RESULT:    -6.397     17.281     20.290
REMARK INTER + INTRA:         -12.307
REMARK INTER:                  -9.760
REMARK INTRA:                  -2.547
REMARK UNBOUND:                -1.609
REMARK  Name = cpd303.pdb
REMARK  16 active torsions:
REMARK  status: ('A' for Active; 'I' for Inactive)
REMARK    1  A    between atoms: C_1  and  C_2
REMARK    2  A    between atoms: C_2  and  C_3
REMARK    3  A    between atoms: C_2  and  C_20
REMARK    4  A    between atoms: C_3  and  C_4
REMARK    5  A    between atoms: C_4  and  C_5
REMARK    6  A    between atoms: C_6  and  C_7
REMARK    7  A    between atoms: C_7  and  O_8
REMARK    8  A    between atoms: C_12  and  C_13
REMARK    9  A    between atoms: C_12  and  C_14
REMARK   10  A    between atoms: C_18  and  C_19
REMARK   11  A    between atoms: C_20  and  C_21
REMARK   12  A    between atoms: C_21  and  O_23
REMARK   13  A    between atoms: O_23  and  C_24
REMARK   14  A    between atoms: C_24  and  C_25
REMARK   15  A    between atoms: C_25  and  C_26
REMARK   16  A    between atoms: C_26  and  N_27
REMARK                            x       y       z     vdW  Elec       q    Type
REMARK                         _______ _______ _______ _____ _____    ______ ____
ROOT
ATOM      1  C   UNL     1      41.764 -20.476 -36.877  0.00  0.00    -0.049 C 
ENDROOT
BRANCH   1   3
ATOM      2  C   UNL     1      39.757 -19.151 -37.714  0.00  0.00    -0.062 C 
ATOM      3  C   UNL     1      40.322 -20.011 -36.584  0.00  0.00    -0.034 C 
BRANCH   3   4
ATOM      4  C   UNL     1      39.394 -21.203 -36.268  0.00  0.00    +0.048 C 
BRANCH   4   5
ATOM      5  C   UNL     1      40.118 -22.486 -35.921  0.00  0.00    +0.307 C 
ATOM      6  O   UNL     1      40.240 -23.385 -36.750  0.00  0.00    -0.251 OA
BRANCH   5   7
ATOM      7  O   UNL     1      40.586 -22.658 -34.664  0.00  0.00    -0.465 OA
BRANCH   7   8
ATOM      8  C   UNL     1      40.231 -21.847 -33.526  0.00  0.00    +0.094 C 
BRANCH   8   9
ATOM      9  C   UNL     1      41.484 -21.440 -32.756  0.00  0.00    -0.006 C 
BRANCH   9  10
ATOM     10  C   UNL     1      41.548 -19.920 -32.577  0.00  0.00    +0.002 C 
BRANCH  10  11
ATOM     11  N   UNL     1      42.754 -19.321 -33.171  0.00  0.00    -0.302 N 
ATOM     12  C   UNL     1      42.383 -18.153 -33.991  0.00  0.00    -0.001 C 
ATOM     13  C   UNL     1      43.616 -17.452 -34.562  0.00  0.00    -0.040 C 
ATOM     14  C   UNL     1      44.474 -18.415 -35.370  0.00  0.00    -0.051 C 
ATOM     15  C   UNL     1      44.794 -19.655 -34.546  0.00  0.00    -0.040 C 
ATOM     16  C   UNL     1      43.525 -20.288 -33.968  0.00  0.00    -0.001 C 
ATOM     17  H   UNL     1      43.358 -19.021 -32.405  0.00  0.00    +0.000 HD
ENDBRANCH  10  11
ENDBRANCH   9  10
ENDBRANCH   8   9
ENDBRANCH   7   8
ENDBRANCH   5   7
ENDBRANCH   4   5
ENDBRANCH   3   4
ENDBRANCH   1   3
BRANCH   1  18
ATOM     18  C   UNL     1      42.422 -19.974 -38.182  0.00  0.00    -0.046 C 
BRANCH  18  19
ATOM     19  C   UNL     1      43.230 -20.987 -39.065  0.00  0.00    -0.012 C 
ATOM     20  C   UNL     1      42.448 -21.478 -40.294  0.00  0.00    -0.045 C 
ATOM     21  C   UNL     1      43.043 -21.608 -41.492  0.00  0.00    -0.082 C 
ATOM     22  C   UNL     1      44.478 -21.340 -41.778  0.00  0.00    -0.031 C 
ATOM     23  C   UNL     1      45.391 -21.269 -40.533  0.00  0.00    -0.027 C 
ATOM     24  C   UNL     1      46.862 -20.793 -40.907  0.00  0.00    -0.031 C 
ATOM     25  C   UNL     1      47.906 -21.609 -40.105  0.00  0.00    -0.060 C 
ATOM     26  C   UNL     1      47.223 -21.055 -42.395  0.00  0.00    -0.060 C 
ATOM     27  C   UNL     1      47.073 -19.281 -40.628  0.00  0.00    -0.048 C 
ATOM     28  C   UNL     1      45.798 -18.460 -40.759  0.00  0.00    -0.052 C 
ATOM     29  C   UNL     1      44.644 -18.927 -39.863  0.00  0.00    -0.047 C 
ATOM     30  C   UNL     1      44.698 -20.416 -39.408  0.00  0.00    -0.022 C 
ATOM     31  C   UNL     1      45.510 -20.513 -38.085  0.00  0.00    -0.059 C 
BRANCH  20  32
ATOM     32  C   UNL     1      41.006 -21.894 -40.091  0.00  0.00    +0.066 C 
BRANCH  32  33
ATOM     33  O   UNL     1      40.879 -23.154 -39.444  0.00  0.00    -0.391 OA
ATOM     34  H   UNL     1      40.827 -23.856 -40.111  0.00  0.00    +0.000 HD
ENDBRANCH  32  33
ENDBRANCH  20  32
ENDBRANCH  18  19
ENDBRANCH   1  18
TORSDOF 12
ENDMDL
MODEL 11
REMARK VINA RESULT:    -6.382     18.658     21.303
REMARK INTER + INTRA:         -12.282
REMARK INTER:                  -9.637
REMARK INTRA:                  -2.645
REMARK UNBOUND:                -1.609
REMARK  Name = cpd303.pdb
REMARK  16 active torsions:
REMARK  status: ('A' for Active; 'I' for Inactive)
REMARK    1  A    between atoms: C_1  and  C_2
REMARK    2  A    between atoms: C_2  and  C_3
REMARK    3  A    between atoms: C_2  and  C_20
REMARK    4  A    between atoms: C_3  and  C_4
REMARK    5  A    between atoms: C_4  and  C_5
REMARK    6  A    between atoms: C_6  and  C_7
REMARK    7  A    between atoms: C_7  and  O_8
REMARK    8  A    between atoms: C_12  and  C_13
REMARK    9  A    between atoms: C_12  and  C_14
REMARK   10  A    between atoms: C_18  and  C_19
REMARK   11  A    between atoms: C_20  and  C_21
REMARK   12  A    between atoms: C_21  and  O_23
REMARK   13  A    between atoms: O_23  and  C_24
REMARK   14  A    between atoms: C_24  and  C_25
REMARK   15  A    between atoms: C_25  and  C_26
REMARK   16  A    between atoms: C_26  and  N_27
REMARK                            x       y       z     vdW  Elec       q    Type
REMARK                         _______ _______ _______ _____ _____    ______ ____
ROOT
ATOM      1  C   UNL     1      42.706 -20.307 -35.457  0.00  0.00    -0.049 C 
ENDROOT
BRANCH   1   3
ATOM      2  C   UNL     1      40.546 -21.169 -34.421  0.00  0.00    -0.062 C 
ATOM      3  C   UNL     1      41.623 -20.085 -34.381  0.00  0.00    -0.034 C 
BRANCH   3   4
ATOM      4  C   UNL     1      42.239 -19.958 -32.972  0.00  0.00    +0.048 C 
BRANCH   4   5
ATOM      5  C   UNL     1      43.056 -18.702 -32.756  0.00  0.00    +0.307 C 
ATOM      6  O   UNL     1      42.507 -17.612 -32.603  0.00  0.00    -0.251 OA
BRANCH   5   7
ATOM      7  O   UNL     1      44.405 -18.780 -32.788  0.00  0.00    -0.465 OA
BRANCH   7   8
ATOM      8  C   UNL     1      45.284 -17.772 -33.324  0.00  0.00    +0.094 C 
BRANCH   8   9
ATOM      9  C   UNL     1      45.505 -18.001 -34.816  0.00  0.00    -0.006 C 
BRANCH   9  10
ATOM     10  C   UNL     1      44.672 -17.023 -35.651  0.00  0.00    +0.002 C 
BRANCH  10  11
ATOM     11  N   UNL     1      45.177 -16.866 -37.025  0.00  0.00    -0.302 N 
ATOM     12  C   UNL     1      46.551 -17.393 -37.118  0.00  0.00    -0.001 C 
ATOM     13  C   UNL     1      47.084 -17.324 -38.549  0.00  0.00    -0.040 C 
ATOM     14  C   UNL     1      47.024 -15.903 -39.092  0.00  0.00    -0.051 C 
ATOM     15  C   UNL     1      45.621 -15.335 -38.927  0.00  0.00    -0.040 C 
ATOM     16  C   UNL     1      45.126 -15.469 -37.484  0.00  0.00    -0.001 C 
ATOM     17  H   UNL     1      44.564 -17.402 -37.640  0.00  0.00    +0.000 HD
ENDBRANCH  10  11
ENDBRANCH   9  10
ENDBRANCH   8   9
ENDBRANCH   7   8
ENDBRANCH   5   7
ENDBRANCH   4   5
ENDBRANCH   3   4
ENDBRANCH   1   3
BRANCH   1  18
ATOM     18  C   UNL     1      42.331 -19.985 -36.921  0.00  0.00    -0.046 C 
BRANCH  18  19
ATOM     19  C   UNL     1      42.671 -21.029 -38.040  0.00  0.00    -0.012 C 
ATOM     20  C   UNL     1      41.437 -21.496 -38.828  0.00  0.00    -0.045 C 
ATOM     21  C   UNL     1      41.480 -21.652 -40.163  0.00  0.00    -0.082 C 
ATOM     22  C   UNL     1      42.676 -21.435 -41.020  0.00  0.00    -0.031 C 
ATOM     23  C   UNL     1      44.024 -21.392 -40.263  0.00  0.00    -0.027 C 
ATOM     24  C   UNL     1      45.222 -20.969 -41.220  0.00  0.00    -0.031 C 
ATOM     25  C   UNL     1      46.479 -21.818 -40.905  0.00  0.00    -0.060 C 
ATOM     26  C   UNL     1      44.930 -21.249 -42.719  0.00  0.00    -0.060 C 
ATOM     27  C   UNL     1      45.576 -19.465 -41.080  0.00  0.00    -0.048 C 
ATOM     28  C   UNL     1      44.386 -18.600 -40.688  0.00  0.00    -0.052 C 
ATOM     29  C   UNL     1      43.691 -19.023 -39.387  0.00  0.00    -0.047 C 
ATOM     30  C   UNL     1      43.883 -20.511 -38.968  0.00  0.00    -0.022 C 
ATOM     31  C   UNL     1      45.166 -20.632 -38.096  0.00  0.00    -0.059 C 
BRANCH  20  32
ATOM     32  C   UNL     1      40.195 -21.861 -38.041  0.00  0.00    +0.066 C 
BRANCH  32  33
ATOM     33  O   UNL     1      39.002 -21.350 -38.621  0.00  0.00    -0.391 OA
ATOM     34  H   UNL     1      38.240 -21.625 -38.088  0.00  0.00    +0.000 HD
ENDBRANCH  32  33
ENDBRANCH  20  32
ENDBRANCH  18  19
ENDBRANCH   1  18
TORSDOF 12
ENDMDL
MODEL 12
REMARK VINA RESULT:    -6.360     18.181     20.869
REMARK INTER + INTRA:         -12.245
REMARK INTER:                  -9.096
REMARK INTRA:                  -3.149
REMARK UNBOUND:                -1.609
REMARK  Name = cpd303.pdb
REMARK  16 active torsions:
REMARK  status: ('A' for Active; 'I' for Inactive)
REMARK    1  A    between atoms: C_1  and  C_2
REMARK    2  A    between atoms: C_2  and  C_3
REMARK    3  A    between atoms: C_2  and  C_20
REMARK    4  A    between atoms: C_3  and  C_4
REMARK    5  A    between atoms: C_4  and  C_5
REMARK    6  A    between atoms: C_6  and  C_7
REMARK    7  A    between atoms: C_7  and  O_8
REMARK    8  A    between atoms: C_12  and  C_13
REMARK    9  A    between atoms: C_12  and  C_14
REMARK   10  A    between atoms: C_18  and  C_19
REMARK   11  A    between atoms: C_20  and  C_21
REMARK   12  A    between atoms: C_21  and  O_23
REMARK   13  A    between atoms: O_23  and  C_24
REMARK   14  A    between atoms: C_24  and  C_25
REMARK   15  A    between atoms: C_25  and  C_26
REMARK   16  A    between atoms: C_26  and  N_27
REMARK                            x       y       z     vdW  Elec       q    Type
REMARK                         _______ _______ _______ _____ _____    ______ ____
ROOT
ATOM      1  C   UNL     1      40.119 -20.290 -38.300  0.00  0.00    -0.049 C 
ENDROOT
BRANCH   1   3
ATOM      2  C   UNL     1      41.144 -22.355 -37.219  0.00  0.00    -0.062 C 
ATOM      3  C   UNL     1      39.856 -21.580 -37.496  0.00  0.00    -0.034 C 
BRANCH   3   4
ATOM      4  C   UNL     1      39.086 -21.288 -36.190  0.00  0.00    +0.048 C 
BRANCH   4   5
ATOM      5  C   UNL     1      39.953 -21.232 -34.950  0.00  0.00    +0.307 C 
ATOM      6  O   UNL     1      39.955 -22.157 -34.141  0.00  0.00    -0.251 OA
BRANCH   5   7
ATOM      7  O   UNL     1      40.689 -20.123 -34.711  0.00  0.00    -0.465 OA
BRANCH   7   8
ATOM      8  C   UNL     1      41.925 -20.090 -33.971  0.00  0.00    +0.094 C 
BRANCH   8   9
ATOM      9  C   UNL     1      43.114 -20.083 -34.927  0.00  0.00    -0.006 C 
BRANCH   9  10
ATOM     10  C   UNL     1      44.433 -19.930 -34.162  0.00  0.00    +0.002 C 
BRANCH  10  11
ATOM     11  N   UNL     1      45.422 -19.110 -34.880  0.00  0.00    -0.302 N 
ATOM     12  C   UNL     1      44.734 -18.165 -35.778  0.00  0.00    -0.001 C 
ATOM     13  C   UNL     1      45.722 -17.238 -36.485  0.00  0.00    -0.040 C 
ATOM     14  C   UNL     1      46.771 -18.031 -37.253  0.00  0.00    -0.051 C 
ATOM     15  C   UNL     1      47.429 -19.056 -36.340  0.00  0.00    -0.040 C 
ATOM     16  C   UNL     1      46.388 -19.928 -35.631  0.00  0.00    -0.001 C 
ATOM     17  H   UNL     1      45.954 -18.590 -34.183  0.00  0.00    +0.000 HD
ENDBRANCH  10  11
ENDBRANCH   9  10
ENDBRANCH   8   9
ENDBRANCH   7   8
ENDBRANCH   5   7
ENDBRANCH   4   5
ENDBRANCH   3   4
ENDBRANCH   1   3
BRANCH   1  18
ATOM     18  C   UNL     1      41.507 -19.629 -38.151  0.00  0.00    -0.046 C 
BRANCH  18  19
ATOM     19  C   UNL     1      42.271 -19.163 -39.439  0.00  0.00    -0.012 C 
ATOM     20  C   UNL     1      42.773 -17.713 -39.354  0.00  0.00    -0.045 C 
ATOM     21  C   UNL     1      43.992 -17.371 -39.805  0.00  0.00    -0.082 C 
ATOM     22  C   UNL     1      44.967 -18.293 -40.446  0.00  0.00    -0.031 C 
ATOM     23  C   UNL     1      44.372 -19.630 -40.945  0.00  0.00    -0.027 C 
ATOM     24  C   UNL     1      45.505 -20.630 -41.441  0.00  0.00    -0.031 C 
ATOM     25  C   UNL     1      45.044 -21.362 -42.726  0.00  0.00    -0.060 C 
ATOM     26  C   UNL     1      46.815 -19.905 -41.855  0.00  0.00    -0.060 C 
ATOM     27  C   UNL     1      45.868 -21.681 -40.358  0.00  0.00    -0.048 C 
ATOM     28  C   UNL     1      45.670 -21.175 -38.936  0.00  0.00    -0.052 C 
ATOM     29  C   UNL     1      44.251 -20.680 -38.628  0.00  0.00    -0.047 C 
ATOM     30  C   UNL     1      43.407 -20.227 -39.856  0.00  0.00    -0.022 C 
ATOM     31  C   UNL     1      42.647 -21.457 -40.431  0.00  0.00    -0.059 C 
BRANCH  20  32
ATOM     32  C   UNL     1      41.815 -16.665 -38.827  0.00  0.00    +0.066 C 
BRANCH  32  33
ATOM     33  O   UNL     1      42.039 -16.348 -37.459  0.00  0.00    -0.391 OA
ATOM     34  H   UNL     1      42.425 -17.116 -37.009  0.00  0.00    +0.000 HD
ENDBRANCH  32  33
ENDBRANCH  20  32
ENDBRANCH  18  19
ENDBRANCH   1  18
TORSDOF 12
ENDMDL
MODEL 13
REMARK VINA RESULT:    -6.360     18.670     21.719
REMARK INTER + INTRA:         -12.244
REMARK INTER:                  -9.378
REMARK INTRA:                  -2.867
REMARK UNBOUND:                -1.609
REMARK  Name = cpd303.pdb
REMARK  16 active torsions:
REMARK  status: ('A' for Active; 'I' for Inactive)
REMARK    1  A    between atoms: C_1  and  C_2
REMARK    2  A    between atoms: C_2  and  C_3
REMARK    3  A    between atoms: C_2  and  C_20
REMARK    4  A    between atoms: C_3  and  C_4
REMARK    5  A    between atoms: C_4  and  C_5
REMARK    6  A    between atoms: C_6  and  C_7
REMARK    7  A    between atoms: C_7  and  O_8
REMARK    8  A    between atoms: C_12  and  C_13
REMARK    9  A    between atoms: C_12  and  C_14
REMARK   10  A    between atoms: C_18  and  C_19
REMARK   11  A    between atoms: C_20  and  C_21
REMARK   12  A    between atoms: C_21  and  O_23
REMARK   13  A    between atoms: O_23  and  C_24
REMARK   14  A    between atoms: C_24  and  C_25
REMARK   15  A    between atoms: C_25  and  C_26
REMARK   16  A    between atoms: C_26  and  N_27
REMARK                            x       y       z     vdW  Elec       q    Type
REMARK                         _______ _______ _______ _____ _____    ______ ____
ROOT
ATOM      1  C   UNL     1      46.059 -17.717 -36.222  0.00  0.00    -0.049 C 
ENDROOT
BRANCH   1   3
ATOM      2  C   UNL     1      47.867 -18.855 -34.836  0.00  0.00    -0.062 C 
ATOM      3  C   UNL     1      46.535 -19.030 -35.566  0.00  0.00    -0.034 C 
BRANCH   3   4
ATOM      4  C   UNL     1      45.458 -19.623 -34.634  0.00  0.00    +0.048 C 
BRANCH   4   5
ATOM      5  C   UNL     1      44.774 -18.609 -33.742  0.00  0.00    +0.307 C 
ATOM      6  O   UNL     1      45.396 -18.030 -32.854  0.00  0.00    -0.251 OA
BRANCH   5   7
ATOM      7  O   UNL     1      43.450 -18.383 -33.896  0.00  0.00    -0.465 OA
BRANCH   7   8
ATOM      8  C   UNL     1      42.446 -18.602 -32.886  0.00  0.00    +0.094 C 
BRANCH   8   9
ATOM      9  C   UNL     1      41.690 -19.899 -33.164  0.00  0.00    -0.006 C 
BRANCH   9  10
ATOM     10  C   UNL     1      40.622 -19.691 -34.242  0.00  0.00    +0.002 C 
BRANCH  10  11
ATOM     11  N   UNL     1      41.126 -19.933 -35.604  0.00  0.00    -0.302 N 
ATOM     12  C   UNL     1      39.997 -20.164 -36.524  0.00  0.00    -0.001 C 
ATOM     13  C   UNL     1      40.472 -20.339 -37.966  0.00  0.00    -0.040 C 
ATOM     14  C   UNL     1      41.487 -21.468 -38.079  0.00  0.00    -0.051 C 
ATOM     15  C   UNL     1      42.615 -21.265 -37.077  0.00  0.00    -0.040 C 
ATOM     16  C   UNL     1      42.076 -21.055 -35.659  0.00  0.00    -0.001 C 
ATOM     17  H   UNL     1      41.636 -19.099 -35.895  0.00  0.00    +0.000 HD
ENDBRANCH  10  11
ENDBRANCH   9  10
ENDBRANCH   8   9
ENDBRANCH   7   8
ENDBRANCH   5   7
ENDBRANCH   4   5
ENDBRANCH   3   4
ENDBRANCH   1   3
BRANCH   1  18
ATOM     18  C   UNL     1      45.875 -17.714 -37.756  0.00  0.00    -0.046 C 
BRANCH  18  19
ATOM     19  C   UNL     1      45.099 -18.898 -38.431  0.00  0.00    -0.012 C 
ATOM     20  C   UNL     1      43.737 -18.481 -39.006  0.00  0.00    -0.045 C 
ATOM     21  C   UNL     1      43.315 -18.936 -40.198  0.00  0.00    -0.082 C 
ATOM     22  C   UNL     1      44.055 -19.885 -41.072  0.00  0.00    -0.031 C 
ATOM     23  C   UNL     1      45.195 -20.662 -40.376  0.00  0.00    -0.027 C 
ATOM     24  C   UNL     1      46.052 -21.507 -41.415  0.00  0.00    -0.031 C 
ATOM     25  C   UNL     1      46.404 -22.892 -40.815  0.00  0.00    -0.060 C 
ATOM     26  C   UNL     1      45.274 -21.835 -42.719  0.00  0.00    -0.060 C 
ATOM     27  C   UNL     1      47.363 -20.779 -41.817  0.00  0.00    -0.048 C 
ATOM     28  C   UNL     1      47.251 -19.261 -41.761  0.00  0.00    -0.052 C 
ATOM     29  C   UNL     1      46.823 -18.703 -40.398  0.00  0.00    -0.047 C 
ATOM     30  C   UNL     1      46.039 -19.685 -39.478  0.00  0.00    -0.022 C 
ATOM     31  C   UNL     1      47.052 -20.492 -38.615  0.00  0.00    -0.059 C 
BRANCH  20  32
ATOM     32  C   UNL     1      42.846 -17.609 -38.146  0.00  0.00    +0.066 C 
BRANCH  32  33
ATOM     33  O   UNL     1      42.807 -16.256 -38.582  0.00  0.00    -0.391 OA
ATOM     34  H   UNL     1      42.688 -15.673 -37.816  0.00  0.00    +0.000 HD
ENDBRANCH  32  33
ENDBRANCH  20  32
ENDBRANCH  18  19
ENDBRANCH   1  18
TORSDOF 12
ENDMDL
MODEL 14
REMARK VINA RESULT:    -6.344     16.721     19.329
REMARK INTER + INTRA:         -12.218
REMARK INTER:                 -10.223
REMARK INTRA:                  -1.994
REMARK UNBOUND:                -1.609
REMARK  Name = cpd303.pdb
REMARK  16 active torsions:
REMARK  status: ('A' for Active; 'I' for Inactive)
REMARK    1  A    between atoms: C_1  and  C_2
REMARK    2  A    between atoms: C_2  and  C_3
REMARK    3  A    between atoms: C_2  and  C_20
REMARK    4  A    between atoms: C_3  and  C_4
REMARK    5  A    between atoms: C_4  and  C_5
REMARK    6  A    between atoms: C_6  and  C_7
REMARK    7  A    between atoms: C_7  and  O_8
REMARK    8  A    between atoms: C_12  and  C_13
REMARK    9  A    between atoms: C_12  and  C_14
REMARK   10  A    between atoms: C_18  and  C_19
REMARK   11  A    between atoms: C_20  and  C_21
REMARK   12  A    between atoms: C_21  and  O_23
REMARK   13  A    between atoms: O_23  and  C_24
REMARK   14  A    between atoms: C_24  and  C_25
REMARK   15  A    between atoms: C_25  and  C_26
REMARK   16  A    between atoms: C_26  and  N_27
REMARK                            x       y       z     vdW  Elec       q    Type
REMARK                         _______ _______ _______ _____ _____    ______ ____
ROOT
ATOM      1  C   UNL     1      42.557 -19.080 -37.648  0.00  0.00    -0.049 C 
ENDROOT
BRANCH   1   3
ATOM      2  C   UNL     1      43.569 -16.747 -37.508  0.00  0.00    -0.062 C 
ATOM      3  C   UNL     1      43.700 -18.210 -37.086  0.00  0.00    -0.034 C 
BRANCH   3   4
ATOM      4  C   UNL     1      43.813 -18.343 -35.552  0.00  0.00    +0.048 C 
BRANCH   4   5
ATOM      5  C   UNL     1      45.218 -18.592 -35.046  0.00  0.00    +0.307 C 
ATOM      6  O   UNL     1      45.704 -17.885 -34.165  0.00  0.00    -0.251 OA
BRANCH   5   7
ATOM      7  O   UNL     1      45.957 -19.571 -35.612  0.00  0.00    -0.465 OA
BRANCH   7   8
ATOM      8  C   UNL     1      47.221 -19.379 -36.279  0.00  0.00    +0.094 C 
BRANCH   8   9
ATOM      9  C   UNL     1      47.031 -19.422 -37.793  0.00  0.00    -0.006 C 
BRANCH   9  10
ATOM     10  C   UNL     1      46.318 -20.709 -38.220  0.00  0.00    +0.002 C 
BRANCH  10  11
ATOM     11  N   UNL     1      46.080 -20.779 -39.671  0.00  0.00    -0.302 N 
ATOM     12  C   UNL     1      44.683 -21.170 -39.933  0.00  0.00    -0.001 C 
ATOM     13  C   UNL     1      44.372 -21.176 -41.430  0.00  0.00    -0.040 C 
ATOM     14  C   UNL     1      45.327 -22.086 -42.189  0.00  0.00    -0.051 C 
ATOM     15  C   UNL     1      46.770 -21.726 -41.860  0.00  0.00    -0.040 C 
ATOM     16  C   UNL     1      47.010 -21.697 -40.348  0.00  0.00    -0.001 C 
ATOM     17  H   UNL     1      46.251 -19.850 -40.056  0.00  0.00    +0.000 HD
ENDBRANCH  10  11
ENDBRANCH   9  10
ENDBRANCH   8   9
ENDBRANCH   7   8
ENDBRANCH   5   7
ENDBRANCH   4   5
ENDBRANCH   3   4
ENDBRANCH   1   3
BRANCH   1  18
ATOM     18  C   UNL     1      42.173 -20.349 -36.855  0.00  0.00    -0.046 C 
BRANCH  18  19
ATOM     19  C   UNL     1      40.656 -20.686 -36.647  0.00  0.00    -0.012 C 
ATOM     20  C   UNL     1      40.242 -22.028 -37.270  0.00  0.00    -0.045 C 
ATOM     21  C   UNL     1      39.416 -22.870 -36.625  0.00  0.00    -0.082 C 
ATOM     22  C   UNL     1      38.792 -22.622 -35.298  0.00  0.00    -0.031 C 
ATOM     23  C   UNL     1      38.815 -21.149 -34.830  0.00  0.00    -0.027 C 
ATOM     24  C   UNL     1      38.303 -20.999 -33.332  0.00  0.00    -0.031 C 
ATOM     25  C   UNL     1      37.409 -19.742 -33.197  0.00  0.00    -0.060 C 
ATOM     26  C   UNL     1      37.393 -22.174 -32.881  0.00  0.00    -0.060 C 
ATOM     27  C   UNL     1      39.479 -20.899 -32.323  0.00  0.00    -0.048 C 
ATOM     28  C   UNL     1      40.731 -21.634 -32.781  0.00  0.00    -0.052 C 
ATOM     29  C   UNL     1      41.268 -21.189 -34.147  0.00  0.00    -0.047 C 
ATOM     30  C   UNL     1      40.232 -20.523 -35.100  0.00  0.00    -0.022 C 
ATOM     31  C   UNL     1      40.202 -18.992 -34.827  0.00  0.00    -0.059 C 
BRANCH  20  32
ATOM     32  C   UNL     1      40.725 -22.332 -38.673  0.00  0.00    +0.066 C 
BRANCH  32  33
ATOM     33  O   UNL     1      40.307 -23.609 -39.138  0.00  0.00    -0.391 OA
ATOM     34  H   UNL     1      39.608 -23.498 -39.801  0.00  0.00    +0.000 HD
ENDBRANCH  32  33
ENDBRANCH  20  32
ENDBRANCH  18  19
ENDBRANCH   1  18
TORSDOF 12
ENDMDL
MODEL 15
REMARK VINA RESULT:    -6.294      2.232      3.464
REMARK INTER + INTRA:         -12.134
REMARK INTER:                 -10.446
REMARK INTRA:                  -1.687
REMARK UNBOUND:                -1.609
REMARK  Name = cpd303.pdb
REMARK  16 active torsions:
REMARK  status: ('A' for Active; 'I' for Inactive)
REMARK    1  A    between atoms: C_1  and  C_2
REMARK    2  A    between atoms: C_2  and  C_3
REMARK    3  A    between atoms: C_2  and  C_20
REMARK    4  A    between atoms: C_3  and  C_4
REMARK    5  A    between atoms: C_4  and  C_5
REMARK    6  A    between atoms: C_6  and  C_7
REMARK    7  A    between atoms: C_7  and  O_8
REMARK    8  A    between atoms: C_12  and  C_13
REMARK    9  A    between atoms: C_12  and  C_14
REMARK   10  A    between atoms: C_18  and  C_19
REMARK   11  A    between atoms: C_20  and  C_21
REMARK   12  A    between atoms: C_21  and  O_23
REMARK   13  A    between atoms: O_23  and  C_24
REMARK   14  A    between atoms: C_24  and  C_25
REMARK   15  A    between atoms: C_25  and  C_26
REMARK   16  A    between atoms: C_26  and  N_27
REMARK                            x       y       z     vdW  Elec       q    Type
REMARK                         _______ _______ _______ _____ _____    ______ ____
ROOT
ATOM      1  C   UNL     1      32.884 -38.470 -32.483  0.00  0.00    -0.049 C 
ENDROOT
BRANCH   1   3
ATOM      2  C   UNL     1      34.147 -40.680 -32.537  0.00  0.00    -0.062 C 
ATOM      3  C   UNL     1      33.782 -39.453 -31.703  0.00  0.00    -0.034 C 
BRANCH   3   4
ATOM      4  C   UNL     1      35.043 -38.754 -31.151  0.00  0.00    +0.048 C 
BRANCH   4   5
ATOM      5  C   UNL     1      35.034 -38.537 -29.653  0.00  0.00    +0.307 C 
ATOM      6  O   UNL     1      34.001 -38.680 -29.002  0.00  0.00    -0.251 OA
BRANCH   5   7
ATOM      7  O   UNL     1      36.167 -38.129 -29.040  0.00  0.00    -0.465 OA
BRANCH   7   8
ATOM      8  C   UNL     1      37.296 -38.971 -28.733  0.00  0.00    +0.094 C 
BRANCH   8   9
ATOM      9  C   UNL     1      38.594 -38.177 -28.845  0.00  0.00    -0.006 C 
BRANCH   9  10
ATOM     10  C   UNL     1      38.424 -36.976 -29.781  0.00  0.00    +0.002 C 
BRANCH  10  11
ATOM     11  N   UNL     1      39.427 -36.940 -30.857  0.00  0.00    -0.302 N 
ATOM     12  C   UNL     1      40.783 -37.027 -30.284  0.00  0.00    -0.001 C 
ATOM     13  C   UNL     1      41.853 -37.074 -31.374  0.00  0.00    -0.040 C 
ATOM     14  C   UNL     1      41.748 -35.874 -32.304  0.00  0.00    -0.051 C 
ATOM     15  C   UNL     1      40.327 -35.745 -32.838  0.00  0.00    -0.040 C 
ATOM     16  C   UNL     1      39.299 -35.743 -31.704  0.00  0.00    -0.001 C 
ATOM     17  H   UNL     1      39.260 -37.747 -31.460  0.00  0.00    +0.000 HD
ENDBRANCH  10  11
ENDBRANCH   9  10
ENDBRANCH   8   9
ENDBRANCH   7   8
ENDBRANCH   5   7
ENDBRANCH   4   5
ENDBRANCH   3   4
ENDBRANCH   1   3
BRANCH   1  18
ATOM     18  C   UNL     1      32.102 -37.419 -31.664  0.00  0.00    -0.046 C 
BRANCH  18  19
ATOM     19  C   UNL     1      32.036 -35.942 -32.188  0.00  0.00    -0.012 C 
ATOM     20  C   UNL     1      30.600 -35.426 -32.367  0.00  0.00    -0.045 C 
ATOM     21  C   UNL     1      30.257 -34.179 -32.001  0.00  0.00    -0.082 C 
ATOM     22  C   UNL     1      31.178 -33.163 -31.426  0.00  0.00    -0.031 C 
ATOM     23  C   UNL     1      32.683 -33.459 -31.622  0.00  0.00    -0.027 C 
ATOM     24  C   UNL     1      33.594 -32.432 -30.820  0.00  0.00    -0.031 C 
ATOM     25  C   UNL     1      34.822 -32.029 -31.675  0.00  0.00    -0.060 C 
ATOM     26  C   UNL     1      32.874 -31.089 -30.518  0.00  0.00    -0.060 C 
ATOM     27  C   UNL     1      34.084 -33.020 -29.470  0.00  0.00    -0.048 C 
ATOM     28  C   UNL     1      33.120 -34.032 -28.867  0.00  0.00    -0.052 C 
ATOM     29  C   UNL     1      32.787 -35.218 -29.782  0.00  0.00    -0.047 C 
ATOM     30  C   UNL     1      32.976 -34.972 -31.308  0.00  0.00    -0.022 C 
ATOM     31  C   UNL     1      34.439 -35.327 -31.702  0.00  0.00    -0.059 C 
BRANCH  20  32
ATOM     32  C   UNL     1      29.604 -36.338 -33.053  0.00  0.00    +0.066 C 
BRANCH  32  33
ATOM     33  O   UNL     1      29.219 -35.870 -34.339  0.00  0.00    -0.391 OA
ATOM     34  H   UNL     1      29.162 -36.619 -34.952  0.00  0.00    +0.000 HD
ENDBRANCH  32  33
ENDBRANCH  20  32
ENDBRANCH  18  19
ENDBRANCH   1  18
TORSDOF 12
ENDMDL
MODEL 16
REMARK VINA RESULT:    -6.282     17.536     20.233
REMARK INTER + INTRA:         -12.114
REMARK INTER:                  -8.738
REMARK INTRA:                  -3.376
REMARK UNBOUND:                -1.609
REMARK  Name = cpd303.pdb
REMARK  16 active torsions:
REMARK  status: ('A' for Active; 'I' for Inactive)
REMARK    1  A    between atoms: C_1  and  C_2
REMARK    2  A    between atoms: C_2  and  C_3
REMARK    3  A    between atoms: C_2  and  C_20
REMARK    4  A    between atoms: C_3  and  C_4
REMARK    5  A    between atoms: C_4  and  C_5
REMARK    6  A    between atoms: C_6  and  C_7
REMARK    7  A    between atoms: C_7  and  O_8
REMARK    8  A    between atoms: C_12  and  C_13
REMARK    9  A    between atoms: C_12  and  C_14
REMARK   10  A    between atoms: C_18  and  C_19
REMARK   11  A    between atoms: C_20  and  C_21
REMARK   12  A    between atoms: C_21  and  O_23
REMARK   13  A    between atoms: O_23  and  C_24
REMARK   14  A    between atoms: C_24  and  C_25
REMARK   15  A    between atoms: C_25  and  C_26
REMARK   16  A    between atoms: C_26  and  N_27
REMARK                            x       y       z     vdW  Elec       q    Type
REMARK                         _______ _______ _______ _____ _____    ______ ____
ROOT
ATOM      1  C   UNL     1      40.299 -19.680 -33.874  0.00  0.00    -0.049 C 
ENDROOT
BRANCH   1   3
ATOM      2  C   UNL     1      40.728 -22.100 -33.211  0.00  0.00    -0.062 C 
ATOM      3  C   UNL     1      40.490 -21.129 -34.366  0.00  0.00    -0.034 C 
BRANCH   3   4
ATOM      4  C   UNL     1      39.311 -21.588 -35.251  0.00  0.00    +0.048 C 
BRANCH   4   5
ATOM      5  C   UNL     1      39.584 -22.838 -36.059  0.00  0.00    +0.307 C 
ATOM      6  O   UNL     1      38.935 -23.865 -35.868  0.00  0.00    -0.251 OA
BRANCH   5   7
ATOM      7  O   UNL     1      40.590 -22.833 -36.961  0.00  0.00    -0.465 OA
BRANCH   7   8
ATOM      8  C   UNL     1      40.693 -21.939 -38.087  0.00  0.00    +0.094 C 
BRANCH   8   9
ATOM      9  C   UNL     1      42.159 -21.666 -38.413  0.00  0.00    -0.006 C 
BRANCH   9  10
ATOM     10  C   UNL     1      42.294 -20.919 -39.744  0.00  0.00    +0.002 C 
BRANCH  10  11
ATOM     11  N   UNL     1      43.678 -20.889 -40.247  0.00  0.00    -0.302 N 
ATOM     12  C   UNL     1      44.618 -21.178 -39.149  0.00  0.00    -0.001 C 
ATOM     13  C   UNL     1      46.062 -21.237 -39.645  0.00  0.00    -0.040 C 
ATOM     14  C   UNL     1      46.456 -19.948 -40.354  0.00  0.00    -0.051 C 
ATOM     15  C   UNL     1      45.442 -19.614 -41.440  0.00  0.00    -0.040 C 
ATOM     16  C   UNL     1      44.012 -19.609 -40.892  0.00  0.00    -0.001 C 
ATOM     17  H   UNL     1      43.759 -21.611 -40.963  0.00  0.00    +0.000 HD
ENDBRANCH  10  11
ENDBRANCH   9  10
ENDBRANCH   8   9
ENDBRANCH   7   8
ENDBRANCH   5   7
ENDBRANCH   4   5
ENDBRANCH   3   4
ENDBRANCH   1   3
BRANCH   1  18
ATOM     18  C   UNL     1      41.194 -18.590 -34.505  0.00  0.00    -0.046 C 
BRANCH  18  19
ATOM     19  C   UNL     1      42.175 -18.989 -35.662  0.00  0.00    -0.012 C 
ATOM     20  C   UNL     1      41.851 -18.298 -36.996  0.00  0.00    -0.045 C 
ATOM     21  C   UNL     1      42.826 -17.809 -37.783  0.00  0.00    -0.082 C 
ATOM     22  C   UNL     1      44.284 -17.891 -37.503  0.00  0.00    -0.031 C 
ATOM     23  C   UNL     1      44.688 -18.928 -36.429  0.00  0.00    -0.027 C 
ATOM     24  C   UNL     1      46.230 -18.819 -36.056  0.00  0.00    -0.031 C 
ATOM     25  C   UNL     1      46.837 -20.234 -35.885  0.00  0.00    -0.060 C 
ATOM     26  C   UNL     1      47.081 -18.163 -37.178  0.00  0.00    -0.060 C 
ATOM     27  C   UNL     1      46.457 -18.006 -34.754  0.00  0.00    -0.048 C 
ATOM     28  C   UNL     1      45.392 -16.945 -34.511  0.00  0.00    -0.052 C 
ATOM     29  C   UNL     1      43.956 -17.482 -34.464  0.00  0.00    -0.047 C 
ATOM     30  C   UNL     1      43.712 -18.833 -35.200  0.00  0.00    -0.022 C 
ATOM     31  C   UNL     1      43.979 -20.005 -34.212  0.00  0.00    -0.059 C 
BRANCH  20  32
ATOM     32  C   UNL     1      40.403 -18.264 -37.438  0.00  0.00    +0.066 C 
BRANCH  32  33
ATOM     33  O   UNL     1      40.256 -18.042 -38.835  0.00  0.00    -0.391 OA
ATOM     34  H   UNL     1      39.346 -18.247 -39.100  0.00  0.00    +0.000 HD
ENDBRANCH  32  33
ENDBRANCH  20  32
ENDBRANCH  18  19
ENDBRANCH   1  18
TORSDOF 12
ENDMDL
MODEL 17
REMARK VINA RESULT:    -6.128     19.648     22.258
REMARK INTER + INTRA:         -11.857
REMARK INTER:                  -8.728
REMARK INTRA:                  -3.129
REMARK UNBOUND:                -1.609
REMARK  Name = cpd303.pdb
REMARK  16 active torsions:
REMARK  status: ('A' for Active; 'I' for Inactive)
REMARK    1  A    between atoms: C_1  and  C_2
REMARK    2  A    between atoms: C_2  and  C_3
REMARK    3  A    between atoms: C_2  and  C_20
REMARK    4  A    between atoms: C_3  and  C_4
REMARK    5  A    between atoms: C_4  and  C_5
REMARK    6  A    between atoms: C_6  and  C_7
REMARK    7  A    between atoms: C_7  and  O_8
REMARK    8  A    between atoms: C_12  and  C_13
REMARK    9  A    between atoms: C_12  and  C_14
REMARK   10  A    between atoms: C_18  and  C_19
REMARK   11  A    between atoms: C_20  and  C_21
REMARK   12  A    between atoms: C_21  and  O_23
REMARK   13  A    between atoms: O_23  and  C_24
REMARK   14  A    between atoms: C_24  and  C_25
REMARK   15  A    between atoms: C_25  and  C_26
REMARK   16  A    between atoms: C_26  and  N_27
REMARK                            x       y       z     vdW  Elec       q    Type
REMARK                         _______ _______ _______ _____ _____    ______ ____
ROOT
ATOM      1  C   UNL     1      42.202 -19.558 -38.692  0.00  0.00    -0.049 C 
ENDROOT
BRANCH   1   3
ATOM      2  C   UNL     1      41.581 -21.413 -40.321  0.00  0.00    -0.062 C 
ATOM      3  C   UNL     1      41.533 -20.936 -38.870  0.00  0.00    -0.034 C 
BRANCH   3   4
ATOM      4  C   UNL     1      42.135 -21.988 -37.913  0.00  0.00    +0.048 C 
BRANCH   4   5
ATOM      5  C   UNL     1      41.374 -22.164 -36.617  0.00  0.00    +0.307 C 
ATOM      6  O   UNL     1      40.372 -22.876 -36.567  0.00  0.00    -0.251 OA
BRANCH   5   7
ATOM      7  O   UNL     1      41.776 -21.486 -35.519  0.00  0.00    -0.465 OA
BRANCH   7   8
ATOM      8  C   UNL     1      41.300 -20.183 -35.126  0.00  0.00    +0.094 C 
BRANCH   8   9
ATOM      9  C   UNL     1      42.466 -19.204 -35.021  0.00  0.00    -0.006 C 
BRANCH   9  10
ATOM     10  C   UNL     1      43.806 -19.947 -35.004  0.00  0.00    +0.002 C 
BRANCH  10  11
ATOM     11  N   UNL     1      44.894 -19.181 -35.635  0.00  0.00    -0.302 N 
ATOM     12  C   UNL     1      45.922 -20.103 -36.153  0.00  0.00    -0.001 C 
ATOM     13  C   UNL     1      47.031 -19.353 -36.889  0.00  0.00    -0.040 C 
ATOM     14  C   UNL     1      47.669 -18.297 -35.997  0.00  0.00    -0.051 C 
ATOM     15  C   UNL     1      46.598 -17.390 -35.404  0.00  0.00    -0.040 C 
ATOM     16  C   UNL     1      45.495 -18.200 -34.717  0.00  0.00    -0.001 C 
ATOM     17  H   UNL     1      44.490 -18.653 -36.408  0.00  0.00    +0.000 HD
ENDBRANCH  10  11
ENDBRANCH   9  10
ENDBRANCH   8   9
ENDBRANCH   7   8
ENDBRANCH   5   7
ENDBRANCH   4   5
ENDBRANCH   3   4
ENDBRANCH   1   3
BRANCH   1  18
ATOM     18  C   UNL     1      43.116 -19.058 -39.833  0.00  0.00    -0.046 C 
BRANCH  18  19
ATOM     19  C   UNL     1      44.625 -18.761 -39.524  0.00  0.00    -0.012 C 
ATOM     20  C   UNL     1      45.594 -19.591 -40.380  0.00  0.00    -0.045 C 
ATOM     21  C   UNL     1      46.701 -19.044 -40.909  0.00  0.00    -0.082 C 
ATOM     22  C   UNL     1      47.142 -17.635 -40.725  0.00  0.00    -0.031 C 
ATOM     23  C   UNL     1      46.467 -16.887 -39.552  0.00  0.00    -0.027 C 
ATOM     24  C   UNL     1      46.848 -15.343 -39.542  0.00  0.00    -0.031 C 
ATOM     25  C   UNL     1      47.094 -14.865 -38.089  0.00  0.00    -0.060 C 
ATOM     26  C   UNL     1      48.180 -15.042 -40.282  0.00  0.00    -0.060 C 
ATOM     27  C   UNL     1      45.741 -14.466 -40.186  0.00  0.00    -0.048 C 
ATOM     28  C   UNL     1      44.946 -15.193 -41.262  0.00  0.00    -0.052 C 
ATOM     29  C   UNL     1      44.278 -16.492 -40.794  0.00  0.00    -0.047 C 
ATOM     30  C   UNL     1      44.921 -17.176 -39.551  0.00  0.00    -0.022 C 
ATOM     31  C   UNL     1      44.270 -16.601 -38.260  0.00  0.00    -0.059 C 
BRANCH  20  32
ATOM     32  C   UNL     1      45.305 -21.070 -40.535  0.00  0.00    +0.066 C 
BRANCH  32  33
ATOM     33  O   UNL     1      45.036 -21.444 -41.880  0.00  0.00    -0.391 OA
ATOM     34  H   UNL     1      45.774 -21.169 -42.446  0.00  0.00    +0.000 HD
ENDBRANCH  32  33
ENDBRANCH  20  32
ENDBRANCH  18  19
ENDBRANCH   1  18
TORSDOF 12
ENDMDL
MODEL 18
REMARK VINA RESULT:    -6.054     16.668     19.843
REMARK INTER + INTRA:         -11.733
REMARK INTER:                  -9.105
REMARK INTRA:                  -2.627
REMARK UNBOUND:                -1.609
REMARK  Name = cpd303.pdb
REMARK  16 active torsions:
REMARK  status: ('A' for Active; 'I' for Inactive)
REMARK    1  A    between atoms: C_1  and  C_2
REMARK    2  A    between atoms: C_2  and  C_3
REMARK    3  A    between atoms: C_2  and  C_20
REMARK    4  A    between atoms: C_3  and  C_4
REMARK    5  A    between atoms: C_4  and  C_5
REMARK    6  A    between atoms: C_6  and  C_7
REMARK    7  A    between atoms: C_7  and  O_8
REMARK    8  A    between atoms: C_12  and  C_13
REMARK    9  A    between atoms: C_12  and  C_14
REMARK   10  A    between atoms: C_18  and  C_19
REMARK   11  A    between atoms: C_20  and  C_21
REMARK   12  A    between atoms: C_21  and  O_23
REMARK   13  A    between atoms: O_23  and  C_24
REMARK   14  A    between atoms: C_24  and  C_25
REMARK   15  A    between atoms: C_25  and  C_26
REMARK   16  A    between atoms: C_26  and  N_27
REMARK                            x       y       z     vdW  Elec       q    Type
REMARK                         _______ _______ _______ _____ _____    ______ ____
ROOT
ATOM      1  C   UNL     1      41.054 -21.182 -35.320  0.00  0.00    -0.049 C 
ENDROOT
BRANCH   1   3
ATOM      2  C   UNL     1      39.732 -21.911 -37.369  0.00  0.00    -0.062 C 
ATOM      3  C   UNL     1      39.710 -21.718 -35.854  0.00  0.00    -0.034 C 
BRANCH   3   4
ATOM      4  C   UNL     1      39.287 -23.013 -35.129  0.00  0.00    +0.048 C 
BRANCH   4   5
ATOM      5  C   UNL     1      39.119 -22.868 -33.632  0.00  0.00    +0.307 C 
ATOM      6  O   UNL     1      39.413 -23.790 -32.873  0.00  0.00    -0.251 OA
BRANCH   5   7
ATOM      7  O   UNL     1      38.590 -21.727 -33.136  0.00  0.00    -0.465 OA
BRANCH   7   8
ATOM      8  C   UNL     1      37.214 -21.320 -33.272  0.00  0.00    +0.094 C 
BRANCH   8   9
ATOM      9  C   UNL     1      37.015 -19.925 -32.688  0.00  0.00    -0.006 C 
BRANCH   9  10
ATOM     10  C   UNL     1      37.408 -18.845 -33.700  0.00  0.00    +0.002 C 
BRANCH  10  11
ATOM     11  N   UNL     1      38.864 -18.747 -33.899  0.00  0.00    -0.302 N 
ATOM     12  C   UNL     1      39.529 -18.464 -32.615  0.00  0.00    -0.001 C 
ATOM     13  C   UNL     1      41.049 -18.435 -32.762  0.00  0.00    -0.040 C 
ATOM     14  C   UNL     1      41.483 -17.426 -33.817  0.00  0.00    -0.051 C 
ATOM     15  C   UNL     1      40.740 -17.677 -35.123  0.00  0.00    -0.040 C 
ATOM     16  C   UNL     1      39.226 -17.735 -34.904  0.00  0.00    -0.001 C 
ATOM     17  H   UNL     1      39.185 -19.647 -34.257  0.00  0.00    +0.000 HD
ENDBRANCH  10  11
ENDBRANCH   9  10
ENDBRANCH   8   9
ENDBRANCH   7   8
ENDBRANCH   5   7
ENDBRANCH   4   5
ENDBRANCH   3   4
ENDBRANCH   1   3
BRANCH   1  18
ATOM     18  C   UNL     1      42.283 -21.290 -36.250  0.00  0.00    -0.046 C 
BRANCH  18  19
ATOM     19  C   UNL     1      43.093 -19.992 -36.593  0.00  0.00    -0.012 C 
ATOM     20  C   UNL     1      44.402 -19.866 -35.798  0.00  0.00    -0.045 C 
ATOM     21  C   UNL     1      45.535 -19.440 -36.382  0.00  0.00    -0.082 C 
ATOM     22  C   UNL     1      45.670 -19.022 -37.803  0.00  0.00    -0.031 C 
ATOM     23  C   UNL     1      44.337 -18.715 -38.524  0.00  0.00    -0.027 C 
ATOM     24  C   UNL     1      44.554 -18.462 -40.079  0.00  0.00    -0.031 C 
ATOM     25  C   UNL     1      43.660 -17.291 -40.558  0.00  0.00    -0.060 C 
ATOM     26  C   UNL     1      46.000 -18.015 -40.425  0.00  0.00    -0.060 C 
ATOM     27  C   UNL     1      44.234 -19.725 -40.924  0.00  0.00    -0.048 C 
ATOM     28  C   UNL     1      44.482 -21.028 -40.178  0.00  0.00    -0.052 C 
ATOM     29  C   UNL     1      43.715 -21.163 -38.856  0.00  0.00    -0.047 C 
ATOM     30  C   UNL     1      43.277 -19.827 -38.187  0.00  0.00    -0.022 C 
ATOM     31  C   UNL     1      41.879 -19.418 -38.734  0.00  0.00    -0.059 C 
BRANCH  20  32
ATOM     32  C   UNL     1      44.352 -20.153 -34.311  0.00  0.00    +0.066 C 
BRANCH  32  33
ATOM     33  O   UNL     1      45.313 -21.117 -33.901  0.00  0.00    -0.391 OA
ATOM     34  H   UNL     1      45.751 -20.813 -33.092  0.00  0.00    +0.000 HD
ENDBRANCH  32  33
ENDBRANCH  20  32
ENDBRANCH  18  19
ENDBRANCH   1  18
TORSDOF 12
ENDMDL
MODEL 19
REMARK VINA RESULT:    -6.013     16.932     20.212
REMARK INTER + INTRA:         -11.664
REMARK INTER:                  -9.425
REMARK INTRA:                  -2.238
REMARK UNBOUND:                -1.609
REMARK  Name = cpd303.pdb
REMARK  16 active torsions:
REMARK  status: ('A' for Active; 'I' for Inactive)
REMARK    1  A    between atoms: C_1  and  C_2
REMARK    2  A    between atoms: C_2  and  C_3
REMARK    3  A    between atoms: C_2  and  C_20
REMARK    4  A    between atoms: C_3  and  C_4
REMARK    5  A    between atoms: C_4  and  C_5
REMARK    6  A    between atoms: C_6  and  C_7
REMARK    7  A    between atoms: C_7  and  O_8
REMARK    8  A    between atoms: C_12  and  C_13
REMARK    9  A    between atoms: C_12  and  C_14
REMARK   10  A    between atoms: C_18  and  C_19
REMARK   11  A    between atoms: C_20  and  C_21
REMARK   12  A    between atoms: C_21  and  O_23
REMARK   13  A    between atoms: O_23  and  C_24
REMARK   14  A    between atoms: C_24  and  C_25
REMARK   15  A    between atoms: C_25  and  C_26
REMARK   16  A    between atoms: C_26  and  N_27
REMARK                            x       y       z     vdW  Elec       q    Type
REMARK                         _______ _______ _______ _____ _____    ______ ____
ROOT
ATOM      1  C   UNL     1      41.361 -20.852 -36.202  0.00  0.00    -0.049 C 
ENDROOT
BRANCH   1   3
ATOM      2  C   UNL     1      40.283 -22.067 -38.162  0.00  0.00    -0.062 C 
ATOM      3  C   UNL     1      40.286 -20.801 -37.307  0.00  0.00    -0.034 C 
BRANCH   3   4
ATOM      4  C   UNL     1      38.886 -20.514 -36.724  0.00  0.00    +0.048 C 
BRANCH   4   5
ATOM      5  C   UNL     1      38.598 -19.048 -36.477  0.00  0.00    +0.307 C 
ATOM      6  O   UNL     1      38.585 -18.243 -37.407  0.00  0.00    -0.251 OA
BRANCH   5   7
ATOM      7  O   UNL     1      38.408 -18.619 -35.210  0.00  0.00    -0.465 OA
BRANCH   7   8
ATOM      8  C   UNL     1      37.127 -18.351 -34.606  0.00  0.00    +0.094 C 
BRANCH   8   9
ATOM      9  C   UNL     1      36.628 -19.581 -33.854  0.00  0.00    -0.006 C 
BRANCH   9  10
ATOM     10  C   UNL     1      37.485 -19.851 -32.614  0.00  0.00    +0.002 C 
BRANCH  10  11
ATOM     11  N   UNL     1      38.150 -21.164 -32.650  0.00  0.00    -0.302 N 
ATOM     12  C   UNL     1      39.601 -20.987 -32.843  0.00  0.00    -0.001 C 
ATOM     13  C   UNL     1      40.341 -22.324 -32.805  0.00  0.00    -0.040 C 
ATOM     14  C   UNL     1      39.783 -23.293 -33.839  0.00  0.00    -0.051 C 
ATOM     15  C   UNL     1      38.274 -23.418 -33.683  0.00  0.00    -0.040 C 
ATOM     16  C   UNL     1      37.594 -22.046 -33.688  0.00  0.00    -0.001 C 
ATOM     17  H   UNL     1      37.979 -21.620 -31.753  0.00  0.00    +0.000 HD
ENDBRANCH  10  11
ENDBRANCH   9  10
ENDBRANCH   8   9
ENDBRANCH   7   8
ENDBRANCH   5   7
ENDBRANCH   4   5
ENDBRANCH   3   4
ENDBRANCH   1   3
BRANCH   1  18
ATOM     18  C   UNL     1      42.824 -21.080 -36.643  0.00  0.00    -0.046 C 
BRANCH  18  19
ATOM     19  C   UNL     1      43.735 -19.835 -36.928  0.00  0.00    -0.012 C 
ATOM     20  C   UNL     1      44.974 -19.771 -36.022  0.00  0.00    -0.045 C 
ATOM     21  C   UNL     1      46.177 -19.420 -36.509  0.00  0.00    -0.082 C 
ATOM     22  C   UNL     1      46.459 -19.032 -37.917  0.00  0.00    -0.031 C 
ATOM     23  C   UNL     1      45.214 -18.662 -38.755  0.00  0.00    -0.027 C 
ATOM     24  C   UNL     1      45.580 -18.446 -40.288  0.00  0.00    -0.031 C 
ATOM     25  C   UNL     1      44.801 -17.234 -40.856  0.00  0.00    -0.060 C 
ATOM     26  C   UNL     1      47.074 -18.087 -40.510  0.00  0.00    -0.060 C 
ATOM     27  C   UNL     1      45.262 -19.702 -41.144  0.00  0.00    -0.048 C 
ATOM     28  C   UNL     1      45.369 -21.005 -40.365  0.00  0.00    -0.052 C 
ATOM     29  C   UNL     1      44.483 -21.075 -39.115  0.00  0.00    -0.047 C 
ATOM     30  C   UNL     1      44.066 -19.706 -38.501  0.00  0.00    -0.022 C 
ATOM     31  C   UNL     1      42.747 -19.227 -39.173  0.00  0.00    -0.059 C 
BRANCH  20  32
ATOM     32  C   UNL     1      44.779 -20.031 -34.542  0.00  0.00    +0.066 C 
BRANCH  32  33
ATOM     33  O   UNL     1      45.618 -21.066 -34.046  0.00  0.00    -0.391 OA
ATOM     34  H   UNL     1      46.088 -21.482 -34.785  0.00  0.00    +0.000 HD
ENDBRANCH  32  33
ENDBRANCH  20  32
ENDBRANCH  18  19
ENDBRANCH   1  18
TORSDOF 12
ENDMDL
MODEL 20
REMARK VINA RESULT:    -5.850     17.352     20.091
REMARK INTER + INTRA:         -11.392
REMARK INTER:                  -8.791
REMARK INTRA:                  -2.601
REMARK UNBOUND:                -1.609
REMARK  Name = cpd303.pdb
REMARK  16 active torsions:
REMARK  status: ('A' for Active; 'I' for Inactive)
REMARK    1  A    between atoms: C_1  and  C_2
REMARK    2  A    between atoms: C_2  and  C_3
REMARK    3  A    between atoms: C_2  and  C_20
REMARK    4  A    between atoms: C_3  and  C_4
REMARK    5  A    between atoms: C_4  and  C_5
REMARK    6  A    between atoms: C_6  and  C_7
REMARK    7  A    between atoms: C_7  and  O_8
REMARK    8  A    between atoms: C_12  and  C_13
REMARK    9  A    between atoms: C_12  and  C_14
REMARK   10  A    between atoms: C_18  and  C_19
REMARK   11  A    between atoms: C_20  and  C_21
REMARK   12  A    between atoms: C_21  and  O_23
REMARK   13  A    between atoms: O_23  and  C_24
REMARK   14  A    between atoms: C_24  and  C_25
REMARK   15  A    between atoms: C_25  and  C_26
REMARK   16  A    between atoms: C_26  and  N_27
REMARK                            x       y       z     vdW  Elec       q    Type
REMARK                         _______ _______ _______ _____ _____    ______ ____
ROOT
ATOM      1  C   UNL     1      42.630 -19.285 -38.537  0.00  0.00    -0.049 C 
ENDROOT
BRANCH   1   3
ATOM      2  C   UNL     1      43.281 -20.613 -40.610  0.00  0.00    -0.062 C 
ATOM      3  C   UNL     1      43.786 -19.784 -39.430  0.00  0.00    -0.034 C 
BRANCH   3   4
ATOM      4  C   UNL     1      44.680 -18.619 -39.904  0.00  0.00    +0.048 C 
BRANCH   4   5
ATOM      5  C   UNL     1      46.165 -18.906 -39.849  0.00  0.00    +0.307 C 
ATOM      6  O   UNL     1      46.915 -18.520 -40.743  0.00  0.00    -0.251 OA
BRANCH   5   7
ATOM      7  O   UNL     1      46.656 -19.643 -38.827  0.00  0.00    -0.465 OA
BRANCH   7   8
ATOM      8  C   UNL     1      47.212 -19.110 -37.609  0.00  0.00    +0.094 C 
BRANCH   8   9
ATOM      9  C   UNL     1      46.145 -19.059 -36.518  0.00  0.00    -0.006 C 
BRANCH   9  10
ATOM     10  C   UNL     1      45.607 -17.636 -36.343  0.00  0.00    +0.002 C 
BRANCH  10  11
ATOM     11  N   UNL     1      45.152 -17.359 -34.971  0.00  0.00    -0.302 N 
ATOM     12  C   UNL     1      44.796 -18.621 -34.296  0.00  0.00    -0.001 C 
ATOM     13  C   UNL     1      44.394 -18.387 -32.840  0.00  0.00    -0.040 C 
ATOM     14  C   UNL     1      43.249 -17.390 -32.737  0.00  0.00    -0.051 C 
ATOM     15  C   UNL     1      43.589 -16.115 -33.496  0.00  0.00    -0.040 C 
ATOM     16  C   UNL     1      44.022 -16.417 -34.934  0.00  0.00    -0.001 C 
ATOM     17  H   UNL     1      45.924 -16.914 -34.475  0.00  0.00    +0.000 HD
ENDBRANCH  10  11
ENDBRANCH   9  10
ENDBRANCH   8   9
ENDBRANCH   7   8
ENDBRANCH   5   7
ENDBRANCH   4   5
ENDBRANCH   3   4
ENDBRANCH   1   3
BRANCH   1  18
ATOM     18  C   UNL     1      42.325 -20.090 -37.254  0.00  0.00    -0.046 C 
BRANCH  18  19
ATOM     19  C   UNL     1      40.832 -20.281 -36.813  0.00  0.00    -0.012 C 
ATOM     20  C   UNL     1      40.256 -21.652 -37.201  0.00  0.00    -0.045 C 
ATOM     21  C   UNL     1      39.475 -22.345 -36.355  0.00  0.00    -0.082 C 
ATOM     22  C   UNL     1      39.053 -21.893 -35.002  0.00  0.00    -0.031 C 
ATOM     23  C   UNL     1      39.230 -20.381 -34.733  0.00  0.00    -0.027 C 
ATOM     24  C   UNL     1      38.937 -20.015 -33.213  0.00  0.00    -0.031 C 
ATOM     25  C   UNL     1      38.148 -18.685 -33.128  0.00  0.00    -0.060 C 
ATOM     26  C   UNL     1      38.026 -21.054 -32.504  0.00  0.00    -0.060 C 
ATOM     27  C   UNL     1      40.243 -19.887 -32.384  0.00  0.00    -0.048 C 
ATOM     28  C   UNL     1      41.373 -20.767 -32.899  0.00  0.00    -0.052 C 
ATOM     29  C   UNL     1      41.747 -20.530 -34.368  0.00  0.00    -0.047 C 
ATOM     30  C   UNL     1      40.633 -19.903 -35.258  0.00  0.00    -0.022 C 
ATOM     31  C   UNL     1      40.734 -18.353 -35.182  0.00  0.00    -0.059 C 
BRANCH  20  32
ATOM     32  C   UNL     1      40.524 -22.157 -38.604  0.00  0.00    +0.066 C 
BRANCH  32  33
ATOM     33  O   UNL     1      41.426 -23.256 -38.634  0.00  0.00    -0.391 OA
ATOM     34  H   UNL     1      41.900 -23.307 -37.789  0.00  0.00    +0.000 HD
ENDBRANCH  32  33
ENDBRANCH  20  32
ENDBRANCH  18  19
ENDBRANCH   1  18
TORSDOF 12
ENDMDL
