@<TRIPOS>MOLECULE
*****
 33 37 0 0 0
SMALL
GASTEIGER

@<TRIPOS>ATOM
      1 C           1.7321   -0.0000    0.0000 C.3     1  UNL1        0.0941
      2 C           0.8660   -0.5000    0.0000 C.2     1  UNL1        0.1961
      3 N           0.8660   -1.5000    0.0000 N.2     1  UNL1       -0.2432
      4 C          -0.0000   -2.0000    0.0000 C.3     1  UNL1        0.1140
      5 C          -0.0000   -3.0000    0.0000 C.3     1  UNL1        0.0499
      6 C          -0.8660   -3.5000    0.0000 C.2     1  UNL1       -0.0326
      7 C          -1.7321   -3.0000    0.0000 C.2     1  UNL1       -0.0481
      8 C          -2.5139   -3.6235    0.0000 C.3     1  UNL1        0.0290
      9 C          -3.4888   -3.4010    0.0000 C.3     1  UNL1        0.0616
     10 C          -4.0521   -4.2272    0.0000 C.2     1  UNL1        0.1506
     11 O          -3.6182   -5.1282    0.0000 O.2     1  UNL1       -0.2961
     12 C          -5.0493   -4.1525    0.0000 C.3     1  UNL1        0.0646
     13 C          -5.4832   -3.2515    0.0000 C.3     1  UNL1        0.0106
     14 C          -5.6618   -4.2354    0.0000 C.3     1  UNL1        0.0006
     15 C          -6.4431   -2.9711    0.0000 C.3     1  UNL1        0.0455
     16 C          -7.2342   -3.5828    0.0000 C.3     1  UNL1        0.0600
     17 C          -8.1595   -3.2036    0.0000 C.3     1  UNL1        0.0174
     18 N          -7.0999   -4.5738    0.0000 N.3     1  UNL1       -0.2715
     19 C          -7.8910   -5.1855    0.0000 C.3     1  UNL1        0.0896
     20 C          -6.1746   -4.9530    0.0000 C.3     1  UNL1        0.0896
     21 C          -6.4730   -1.9715    0.0000 C.3     1  UNL1        0.1532
     22 O          -7.2992   -1.4082    0.0000 O.3     1  UNL1       -0.2231
     23 C          -5.5316   -1.6342    0.0000 C.3     1  UNL1        0.0330
     24 C          -4.9199   -2.4253    0.0000 C.3     1  UNL1        0.0034
     25 C          -4.0692   -1.8996    0.0000 C.3     1  UNL1        0.0001
     26 C          -3.9227   -2.5000    0.0000 C.3     1  UNL1        0.0073
     27 C          -3.4888   -1.5990    0.0000 C.3     1  UNL1        0.0008
     28 C          -2.5139   -1.3765    0.0000 C.3     1  UNL1        0.0042
     29 C          -1.7321   -2.0000    0.0000 C.3     1  UNL1        0.0233
     30 C          -0.8660   -1.5000    0.0000 C.3     1  UNL1        0.0649
     31 C          -1.7321   -1.0000    0.0000 C.3     1  UNL1        0.0060
     32 C          -0.8660   -0.5000    0.0000 C.3     1  UNL1        0.2087
     33 O          -0.0000   -0.0000    0.0000 O.2     1  UNL1       -0.4635
@<TRIPOS>BOND
     1     1     2    1
     2     2     3    2
     3     3     4    1
     4     4     5    1
     5     5     6    1
     6     6     7    2
     7     7     8    1
     8     8     9    1
     9     9    10    1
    10    10    11    2
    11    10    12    1
    12    12    13    1
    13    13    14    1
    14    13    15    1
    15    15    16    1
    16    16    17    1
    17    16    18    1
    18    18    19    1
    19    18    20    1
    20    15    21    1
    21    21    22    1
    22    21    23    1
    23    23    24    1
    24    13    24    1
    25    24    25    1
    26    24    26    1
    27     9    26    1
    28    26    27    1
    29    27    28    1
    30    28    29    1
    31     7    29    1
    32    29    30    1
    33     4    30    1
    34    30    31    1
    35    30    32    1
    36    32    33    1
    37     2    33    1
