MODEL 1
REMARK VINA RESULT:    -8.234      0.000      0.000
REMARK INTER + INTRA:         -10.032
REMARK INTER:                  -9.437
REMARK INTRA:                  -0.595
REMARK UNBOUND:                -0.595
REMARK  Name = cpd244.pdb
REMARK  10 active torsions:
REMARK  status: ('A' for Active; 'I' for Inactive)
REMARK    1  A    between atoms: C_1  and  C_2
REMARK    2  A    between atoms: C_13  and  C_14
REMARK    3  A    between atoms: C_15  and  C_16
REMARK    4  A    between atoms: C_16  and  C_17
REMARK    5  A    between atoms: C_16  and  N_18
REMARK    6  A    between atoms: N_18  and  C_19
REMARK    7  A    between atoms: N_18  and  C_20
REMARK    8  A    between atoms: C_21  and  O_22
REMARK    9  A    between atoms: C_24  and  C_25
REMARK   10  A    between atoms: C_30  and  C_31
REMARK                            x       y       z     vdW  Elec       q    Type
REMARK                         _______ _______ _______ _____ _____    ______ ____
ROOT
ATOM      1  C   UNL     1      48.031 -24.318 -42.694  0.00  0.00    +0.011 C 
ATOM      2  C   UNL     1      47.377 -23.032 -42.301  0.00  0.00    +0.182 C 
ATOM      3  N   UNL     1      46.162 -22.991 -41.892  0.00  0.00    -0.251 NA
ATOM      4  C   UNL     1      45.592 -21.685 -41.547  0.00  0.00    +0.067 C 
ATOM      5  C   UNL     1      44.921 -21.115 -42.805  0.00  0.00    -0.011 C 
ATOM      6  C   UNL     1      44.514 -19.688 -42.643  0.00  0.00    -0.082 C 
ATOM      7  C   UNL     1      44.944 -18.866 -41.665  0.00  0.00    -0.069 C 
ATOM      8  C   UNL     1      44.202 -17.542 -41.517  0.00  0.00    -0.022 C 
ATOM      9  C   UNL     1      44.947 -16.289 -41.007  0.00  0.00    +0.025 C 
ATOM     10  C   UNL     1      44.042 -15.056 -41.183  0.00  0.00    +0.138 C 
ATOM     11  O   UNL     1      43.043 -15.080 -41.905  0.00  0.00    -0.297 OA
ATOM     12  C   UNL     1      44.425 -13.739 -40.520  0.00  0.00    +0.012 C 
ATOM     13  C   UNL     1      45.501 -13.873 -39.438  0.00  0.00    -0.013 C 
ATOM     14  C   UNL     1      46.883 -13.830 -40.131  0.00  0.00    -0.058 C 
ATOM     15  C   UNL     1      45.428 -12.808 -38.275  0.00  0.00    +0.007 C 
ATOM     16  C   UNL     1      46.096 -13.559 -37.070  0.00  0.00    +0.061 C 
ATOM     17  C   UNL     1      46.178 -15.052 -37.442  0.00  0.00    -0.020 C 
ATOM     18  C   UNL     1      45.237 -15.216 -38.647  0.00  0.00    -0.020 C 
ATOM     19  C   UNL     1      43.784 -15.327 -38.053  0.00  0.00    -0.059 C 
ATOM     20  C   UNL     1      45.417 -16.494 -39.539  0.00  0.00    -0.025 C 
ATOM     21  C   UNL     1      46.814 -17.133 -39.471  0.00  0.00    -0.048 C 
ATOM     22  C   UNL     1      47.110 -18.238 -40.488  0.00  0.00    -0.046 C 
ATOM     23  C   UNL     1      46.003 -19.308 -40.653  0.00  0.00    -0.009 C 
ATOM     24  C   UNL     1      46.643 -20.731 -40.953  0.00  0.00    +0.031 C 
ATOM     25  C   UNL     1      47.168 -21.314 -39.612  0.00  0.00    -0.054 C 
ATOM     26  C   UNL     1      47.790 -20.683 -41.977  0.00  0.00    +0.099 C 
ATOM     27  O   UNL     1      48.231 -21.989 -42.389  0.00  0.00    -0.479 OA
ENDROOT
BRANCH  15  28
ATOM     28  C   UNL     1      45.860 -11.302 -38.361  0.00  0.00    +0.013 C 
ATOM     29  C   UNL     1      45.069 -10.376 -39.295  0.00  0.00    -0.049 C 
BRANCH  28  30
ATOM     30  N   UNL     1      46.118 -10.576 -37.094  0.00  0.00    -0.305 N 
ATOM     31  C   UNL     1      47.137  -9.542 -37.102  0.00  0.00    -0.013 C 
ATOM     32  C   UNL     1      44.904 -10.108 -36.428  0.00  0.00    -0.013 C 
ATOM     33  H   UNL     1      46.534 -11.322 -36.538  0.00  0.00    +0.000 HD
ENDBRANCH  28  30
ENDBRANCH  15  28
BRANCH  16  34
ATOM     34  O   UNL     1      47.398 -13.088 -36.766  0.00  0.00    -0.391 OA
ATOM     35  H   UNL     1      48.001 -13.315 -37.492  0.00  0.00    +0.000 HD
ENDBRANCH  16  34
TORSDOF 3
ENDMDL
MODEL 2
REMARK VINA RESULT:    -8.088      6.109      7.754
REMARK INTER + INTRA:          -9.864
REMARK INTER:                  -9.870
REMARK INTRA:                   0.006
REMARK UNBOUND:                -0.595
REMARK  Name = cpd244.pdb
REMARK  10 active torsions:
REMARK  status: ('A' for Active; 'I' for Inactive)
REMARK    1  A    between atoms: C_1  and  C_2
REMARK    2  A    between atoms: C_13  and  C_14
REMARK    3  A    between atoms: C_15  and  C_16
REMARK    4  A    between atoms: C_16  and  C_17
REMARK    5  A    between atoms: C_16  and  N_18
REMARK    6  A    between atoms: N_18  and  C_19
REMARK    7  A    between atoms: N_18  and  C_20
REMARK    8  A    between atoms: C_21  and  O_22
REMARK    9  A    between atoms: C_24  and  C_25
REMARK   10  A    between atoms: C_30  and  C_31
REMARK                            x       y       z     vdW  Elec       q    Type
REMARK                         _______ _______ _______ _____ _____    ______ ____
ROOT
ATOM      1  C   UNL     1      48.907 -19.890 -42.670  0.00  0.00    +0.011 C 
ATOM      2  C   UNL     1      47.662 -20.196 -41.901  0.00  0.00    +0.182 C 
ATOM      3  N   UNL     1      47.142 -21.369 -41.897  0.00  0.00    -0.251 NA
ATOM      4  C   UNL     1      45.908 -21.577 -41.134  0.00  0.00    +0.067 C 
ATOM      5  C   UNL     1      44.722 -21.332 -42.078  0.00  0.00    -0.011 C 
ATOM      6  C   UNL     1      43.416 -21.279 -41.357  0.00  0.00    -0.082 C 
ATOM      7  C   UNL     1      43.271 -21.135 -40.026  0.00  0.00    -0.069 C 
ATOM      8  C   UNL     1      41.875 -21.382 -39.464  0.00  0.00    -0.022 C 
ATOM      9  C   UNL     1      41.396 -20.617 -38.211  0.00  0.00    +0.025 C 
ATOM     10  C   UNL     1      39.891 -20.870 -38.008  0.00  0.00    +0.138 C 
ATOM     11  O   UNL     1      39.184 -21.341 -38.901  0.00  0.00    -0.297 OA
ATOM     12  C   UNL     1      39.226 -20.452 -36.702  0.00  0.00    +0.012 C 
ATOM     13  C   UNL     1      40.210 -20.142 -35.570  0.00  0.00    -0.013 C 
ATOM     14  C   UNL     1      40.658 -18.668 -35.716  0.00  0.00    -0.058 C 
ATOM     15  C   UNL     1      39.673 -20.418 -34.112  0.00  0.00    +0.007 C 
ATOM     16  C   UNL     1      40.987 -20.700 -33.302  0.00  0.00    +0.061 C 
ATOM     17  C   UNL     1      42.118 -20.936 -34.321  0.00  0.00    -0.020 C 
ATOM     18  C   UNL     1      41.405 -21.173 -35.663  0.00  0.00    -0.020 C 
ATOM     19  C   UNL     1      40.945 -22.678 -35.651  0.00  0.00    -0.059 C 
ATOM     20  C   UNL     1      42.251 -21.009 -36.973  0.00  0.00    -0.025 C 
ATOM     21  C   UNL     1      43.491 -20.112 -36.829  0.00  0.00    -0.048 C 
ATOM     22  C   UNL     1      44.219 -19.737 -38.122  0.00  0.00    -0.046 C 
ATOM     23  C   UNL     1      44.473 -20.905 -39.107  0.00  0.00    -0.009 C 
ATOM     24  C   UNL     1      45.851 -20.700 -39.872  0.00  0.00    +0.031 C 
ATOM     25  C   UNL     1      46.999 -21.108 -38.908  0.00  0.00    -0.054 C 
ATOM     26  C   UNL     1      46.075 -19.257 -40.354  0.00  0.00    +0.099 C 
ATOM     27  O   UNL     1      47.223 -19.122 -41.210  0.00  0.00    -0.479 OA
ENDROOT
BRANCH  15  28
ATOM     28  C   UNL     1      38.649 -19.538 -33.313  0.00  0.00    +0.013 C 
ATOM     29  C   UNL     1      38.256 -18.174 -33.899  0.00  0.00    -0.049 C 
BRANCH  28  30
ATOM     30  N   UNL     1      37.424 -20.190 -32.792  0.00  0.00    -0.305 N 
ATOM     31  C   UNL     1      36.200 -19.409 -32.764  0.00  0.00    -0.013 C 
ATOM     32  C   UNL     1      37.184 -21.519 -33.349  0.00  0.00    -0.013 C 
ATOM     33  H   UNL     1      37.672 -20.284 -31.807  0.00  0.00    +0.000 HD
ENDBRANCH  28  30
ENDBRANCH  15  28
BRANCH  16  34
ATOM     34  O   UNL     1      41.357 -19.634 -32.443  0.00  0.00    -0.391 OA
ATOM     35  H   UNL     1      41.174 -19.881 -31.523  0.00  0.00    +0.000 HD
ENDBRANCH  16  34
TORSDOF 3
ENDMDL
MODEL 3
REMARK VINA RESULT:    -6.841     22.575     24.995
REMARK INTER + INTRA:          -8.436
REMARK INTER:                  -7.862
REMARK INTRA:                  -0.573
REMARK UNBOUND:                -0.595
REMARK  Name = cpd244.pdb
REMARK  10 active torsions:
REMARK  status: ('A' for Active; 'I' for Inactive)
REMARK    1  A    between atoms: C_1  and  C_2
REMARK    2  A    between atoms: C_13  and  C_14
REMARK    3  A    between atoms: C_15  and  C_16
REMARK    4  A    between atoms: C_16  and  C_17
REMARK    5  A    between atoms: C_16  and  N_18
REMARK    6  A    between atoms: N_18  and  C_19
REMARK    7  A    between atoms: N_18  and  C_20
REMARK    8  A    between atoms: C_21  and  O_22
REMARK    9  A    between atoms: C_24  and  C_25
REMARK   10  A    between atoms: C_30  and  C_31
REMARK                            x       y       z     vdW  Elec       q    Type
REMARK                         _______ _______ _______ _____ _____    ______ ____
ROOT
ATOM      1  C   UNL     1      37.101 -41.534 -28.354  0.00  0.00    +0.011 C 
ATOM      2  C   UNL     1      36.423 -40.324 -28.912  0.00  0.00    +0.182 C 
ATOM      3  N   UNL     1      36.300 -40.141 -30.177  0.00  0.00    -0.251 NA
ATOM      4  C   UNL     1      35.640 -38.916 -30.639  0.00  0.00    +0.067 C 
ATOM      5  C   UNL     1      36.723 -37.847 -30.846  0.00  0.00    -0.011 C 
ATOM      6  C   UNL     1      36.150 -36.489 -31.085  0.00  0.00    -0.082 C 
ATOM      7  C   UNL     1      34.874 -36.132 -30.840  0.00  0.00    -0.069 C 
ATOM      8  C   UNL     1      34.423 -34.791 -31.408  0.00  0.00    -0.022 C 
ATOM      9  C   UNL     1      33.348 -33.960 -30.674  0.00  0.00    +0.025 C 
ATOM     10  C   UNL     1      33.260 -32.564 -31.318  0.00  0.00    +0.138 C 
ATOM     11  O   UNL     1      34.141 -32.137 -32.068  0.00  0.00    -0.297 OA
ATOM     12  C   UNL     1      32.101 -31.642 -30.962  0.00  0.00    +0.012 C 
ATOM     13  C   UNL     1      30.934 -32.344 -30.262  0.00  0.00    -0.013 C 
ATOM     14  C   UNL     1      31.248 -32.397 -28.748  0.00  0.00    -0.058 C 
ATOM     15  C   UNL     1      29.511 -31.709 -30.514  0.00  0.00    +0.007 C 
ATOM     16  C   UNL     1      28.543 -32.928 -30.319  0.00  0.00    +0.061 C 
ATOM     17  C   UNL     1      29.400 -34.208 -30.338  0.00  0.00    -0.020 C 
ATOM     18  C   UNL     1      30.758 -33.773 -30.916  0.00  0.00    -0.020 C 
ATOM     19  C   UNL     1      30.573 -33.736 -32.478  0.00  0.00    -0.059 C 
ATOM     20  C   UNL     1      31.988 -34.713 -30.667  0.00  0.00    -0.025 C 
ATOM     21  C   UNL     1      31.854 -35.637 -29.445  0.00  0.00    -0.048 C 
ATOM     22  C   UNL     1      33.110 -36.405 -29.027  0.00  0.00    -0.046 C 
ATOM     23  C   UNL     1      33.884 -37.094 -30.177  0.00  0.00    -0.009 C 
ATOM     24  C   UNL     1      34.531 -38.457 -29.677  0.00  0.00    +0.031 C 
ATOM     25  C   UNL     1      33.410 -39.531 -29.634  0.00  0.00    -0.054 C 
ATOM     26  C   UNL     1      35.193 -38.349 -28.294  0.00  0.00    +0.099 C 
ATOM     27  O   UNL     1      35.942 -39.524 -27.936  0.00  0.00    -0.479 OA
ENDROOT
BRANCH  15  28
ATOM     28  C   UNL     1      28.954 -30.389 -29.876  0.00  0.00    +0.013 C 
ATOM     29  C   UNL     1      29.590 -29.057 -30.298  0.00  0.00    -0.049 C 
BRANCH  28  30
ATOM     30  N   UNL     1      27.483 -30.205 -29.823  0.00  0.00    -0.305 N 
ATOM     31  C   UNL     1      26.931 -29.493 -28.685  0.00  0.00    -0.013 C 
ATOM     32  C   UNL     1      26.907 -29.719 -31.074  0.00  0.00    -0.013 C 
ATOM     33  H   UNL     1      27.185 -31.168 -29.673  0.00  0.00    +0.000 HD
ENDBRANCH  28  30
ENDBRANCH  15  28
BRANCH  16  34
ATOM     34  O   UNL     1      27.816 -32.880 -29.103  0.00  0.00    -0.391 OA
ATOM     35  H   UNL     1      26.870 -32.789 -29.296  0.00  0.00    +0.000 HD
ENDBRANCH  16  34
TORSDOF 3
ENDMDL
MODEL 4
REMARK VINA RESULT:    -6.828     22.390     23.731
REMARK INTER + INTRA:          -8.421
REMARK INTER:                  -7.819
REMARK INTRA:                  -0.603
REMARK UNBOUND:                -0.595
REMARK  Name = cpd244.pdb
REMARK  10 active torsions:
REMARK  status: ('A' for Active; 'I' for Inactive)
REMARK    1  A    between atoms: C_1  and  C_2
REMARK    2  A    between atoms: C_13  and  C_14
REMARK    3  A    between atoms: C_15  and  C_16
REMARK    4  A    between atoms: C_16  and  C_17
REMARK    5  A    between atoms: C_16  and  N_18
REMARK    6  A    between atoms: N_18  and  C_19
REMARK    7  A    between atoms: N_18  and  C_20
REMARK    8  A    between atoms: C_21  and  O_22
REMARK    9  A    between atoms: C_24  and  C_25
REMARK   10  A    between atoms: C_30  and  C_31
REMARK                            x       y       z     vdW  Elec       q    Type
REMARK                         _______ _______ _______ _____ _____    ______ ____
ROOT
ATOM      1  C   UNL     1      37.691 -36.710 -30.749  0.00  0.00    +0.011 C 
ATOM      2  C   UNL     1      36.333 -36.090 -30.840  0.00  0.00    +0.182 C 
ATOM      3  N   UNL     1      35.263 -36.797 -30.787  0.00  0.00    -0.251 NA
ATOM      4  C   UNL     1      33.973 -36.111 -30.905  0.00  0.00    +0.067 C 
ATOM      5  C   UNL     1      33.583 -36.092 -32.390  0.00  0.00    -0.011 C 
ATOM      6  C   UNL     1      32.409 -35.212 -32.664  0.00  0.00    -0.082 C 
ATOM      7  C   UNL     1      31.921 -34.285 -31.817  0.00  0.00    -0.069 C 
ATOM      8  C   UNL     1      30.560 -33.693 -32.169  0.00  0.00    -0.022 C 
ATOM      9  C   UNL     1      30.222 -32.239 -31.774  0.00  0.00    +0.025 C 
ATOM     10  C   UNL     1      28.904 -31.824 -32.454  0.00  0.00    +0.138 C 
ATOM     11  O   UNL     1      28.424 -32.467 -33.390  0.00  0.00    -0.297 OA
ATOM     12  C   UNL     1      28.207 -30.539 -32.024  0.00  0.00    +0.012 C 
ATOM     13  C   UNL     1      28.709 -29.968 -30.695  0.00  0.00    -0.013 C 
ATOM     14  C   UNL     1      29.953 -29.096 -30.989  0.00  0.00    -0.058 C 
ATOM     15  C   UNL     1      27.644 -29.156 -29.860  0.00  0.00    +0.007 C 
ATOM     16  C   UNL     1      28.154 -29.321 -28.386  0.00  0.00    +0.061 C 
ATOM     17  C   UNL     1      29.197 -30.454 -28.380  0.00  0.00    -0.020 C 
ATOM     18  C   UNL     1      29.008 -31.179 -29.723  0.00  0.00    -0.020 C 
ATOM     19  C   UNL     1      27.785 -32.149 -29.525  0.00  0.00    -0.059 C 
ATOM     20  C   UNL     1      30.181 -32.090 -30.227  0.00  0.00    -0.025 C 
ATOM     21  C   UNL     1      31.562 -31.737 -29.651  0.00  0.00    -0.048 C 
ATOM     22  C   UNL     1      32.766 -32.442 -30.280  0.00  0.00    -0.046 C 
ATOM     23  C   UNL     1      32.612 -33.969 -30.488  0.00  0.00    -0.009 C 
ATOM     24  C   UNL     1      34.005 -34.704 -30.283  0.00  0.00    +0.031 C 
ATOM     25  C   UNL     1      34.265 -34.822 -28.757  0.00  0.00    -0.054 C 
ATOM     26  C   UNL     1      35.185 -33.978 -30.951  0.00  0.00    +0.099 C 
ATOM     27  O   UNL     1      36.402 -34.744 -30.929  0.00  0.00    -0.479 OA
ENDROOT
BRANCH  15  28
ATOM     28  C   UNL     1      27.134 -27.703 -30.163  0.00  0.00    +0.013 C 
ATOM     29  C   UNL     1      26.389 -27.459 -31.483  0.00  0.00    -0.049 C 
BRANCH  28  30
ATOM     30  N   UNL     1      26.423 -26.973 -29.086  0.00  0.00    -0.305 N 
ATOM     31  C   UNL     1      26.610 -25.536 -29.004  0.00  0.00    -0.013 C 
ATOM     32  C   UNL     1      25.009 -27.325 -28.973  0.00  0.00    -0.013 C 
ATOM     33  H   UNL     1      26.918 -27.328 -28.268  0.00  0.00    +0.000 HD
ENDBRANCH  28  30
ENDBRANCH  15  28
BRANCH  16  34
ATOM     34  O   UNL     1      28.749 -28.145 -27.862  0.00  0.00    -0.391 OA
ATOM     35  H   UNL     1      29.399 -27.802 -28.495  0.00  0.00    +0.000 HD
ENDBRANCH  16  34
TORSDOF 3
ENDMDL
MODEL 5
REMARK VINA RESULT:    -6.736      6.163      7.757
REMARK INTER + INTRA:          -8.315
REMARK INTER:                  -7.720
REMARK INTRA:                  -0.595
REMARK UNBOUND:                -0.595
REMARK  Name = cpd244.pdb
REMARK  10 active torsions:
REMARK  status: ('A' for Active; 'I' for Inactive)
REMARK    1  A    between atoms: C_1  and  C_2
REMARK    2  A    between atoms: C_13  and  C_14
REMARK    3  A    between atoms: C_15  and  C_16
REMARK    4  A    between atoms: C_16  and  C_17
REMARK    5  A    between atoms: C_16  and  N_18
REMARK    6  A    between atoms: N_18  and  C_19
REMARK    7  A    between atoms: N_18  and  C_20
REMARK    8  A    between atoms: C_21  and  O_22
REMARK    9  A    between atoms: C_24  and  C_25
REMARK   10  A    between atoms: C_30  and  C_31
REMARK                            x       y       z     vdW  Elec       q    Type
REMARK                         _______ _______ _______ _____ _____    ______ ____
ROOT
ATOM      1  C   UNL     1      37.251 -24.216 -33.745  0.00  0.00    +0.011 C 
ATOM      2  C   UNL     1      38.457 -23.344 -33.883  0.00  0.00    +0.182 C 
ATOM      3  N   UNL     1      39.605 -23.705 -33.437  0.00  0.00    -0.251 NA
ATOM      4  C   UNL     1      40.732 -22.780 -33.595  0.00  0.00    +0.067 C 
ATOM      5  C   UNL     1      40.802 -21.902 -32.338  0.00  0.00    -0.011 C 
ATOM      6  C   UNL     1      41.756 -20.764 -32.484  0.00  0.00    -0.082 C 
ATOM      7  C   UNL     1      42.270 -20.329 -33.652  0.00  0.00    -0.069 C 
ATOM      8  C   UNL     1      43.430 -19.343 -33.558  0.00  0.00    -0.022 C 
ATOM      9  C   UNL     1      43.631 -18.275 -34.655  0.00  0.00    +0.025 C 
ATOM     10  C   UNL     1      44.707 -17.275 -34.195  0.00  0.00    +0.138 C 
ATOM     11  O   UNL     1      45.072 -17.205 -33.019  0.00  0.00    -0.297 OA
ATOM     12  C   UNL     1      45.286 -16.280 -35.194  0.00  0.00    +0.012 C 
ATOM     13  C   UNL     1      44.991 -16.618 -36.658  0.00  0.00    -0.013 C 
ATOM     14  C   UNL     1      43.601 -16.037 -37.011  0.00  0.00    -0.058 C 
ATOM     15  C   UNL     1      46.077 -16.137 -37.697  0.00  0.00    +0.007 C 
ATOM     16  C   UNL     1      45.910 -17.157 -38.877  0.00  0.00    +0.061 C 
ATOM     17  C   UNL     1      45.064 -18.334 -38.356  0.00  0.00    -0.020 C 
ATOM     18  C   UNL     1      45.075 -18.188 -36.825  0.00  0.00    -0.020 C 
ATOM     19  C   UNL     1      46.439 -18.805 -36.339  0.00  0.00    -0.059 C 
ATOM     20  C   UNL     1      43.966 -18.947 -36.015  0.00  0.00    -0.025 C 
ATOM     21  C   UNL     1      42.696 -19.277 -36.818  0.00  0.00    -0.048 C 
ATOM     22  C   UNL     1      41.503 -19.809 -36.021  0.00  0.00    -0.046 C 
ATOM     23  C   UNL     1      41.829 -20.920 -34.993  0.00  0.00    -0.009 C 
ATOM     24  C   UNL     1      40.627 -21.954 -34.889  0.00  0.00    +0.031 C 
ATOM     25  C   UNL     1      40.705 -22.905 -36.115  0.00  0.00    -0.054 C 
ATOM     26  C   UNL     1      39.244 -21.283 -34.847  0.00  0.00    +0.099 C 
ATOM     27  O   UNL     1      38.180 -22.207 -34.557  0.00  0.00    -0.479 OA
ENDROOT
BRANCH  15  28
ATOM     28  C   UNL     1      46.300 -14.667 -38.198  0.00  0.00    +0.013 C 
ATOM     29  C   UNL     1      46.766 -13.618 -37.178  0.00  0.00    -0.049 C 
BRANCH  28  30
ATOM     30  N   UNL     1      47.063 -14.465 -39.454  0.00  0.00    -0.305 N 
ATOM     31  C   UNL     1      46.703 -13.334 -40.290  0.00  0.00    -0.013 C 
ATOM     32  C   UNL     1      48.511 -14.547 -39.280  0.00  0.00    -0.013 C 
ATOM     33  H   UNL     1      46.748 -15.273 -39.990  0.00  0.00    +0.000 HD
ENDBRANCH  28  30
ENDBRANCH  15  28
BRANCH  16  34
ATOM     34  O   UNL     1      45.273 -16.601 -40.015  0.00  0.00    -0.391 OA
ATOM     35  H   UNL     1      45.119 -15.654 -39.869  0.00  0.00    +0.000 HD
ENDBRANCH  16  34
TORSDOF 3
ENDMDL
MODEL 6
REMARK VINA RESULT:    -6.722     23.322     27.099
REMARK INTER + INTRA:          -8.299
REMARK INTER:                  -7.784
REMARK INTRA:                  -0.515
REMARK UNBOUND:                -0.595
REMARK  Name = cpd244.pdb
REMARK  10 active torsions:
REMARK  status: ('A' for Active; 'I' for Inactive)
REMARK    1  A    between atoms: C_1  and  C_2
REMARK    2  A    between atoms: C_13  and  C_14
REMARK    3  A    between atoms: C_15  and  C_16
REMARK    4  A    between atoms: C_16  and  C_17
REMARK    5  A    between atoms: C_16  and  N_18
REMARK    6  A    between atoms: N_18  and  C_19
REMARK    7  A    between atoms: N_18  and  C_20
REMARK    8  A    between atoms: C_21  and  O_22
REMARK    9  A    between atoms: C_24  and  C_25
REMARK   10  A    between atoms: C_30  and  C_31
REMARK                            x       y       z     vdW  Elec       q    Type
REMARK                         _______ _______ _______ _____ _____    ______ ____
ROOT
ATOM      1  C   UNL     1      28.572 -29.192 -31.732  0.00  0.00    +0.011 C 
ATOM      2  C   UNL     1      29.535 -30.215 -31.220  0.00  0.00    +0.182 C 
ATOM      3  N   UNL     1      30.306 -29.976 -30.223  0.00  0.00    -0.251 NA
ATOM      4  C   UNL     1      31.236 -31.028 -29.799  0.00  0.00    +0.067 C 
ATOM      5  C   UNL     1      32.560 -30.818 -30.548  0.00  0.00    -0.011 C 
ATOM      6  C   UNL     1      33.502 -31.964 -30.381  0.00  0.00    -0.082 C 
ATOM      7  C   UNL     1      33.165 -33.183 -29.917  0.00  0.00    -0.069 C 
ATOM      8  C   UNL     1      34.317 -34.117 -29.564  0.00  0.00    -0.022 C 
ATOM      9  C   UNL     1      34.150 -35.645 -29.715  0.00  0.00    +0.025 C 
ATOM     10  C   UNL     1      35.520 -36.324 -29.529  0.00  0.00    +0.138 C 
ATOM     11  O   UNL     1      36.574 -35.686 -29.577  0.00  0.00    -0.297 OA
ATOM     12  C   UNL     1      35.595 -37.836 -29.364  0.00  0.00    +0.012 C 
ATOM     13  C   UNL     1      34.253 -38.498 -29.039  0.00  0.00    -0.013 C 
ATOM     14  C   UNL     1      33.516 -38.764 -30.374  0.00  0.00    -0.058 C 
ATOM     15  C   UNL     1      34.338 -39.818 -28.179  0.00  0.00    +0.007 C 
ATOM     16  C   UNL     1      32.950 -39.851 -27.447  0.00  0.00    +0.061 C 
ATOM     17  C   UNL     1      32.312 -38.458 -27.602  0.00  0.00    -0.020 C 
ATOM     18  C   UNL     1      33.458 -37.541 -28.063  0.00  0.00    -0.020 C 
ATOM     19  C   UNL     1      34.256 -37.157 -26.763  0.00  0.00    -0.059 C 
ATOM     20  C   UNL     1      33.070 -36.175 -28.731  0.00  0.00    -0.025 C 
ATOM     21  C   UNL     1      31.665 -36.140 -29.353  0.00  0.00    -0.048 C 
ATOM     22  C   UNL     1      31.327 -34.917 -30.209  0.00  0.00    -0.046 C 
ATOM     23  C   UNL     1      31.712 -33.548 -29.599  0.00  0.00    -0.009 C 
ATOM     24  C   UNL     1      30.654 -32.436 -30.009  0.00  0.00    +0.031 C 
ATOM     25  C   UNL     1      29.399 -32.614 -29.110  0.00  0.00    -0.054 C 
ATOM     26  C   UNL     1      30.238 -32.501 -31.488  0.00  0.00    +0.099 C 
ATOM     27  O   UNL     1      29.435 -31.380 -31.897  0.00  0.00    -0.479 OA
ENDROOT
BRANCH  15  28
ATOM     28  C   UNL     1      34.787 -41.234 -28.685  0.00  0.00    +0.013 C 
ATOM     29  C   UNL     1      36.257 -41.428 -29.080  0.00  0.00    -0.049 C 
BRANCH  28  30
ATOM     30  N   UNL     1      34.352 -42.422 -27.912  0.00  0.00    -0.305 N 
ATOM     31  C   UNL     1      33.824 -43.555 -28.652  0.00  0.00    -0.013 C 
ATOM     32  C   UNL     1      35.323 -42.858 -26.911  0.00  0.00    -0.013 C 
ATOM     33  H   UNL     1      33.535 -42.042 -27.437  0.00  0.00    +0.000 HD
ENDBRANCH  28  30
ENDBRANCH  15  28
BRANCH  16  34
ATOM     34  O   UNL     1      32.063 -40.825 -27.971  0.00  0.00    -0.391 OA
ATOM     35  H   UNL     1      31.171 -40.673 -27.618  0.00  0.00    +0.000 HD
ENDBRANCH  16  34
TORSDOF 3
ENDMDL
MODEL 7
REMARK VINA RESULT:    -6.693     29.244     33.415
REMARK INTER + INTRA:          -8.266
REMARK INTER:                  -7.720
REMARK INTRA:                  -0.545
REMARK UNBOUND:                -0.595
REMARK  Name = cpd244.pdb
REMARK  10 active torsions:
REMARK  status: ('A' for Active; 'I' for Inactive)
REMARK    1  A    between atoms: C_1  and  C_2
REMARK    2  A    between atoms: C_13  and  C_14
REMARK    3  A    between atoms: C_15  and  C_16
REMARK    4  A    between atoms: C_16  and  C_17
REMARK    5  A    between atoms: C_16  and  N_18
REMARK    6  A    between atoms: N_18  and  C_19
REMARK    7  A    between atoms: N_18  and  C_20
REMARK    8  A    between atoms: C_21  and  O_22
REMARK    9  A    between atoms: C_24  and  C_25
REMARK   10  A    between atoms: C_30  and  C_31
REMARK                            x       y       z     vdW  Elec       q    Type
REMARK                         _______ _______ _______ _____ _____    ______ ____
ROOT
ATOM      1  C   UNL     1      46.187 -43.930 -49.059  0.00  0.00    +0.011 C 
ATOM      2  C   UNL     1      47.369 -44.808 -48.798  0.00  0.00    +0.182 C 
ATOM      3  N   UNL     1      47.594 -45.861 -49.495  0.00  0.00    -0.251 NA
ATOM      4  C   UNL     1      48.764 -46.678 -49.158  0.00  0.00    +0.067 C 
ATOM      5  C   UNL     1      48.319 -47.748 -48.151  0.00  0.00    -0.011 C 
ATOM      6  C   UNL     1      49.469 -48.487 -47.552  0.00  0.00    -0.082 C 
ATOM      7  C   UNL     1      50.756 -48.092 -47.606  0.00  0.00    -0.069 C 
ATOM      8  C   UNL     1      51.800 -49.118 -47.178  0.00  0.00    -0.022 C 
ATOM      9  C   UNL     1      53.121 -48.655 -46.527  0.00  0.00    +0.025 C 
ATOM     10  C   UNL     1      53.872 -49.883 -45.979  0.00  0.00    +0.138 C 
ATOM     11  O   UNL     1      53.315 -50.973 -45.827  0.00  0.00    -0.297 OA
ATOM     12  C   UNL     1      55.320 -49.740 -45.526  0.00  0.00    +0.012 C 
ATOM     13  C   UNL     1      56.000 -48.454 -46.002  0.00  0.00    -0.013 C 
ATOM     14  C   UNL     1      55.662 -47.332 -44.992  0.00  0.00    -0.058 C 
ATOM     15  C   UNL     1      57.560 -48.554 -46.221  0.00  0.00    +0.007 C 
ATOM     16  C   UNL     1      57.835 -47.449 -47.301  0.00  0.00    +0.061 C 
ATOM     17  C   UNL     1      56.476 -47.042 -47.903  0.00  0.00    -0.020 C 
ATOM     18  C   UNL     1      55.499 -48.148 -47.470  0.00  0.00    -0.020 C 
ATOM     19  C   UNL     1      55.718 -49.339 -48.475  0.00  0.00    -0.059 C 
ATOM     20  C   UNL     1      53.965 -47.827 -47.536  0.00  0.00    -0.025 C 
ATOM     21  C   UNL     1      53.618 -46.330 -47.476  0.00  0.00    -0.048 C 
ATOM     22  C   UNL     1      52.139 -45.977 -47.308  0.00  0.00    -0.046 C 
ATOM     23  C   UNL     1      51.159 -46.751 -48.224  0.00  0.00    -0.009 C 
ATOM     24  C   UNL     1      49.935 -45.827 -48.639  0.00  0.00    +0.031 C 
ATOM     25  C   UNL     1      50.416 -44.871 -49.765  0.00  0.00    -0.054 C 
ATOM     26  C   UNL     1      49.368 -45.001 -47.472  0.00  0.00    +0.099 C 
ATOM     27  O   UNL     1      48.146 -44.320 -47.807  0.00  0.00    -0.479 OA
ENDROOT
BRANCH  15  28
ATOM     28  C   UNL     1      58.659 -48.588 -45.101  0.00  0.00    +0.013 C 
ATOM     29  C   UNL     1      58.455 -49.546 -43.918  0.00  0.00    -0.049 C 
BRANCH  28  30
ATOM     30  N   UNL     1      60.080 -48.659 -45.518  0.00  0.00    -0.305 N 
ATOM     31  C   UNL     1      61.031 -47.805 -44.830  0.00  0.00    -0.013 C 
ATOM     32  C   UNL     1      60.590 -50.024 -45.633  0.00  0.00    -0.013 C 
ATOM     33  H   UNL     1      60.017 -48.250 -46.450  0.00  0.00    +0.000 HD
ENDBRANCH  28  30
ENDBRANCH  15  28
BRANCH  16  34
ATOM     34  O   UNL     1      58.469 -46.295 -46.775  0.00  0.00    -0.391 OA
ATOM     35  H   UNL     1      58.603 -45.648 -47.486  0.00  0.00    +0.000 HD
ENDBRANCH  16  34
TORSDOF 3
ENDMDL
MODEL 8
REMARK VINA RESULT:    -6.686      5.551      8.779
REMARK INTER + INTRA:          -8.257
REMARK INTER:                  -7.702
REMARK INTRA:                  -0.555
REMARK UNBOUND:                -0.595
REMARK  Name = cpd244.pdb
REMARK  10 active torsions:
REMARK  status: ('A' for Active; 'I' for Inactive)
REMARK    1  A    between atoms: C_1  and  C_2
REMARK    2  A    between atoms: C_13  and  C_14
REMARK    3  A    between atoms: C_15  and  C_16
REMARK    4  A    between atoms: C_16  and  C_17
REMARK    5  A    between atoms: C_16  and  N_18
REMARK    6  A    between atoms: N_18  and  C_19
REMARK    7  A    between atoms: N_18  and  C_20
REMARK    8  A    between atoms: C_21  and  O_22
REMARK    9  A    between atoms: C_24  and  C_25
REMARK   10  A    between atoms: C_30  and  C_31
REMARK                            x       y       z     vdW  Elec       q    Type
REMARK                         _______ _______ _______ _____ _____    ______ ____
ROOT
ATOM      1  C   UNL     1      48.653 -14.346 -42.174  0.00  0.00    +0.011 C 
ATOM      2  C   UNL     1      47.909 -14.843 -40.977  0.00  0.00    +0.182 C 
ATOM      3  N   UNL     1      47.614 -14.070 -39.996  0.00  0.00    -0.251 NA
ATOM      4  C   UNL     1      46.901 -14.645 -38.851  0.00  0.00    +0.067 C 
ATOM      5  C   UNL     1      47.947 -15.118 -37.832  0.00  0.00    -0.011 C 
ATOM      6  C   UNL     1      47.351 -15.936 -36.734  0.00  0.00    -0.082 C 
ATOM      7  C   UNL     1      46.122 -16.487 -36.759  0.00  0.00    -0.069 C 
ATOM      8  C   UNL     1      45.602 -17.045 -35.438  0.00  0.00    -0.022 C 
ATOM      9  C   UNL     1      44.640 -18.253 -35.432  0.00  0.00    +0.025 C 
ATOM     10  C   UNL     1      44.469 -18.755 -33.986  0.00  0.00    +0.138 C 
ATOM     11  O   UNL     1      45.240 -18.418 -33.084  0.00  0.00    -0.297 OA
ATOM     12  C   UNL     1      43.373 -19.763 -33.664  0.00  0.00    +0.012 C 
ATOM     13  C   UNL     1      42.311 -19.905 -34.758  0.00  0.00    -0.013 C 
ATOM     14  C   UNL     1      42.830 -20.928 -35.797  0.00  0.00    -0.058 C 
ATOM     15  C   UNL     1      40.869 -20.304 -34.256  0.00  0.00    +0.007 C 
ATOM     16  C   UNL     1      39.933 -19.707 -35.365  0.00  0.00    +0.061 C 
ATOM     17  C   UNL     1      40.776 -18.728 -36.204  0.00  0.00    -0.020 C 
ATOM     18  C   UNL     1      42.042 -18.472 -35.369  0.00  0.00    -0.020 C 
ATOM     19  C   UNL     1      41.644 -17.390 -34.297  0.00  0.00    -0.059 C 
ATOM     20  C   UNL     1      43.292 -17.881 -36.110  0.00  0.00    -0.025 C 
ATOM     21  C   UNL     1      43.324 -18.141 -37.625  0.00  0.00    -0.048 C 
ATOM     22  C   UNL     1      44.623 -17.786 -38.352  0.00  0.00    -0.046 C 
ATOM     23  C   UNL     1      45.230 -16.406 -38.000  0.00  0.00    -0.009 C 
ATOM     24  C   UNL     1      45.935 -15.766 -39.272  0.00  0.00    +0.031 C 
ATOM     25  C   UNL     1      44.828 -15.175 -40.187  0.00  0.00    -0.054 C 
ATOM     26  C   UNL     1      46.782 -16.769 -40.073  0.00  0.00    +0.099 C 
ATOM     27  O   UNL     1      47.569 -16.144 -41.103  0.00  0.00    -0.479 OA
ENDROOT
BRANCH  15  28
ATOM     28  C   UNL     1      40.409 -21.727 -33.780  0.00  0.00    +0.013 C 
ATOM     29  C   UNL     1      41.075 -22.322 -32.532  0.00  0.00    -0.049 C 
BRANCH  28  30
ATOM     30  N   UNL     1      38.953 -22.002 -33.706  0.00  0.00    -0.305 N 
ATOM     31  C   UNL     1      38.522 -23.386 -33.778  0.00  0.00    -0.013 C 
ATOM     32  C   UNL     1      38.278 -21.298 -32.618  0.00  0.00    -0.013 C 
ATOM     33  H   UNL     1      38.648 -21.607 -34.595  0.00  0.00    +0.000 HD
ENDBRANCH  28  30
ENDBRANCH  15  28
BRANCH  16  34
ATOM     34  O   UNL     1      39.381 -20.691 -36.223  0.00  0.00    -0.391 OA
ATOM     35  H   UNL     1      39.590 -20.471 -37.144  0.00  0.00    +0.000 HD
ENDBRANCH  16  34
TORSDOF 3
ENDMDL
MODEL 9
REMARK VINA RESULT:    -6.677      6.332      8.339
REMARK INTER + INTRA:          -8.248
REMARK INTER:                  -8.210
REMARK INTRA:                  -0.038
REMARK UNBOUND:                -0.595
REMARK  Name = cpd244.pdb
REMARK  10 active torsions:
REMARK  status: ('A' for Active; 'I' for Inactive)
REMARK    1  A    between atoms: C_1  and  C_2
REMARK    2  A    between atoms: C_13  and  C_14
REMARK    3  A    between atoms: C_15  and  C_16
REMARK    4  A    between atoms: C_16  and  C_17
REMARK    5  A    between atoms: C_16  and  N_18
REMARK    6  A    between atoms: N_18  and  C_19
REMARK    7  A    between atoms: N_18  and  C_20
REMARK    8  A    between atoms: C_21  and  O_22
REMARK    9  A    between atoms: C_24  and  C_25
REMARK   10  A    between atoms: C_30  and  C_31
REMARK                            x       y       z     vdW  Elec       q    Type
REMARK                         _______ _______ _______ _____ _____    ______ ____
ROOT
ATOM      1  C   UNL     1      47.914 -22.017 -42.230  0.00  0.00    +0.011 C 
ATOM      2  C   UNL     1      47.053 -21.526 -41.112  0.00  0.00    +0.182 C 
ATOM      3  N   UNL     1      47.269 -20.399 -40.537  0.00  0.00    -0.251 NA
ATOM      4  C   UNL     1      46.389 -20.004 -39.434  0.00  0.00    +0.067 C 
ATOM      5  C   UNL     1      47.018 -20.503 -38.125  0.00  0.00    -0.011 C 
ATOM      6  C   UNL     1      46.097 -20.371 -36.958  0.00  0.00    -0.082 C 
ATOM      7  C   UNL     1      44.770 -20.153 -37.039  0.00  0.00    -0.069 C 
ATOM      8  C   UNL     1      44.063 -19.775 -35.742  0.00  0.00    -0.022 C 
ATOM      9  C   UNL     1      42.590 -20.179 -35.515  0.00  0.00    +0.025 C 
ATOM     10  C   UNL     1      42.207 -19.893 -34.051  0.00  0.00    +0.138 C 
ATOM     11  O   UNL     1      43.059 -19.684 -33.184  0.00  0.00    -0.297 OA
ATOM     12  C   UNL     1      40.744 -19.950 -33.630  0.00  0.00    +0.012 C 
ATOM     13  C   UNL     1      39.755 -19.936 -34.800  0.00  0.00    -0.013 C 
ATOM     14  C   UNL     1      39.582 -21.391 -35.296  0.00  0.00    -0.058 C 
ATOM     15  C   UNL     1      38.352 -19.281 -34.493  0.00  0.00    +0.007 C 
ATOM     16  C   UNL     1      37.882 -18.782 -35.904  0.00  0.00    +0.061 C 
ATOM     17  C   UNL     1      39.104 -18.819 -36.840  0.00  0.00    -0.020 C 
ATOM     18  C   UNL     1      40.319 -18.958 -35.907  0.00  0.00    -0.020 C 
ATOM     19  C   UNL     1      40.626 -17.509 -35.375  0.00  0.00    -0.059 C 
ATOM     20  C   UNL     1      41.665 -19.462 -36.537  0.00  0.00    -0.025 C 
ATOM     21  C   UNL     1      41.503 -20.277 -37.830  0.00  0.00    -0.048 C 
ATOM     22  C   UNL     1      42.757 -20.979 -38.357  0.00  0.00    -0.046 C 
ATOM     23  C   UNL     1      44.043 -20.118 -38.386  0.00  0.00    -0.009 C 
ATOM     24  C   UNL     1      44.949 -20.510 -39.630  0.00  0.00    +0.031 C 
ATOM     25  C   UNL     1      44.339 -19.848 -40.896  0.00  0.00    -0.054 C 
ATOM     26  C   UNL     1      45.066 -22.028 -39.849  0.00  0.00    +0.099 C 
ATOM     27  O   UNL     1      46.038 -22.379 -40.849  0.00  0.00    -0.479 OA
ENDROOT
BRANCH  15  28
ATOM     28  C   UNL     1      37.187 -19.923 -33.661  0.00  0.00    +0.013 C 
ATOM     29  C   UNL     1      37.425 -21.300 -33.026  0.00  0.00    -0.049 C 
BRANCH  28  30
ATOM     30  N   UNL     1      36.483 -19.071 -32.672  0.00  0.00    -0.305 N 
ATOM     31  C   UNL     1      36.994 -17.731 -32.447  0.00  0.00    -0.013 C 
ATOM     32  C   UNL     1      35.031 -19.055 -32.839  0.00  0.00    -0.013 C 
ATOM     33  H   UNL     1      36.711 -19.565 -31.810  0.00  0.00    +0.000 HD
ENDBRANCH  28  30
ENDBRANCH  15  28
BRANCH  16  34
ATOM     34  O   UNL     1      36.849 -19.575 -36.465  0.00  0.00    -0.391 OA
ATOM     35  H   UNL     1      36.865 -19.491 -37.431  0.00  0.00    +0.000 HD
ENDBRANCH  16  34
TORSDOF 3
ENDMDL
MODEL 10
REMARK VINA RESULT:    -6.597     22.606     25.250
REMARK INTER + INTRA:          -8.156
REMARK INTER:                  -7.582
REMARK INTRA:                  -0.574
REMARK UNBOUND:                -0.595
REMARK  Name = cpd244.pdb
REMARK  10 active torsions:
REMARK  status: ('A' for Active; 'I' for Inactive)
REMARK    1  A    between atoms: C_1  and  C_2
REMARK    2  A    between atoms: C_13  and  C_14
REMARK    3  A    between atoms: C_15  and  C_16
REMARK    4  A    between atoms: C_16  and  C_17
REMARK    5  A    between atoms: C_16  and  N_18
REMARK    6  A    between atoms: N_18  and  C_19
REMARK    7  A    between atoms: N_18  and  C_20
REMARK    8  A    between atoms: C_21  and  O_22
REMARK    9  A    between atoms: C_24  and  C_25
REMARK   10  A    between atoms: C_30  and  C_31
REMARK                            x       y       z     vdW  Elec       q    Type
REMARK                         _______ _______ _______ _____ _____    ______ ____
ROOT
ATOM      1  C   UNL     1      26.444 -26.120 -29.872  0.00  0.00    +0.011 C 
ATOM      2  C   UNL     1      27.128 -27.449 -29.828  0.00  0.00    +0.182 C 
ATOM      3  N   UNL     1      26.544 -28.522 -30.220  0.00  0.00    -0.251 NA
ATOM      4  C   UNL     1      27.280 -29.786 -30.122  0.00  0.00    +0.067 C 
ATOM      5  C   UNL     1      26.961 -30.414 -28.757  0.00  0.00    -0.011 C 
ATOM      6  C   UNL     1      27.836 -31.582 -28.444  0.00  0.00    -0.082 C 
ATOM      7  C   UNL     1      28.980 -31.888 -29.087  0.00  0.00    -0.069 C 
ATOM      8  C   UNL     1      29.573 -33.263 -28.801  0.00  0.00    -0.022 C 
ATOM      9  C   UNL     1      31.102 -33.476 -28.855  0.00  0.00    +0.025 C 
ATOM     10  C   UNL     1      31.439 -34.870 -28.295  0.00  0.00    +0.138 C 
ATOM     11  O   UNL     1      30.624 -35.522 -27.637  0.00  0.00    -0.297 OA
ATOM     12  C   UNL     1      32.841 -35.436 -28.478  0.00  0.00    +0.012 C 
ATOM     13  C   UNL     1      33.682 -34.700 -29.525  0.00  0.00    -0.013 C 
ATOM     14  C   UNL     1      34.352 -33.488 -28.835  0.00  0.00    -0.058 C 
ATOM     15  C   UNL     1      34.758 -35.581 -30.271  0.00  0.00    +0.007 C 
ATOM     16  C   UNL     1      34.924 -34.843 -31.646  0.00  0.00    +0.061 C 
ATOM     17  C   UNL     1      33.748 -33.858 -31.788  0.00  0.00    -0.020 C 
ATOM     18  C   UNL     1      32.730 -34.294 -30.721  0.00  0.00    -0.020 C 
ATOM     19  C   UNL     1      31.940 -35.505 -31.342  0.00  0.00    -0.059 C 
ATOM     20  C   UNL     1      31.632 -33.255 -30.299  0.00  0.00    -0.025 C 
ATOM     21  C   UNL     1      32.006 -31.786 -30.552  0.00  0.00    -0.048 C 
ATOM     22  C   UNL     1      31.073 -30.730 -29.955  0.00  0.00    -0.046 C 
ATOM     23  C   UNL     1      29.560 -30.976 -30.171  0.00  0.00    -0.009 C 
ATOM     24  C   UNL     1      28.790 -29.598 -30.349  0.00  0.00    +0.031 C 
ATOM     25  C   UNL     1      29.034 -29.096 -31.798  0.00  0.00    -0.054 C 
ATOM     26  C   UNL     1      29.231 -28.517 -29.349  0.00  0.00    +0.099 C 
ATOM     27  O   UNL     1      28.400 -27.343 -29.386  0.00  0.00    -0.479 OA
ENDROOT
BRANCH  15  28
ATOM     28  C   UNL     1      36.126 -36.077 -29.684  0.00  0.00    +0.013 C 
ATOM     29  C   UNL     1      36.114 -36.788 -28.324  0.00  0.00    -0.049 C 
BRANCH  28  30
ATOM     30  N   UNL     1      37.048 -36.810 -30.584  0.00  0.00    -0.305 N 
ATOM     31  C   UNL     1      38.473 -36.701 -30.328  0.00  0.00    -0.013 C 
ATOM     32  C   UNL     1      36.662 -38.201 -30.813  0.00  0.00    -0.013 C 
ATOM     33  H   UNL     1      36.917 -36.284 -31.448  0.00  0.00    +0.000 HD
ENDBRANCH  28  30
ENDBRANCH  15  28
BRANCH  16  34
ATOM     34  O   UNL     1      36.141 -34.125 -31.755  0.00  0.00    -0.391 OA
ATOM     35  H   UNL     1      36.770 -34.634 -32.291  0.00  0.00    +0.000 HD
ENDBRANCH  16  34
TORSDOF 3
ENDMDL
MODEL 11
REMARK VINA RESULT:    -6.568      4.729      6.578
REMARK INTER + INTRA:          -8.122
REMARK INTER:                  -7.525
REMARK INTRA:                  -0.597
REMARK UNBOUND:                -0.595
REMARK  Name = cpd244.pdb
REMARK  10 active torsions:
REMARK  status: ('A' for Active; 'I' for Inactive)
REMARK    1  A    between atoms: C_1  and  C_2
REMARK    2  A    between atoms: C_13  and  C_14
REMARK    3  A    between atoms: C_15  and  C_16
REMARK    4  A    between atoms: C_16  and  C_17
REMARK    5  A    between atoms: C_16  and  N_18
REMARK    6  A    between atoms: N_18  and  C_19
REMARK    7  A    between atoms: N_18  and  C_20
REMARK    8  A    between atoms: C_21  and  O_22
REMARK    9  A    between atoms: C_24  and  C_25
REMARK   10  A    between atoms: C_30  and  C_31
REMARK                            x       y       z     vdW  Elec       q    Type
REMARK                         _______ _______ _______ _____ _____    ______ ____
ROOT
ATOM      1  C   UNL     1      47.911 -23.653 -42.192  0.00  0.00    +0.011 C 
ATOM      2  C   UNL     1      47.044 -22.564 -41.647  0.00  0.00    +0.182 C 
ATOM      3  N   UNL     1      47.024 -21.392 -42.168  0.00  0.00    -0.251 NA
ATOM      4  C   UNL     1      46.160 -20.377 -41.558  0.00  0.00    +0.067 C 
ATOM      5  C   UNL     1      46.989 -19.619 -40.510  0.00  0.00    -0.011 C 
ATOM      6  C   UNL     1      46.154 -18.724 -39.656  0.00  0.00    -0.082 C 
ATOM      7  C   UNL     1      44.812 -18.779 -39.556  0.00  0.00    -0.069 C 
ATOM      8  C   UNL     1      44.135 -17.608 -38.851  0.00  0.00    -0.022 C 
ATOM      9  C   UNL     1      42.826 -17.829 -38.063  0.00  0.00    +0.025 C 
ATOM     10  C   UNL     1      42.497 -16.556 -37.261  0.00  0.00    +0.138 C 
ATOM     11  O   UNL     1      43.336 -15.674 -37.068  0.00  0.00    -0.297 OA
ATOM     12  C   UNL     1      41.128 -16.409 -36.610  0.00  0.00    +0.012 C 
ATOM     13  C   UNL     1      40.079 -17.399 -37.125  0.00  0.00    -0.013 C 
ATOM     14  C   UNL     1      40.227 -18.713 -36.322  0.00  0.00    -0.058 C 
ATOM     15  C   UNL     1      38.587 -16.887 -37.086  0.00  0.00    +0.007 C 
ATOM     16  C   UNL     1      37.904 -17.709 -38.235  0.00  0.00    +0.061 C 
ATOM     17  C   UNL     1      39.024 -18.337 -39.086  0.00  0.00    -0.020 C 
ATOM     18  C   UNL     1      40.304 -17.585 -38.680  0.00  0.00    -0.020 C 
ATOM     19  C   UNL     1      40.289 -16.235 -39.488  0.00  0.00    -0.059 C 
ATOM     20  C   UNL     1      41.679 -18.258 -39.021  0.00  0.00    -0.025 C 
ATOM     21  C   UNL     1      41.622 -19.784 -39.196  0.00  0.00    -0.048 C 
ATOM     22  C   UNL     1      42.965 -20.510 -39.304  0.00  0.00    -0.046 C 
ATOM     23  C   UNL     1      43.998 -19.867 -40.261  0.00  0.00    -0.009 C 
ATOM     24  C   UNL     1      44.876 -20.986 -40.969  0.00  0.00    +0.031 C 
ATOM     25  C   UNL     1      44.029 -21.607 -42.114  0.00  0.00    -0.054 C 
ATOM     26  C   UNL     1      45.339 -22.097 -40.013  0.00  0.00    +0.099 C 
ATOM     27  O   UNL     1      46.289 -22.995 -40.613  0.00  0.00    -0.479 OA
ENDROOT
BRANCH  15  28
ATOM     28  C   UNL     1      37.678 -16.761 -35.813  0.00  0.00    +0.013 C 
ATOM     29  C   UNL     1      38.172 -15.879 -34.657  0.00  0.00    -0.049 C 
BRANCH  28  30
ATOM     30  N   UNL     1      36.231 -16.502 -36.010  0.00  0.00    -0.305 N 
ATOM     31  C   UNL     1      35.303 -17.093 -35.063  0.00  0.00    -0.013 C 
ATOM     32  C   UNL     1      35.914 -15.096 -36.247  0.00  0.00    -0.013 C 
ATOM     33  H   UNL     1      36.068 -17.027 -36.868  0.00  0.00    +0.000 HD
ENDBRANCH  28  30
ENDBRANCH  15  28
BRANCH  16  34
ATOM     34  O   UNL     1      37.054 -18.740 -37.760  0.00  0.00    -0.391 OA
ATOM     35  H   UNL     1      37.170 -18.839 -36.802  0.00  0.00    +0.000 HD
ENDBRANCH  16  34
TORSDOF 3
ENDMDL
MODEL 12
REMARK VINA RESULT:    -6.551     29.821     34.538
REMARK INTER + INTRA:          -8.103
REMARK INTER:                  -7.505
REMARK INTRA:                  -0.598
REMARK UNBOUND:                -0.595
REMARK  Name = cpd244.pdb
REMARK  10 active torsions:
REMARK  status: ('A' for Active; 'I' for Inactive)
REMARK    1  A    between atoms: C_1  and  C_2
REMARK    2  A    between atoms: C_13  and  C_14
REMARK    3  A    between atoms: C_15  and  C_16
REMARK    4  A    between atoms: C_16  and  C_17
REMARK    5  A    between atoms: C_16  and  N_18
REMARK    6  A    between atoms: N_18  and  C_19
REMARK    7  A    between atoms: N_18  and  C_20
REMARK    8  A    between atoms: C_21  and  O_22
REMARK    9  A    between atoms: C_24  and  C_25
REMARK   10  A    between atoms: C_30  and  C_31
REMARK                            x       y       z     vdW  Elec       q    Type
REMARK                         _______ _______ _______ _____ _____    ______ ____
ROOT
ATOM      1  C   UNL     1      58.807 -54.879 -41.732  0.00  0.00    +0.011 C 
ATOM      2  C   UNL     1      58.220 -53.753 -42.520  0.00  0.00    +0.182 C 
ATOM      3  N   UNL     1      58.841 -53.228 -43.513  0.00  0.00    -0.251 NA
ATOM      4  C   UNL     1      58.202 -52.113 -44.218  0.00  0.00    +0.067 C 
ATOM      5  C   UNL     1      58.673 -50.807 -43.561  0.00  0.00    -0.011 C 
ATOM      6  C   UNL     1      57.907 -49.617 -44.035  0.00  0.00    -0.082 C 
ATOM      7  C   UNL     1      56.737 -49.664 -44.703  0.00  0.00    -0.069 C 
ATOM      8  C   UNL     1      56.263 -48.359 -45.335  0.00  0.00    -0.022 C 
ATOM      9  C   UNL     1      54.753 -48.070 -45.478  0.00  0.00    +0.025 C 
ATOM     10  C   UNL     1      54.558 -46.607 -45.915  0.00  0.00    +0.138 C 
ATOM     11  O   UNL     1      55.465 -45.776 -45.832  0.00  0.00    -0.297 OA
ATOM     12  C   UNL     1      53.186 -46.138 -46.384  0.00  0.00    +0.012 C 
ATOM     13  C   UNL     1      52.215 -47.275 -46.716  0.00  0.00    -0.013 C 
ATOM     14  C   UNL     1      51.524 -47.712 -45.403  0.00  0.00    -0.058 C 
ATOM     15  C   UNL     1      51.144 -46.948 -47.828  0.00  0.00    +0.007 C 
ATOM     16  C   UNL     1      50.817 -48.362 -48.427  0.00  0.00    +0.061 C 
ATOM     17  C   UNL     1      51.909 -49.334 -47.941  0.00  0.00    -0.020 C 
ATOM     18  C   UNL     1      53.038 -48.435 -47.408  0.00  0.00    -0.020 C 
ATOM     19  C   UNL     1      53.854 -47.968 -48.670  0.00  0.00    -0.059 C 
ATOM     20  C   UNL     1      54.094 -49.089 -46.450  0.00  0.00    -0.025 C 
ATOM     21  C   UNL     1      53.602 -50.345 -45.713  0.00  0.00    -0.048 C 
ATOM     22  C   UNL     1      54.508 -50.885 -44.603  0.00  0.00    -0.046 C 
ATOM     23  C   UNL     1      56.011 -50.987 -44.958  0.00  0.00    -0.009 C 
ATOM     24  C   UNL     1      56.670 -52.244 -44.244  0.00  0.00    +0.031 C 
ATOM     25  C   UNL     1      56.275 -53.513 -45.048  0.00  0.00    -0.054 C 
ATOM     26  C   UNL     1      56.239 -52.410 -42.777  0.00  0.00    +0.099 C 
ATOM     27  O   UNL     1      56.984 -53.427 -42.084  0.00  0.00    -0.479 OA
ENDROOT
BRANCH  15  28
ATOM     28  C   UNL     1      49.864 -46.057 -47.656  0.00  0.00    +0.013 C 
ATOM     29  C   UNL     1      50.054 -44.599 -47.214  0.00  0.00    -0.049 C 
BRANCH  28  30
ATOM     30  N   UNL     1      48.841 -46.088 -48.728  0.00  0.00    -0.305 N 
ATOM     31  C   UNL     1      47.454 -45.889 -48.347  0.00  0.00    -0.013 C 
ATOM     32  C   UNL     1      49.185 -45.276 -49.893  0.00  0.00    -0.013 C 
ATOM     33  H   UNL     1      48.881 -47.073 -48.989  0.00  0.00    +0.000 HD
ENDBRANCH  28  30
ENDBRANCH  15  28
BRANCH  16  34
ATOM     34  O   UNL     1      49.550 -48.859 -48.034  0.00  0.00    -0.391 OA
ATOM     35  H   UNL     1      49.461 -49.782 -48.321  0.00  0.00    +0.000 HD
ENDBRANCH  16  34
TORSDOF 3
ENDMDL
MODEL 13
REMARK VINA RESULT:    -6.394      4.880      8.219
REMARK INTER + INTRA:          -7.923
REMARK INTER:                  -7.344
REMARK INTRA:                  -0.580
REMARK UNBOUND:                -0.595
REMARK  Name = cpd244.pdb
REMARK  10 active torsions:
REMARK  status: ('A' for Active; 'I' for Inactive)
REMARK    1  A    between atoms: C_1  and  C_2
REMARK    2  A    between atoms: C_13  and  C_14
REMARK    3  A    between atoms: C_15  and  C_16
REMARK    4  A    between atoms: C_16  and  C_17
REMARK    5  A    between atoms: C_16  and  N_18
REMARK    6  A    between atoms: N_18  and  C_19
REMARK    7  A    between atoms: N_18  and  C_20
REMARK    8  A    between atoms: C_21  and  O_22
REMARK    9  A    between atoms: C_24  and  C_25
REMARK   10  A    between atoms: C_30  and  C_31
REMARK                            x       y       z     vdW  Elec       q    Type
REMARK                         _______ _______ _______ _____ _____    ______ ____
ROOT
ATOM      1  C   UNL     1      48.483 -11.322 -41.267  0.00  0.00    +0.011 C 
ATOM      2  C   UNL     1      48.024 -12.627 -40.699  0.00  0.00    +0.182 C 
ATOM      3  N   UNL     1      48.841 -13.592 -40.481  0.00  0.00    -0.251 NA
ATOM      4  C   UNL     1      48.303 -14.846 -39.943  0.00  0.00    +0.067 C 
ATOM      5  C   UNL     1      47.945 -15.753 -41.128  0.00  0.00    -0.011 C 
ATOM      6  C   UNL     1      47.169 -16.959 -40.715  0.00  0.00    -0.082 C 
ATOM      7  C   UNL     1      46.557 -17.116 -39.524  0.00  0.00    -0.069 C 
ATOM      8  C   UNL     1      46.057 -18.519 -39.197  0.00  0.00    -0.022 C 
ATOM      9  C   UNL     1      44.806 -18.710 -38.312  0.00  0.00    +0.025 C 
ATOM     10  C   UNL     1      44.386 -20.191 -38.344  0.00  0.00    +0.138 C 
ATOM     11  O   UNL     1      44.815 -20.971 -39.196  0.00  0.00    -0.297 OA
ATOM     12  C   UNL     1      43.347 -20.700 -37.352  0.00  0.00    +0.012 C 
ATOM     13  C   UNL     1      43.086 -19.753 -36.177  0.00  0.00    -0.013 C 
ATOM     14  C   UNL     1      42.028 -18.717 -36.625  0.00  0.00    -0.058 C 
ATOM     15  C   UNL     1      42.648 -20.450 -34.830  0.00  0.00    +0.007 C 
ATOM     16  C   UNL     1      43.130 -19.432 -33.737  0.00  0.00    +0.061 C 
ATOM     17  C   UNL     1      44.096 -18.444 -34.416  0.00  0.00    -0.020 C 
ATOM     18  C   UNL     1      44.465 -19.102 -35.757  0.00  0.00    -0.020 C 
ATOM     19  C   UNL     1      45.589 -20.153 -35.430  0.00  0.00    -0.059 C 
ATOM     20  C   UNL     1      45.069 -18.182 -36.875  0.00  0.00    -0.025 C 
ATOM     21  C   UNL     1      44.718 -16.691 -36.740  0.00  0.00    -0.048 C 
ATOM     22  C   UNL     1      45.090 -15.792 -37.921  0.00  0.00    -0.046 C 
ATOM     23  C   UNL     1      46.518 -15.990 -38.487  0.00  0.00    -0.009 C 
ATOM     24  C   UNL     1      47.113 -14.608 -38.998  0.00  0.00    +0.031 C 
ATOM     25  C   UNL     1      47.591 -13.805 -37.758  0.00  0.00    -0.054 C 
ATOM     26  C   UNL     1      46.105 -13.766 -39.799  0.00  0.00    +0.099 C 
ATOM     27  O   UNL     1      46.702 -12.615 -40.420  0.00  0.00    -0.479 OA
ENDROOT
BRANCH  15  28
ATOM     28  C   UNL     1      41.237 -21.056 -34.510  0.00  0.00    +0.013 C 
ATOM     29  C   UNL     1      40.774 -22.276 -35.319  0.00  0.00    -0.049 C 
BRANCH  28  30
ATOM     30  N   UNL     1      40.878 -21.277 -33.089  0.00  0.00    -0.305 N 
ATOM     31  C   UNL     1      39.518 -20.973 -32.679  0.00  0.00    -0.013 C 
ATOM     32  C   UNL     1      41.302 -22.576 -32.571  0.00  0.00    -0.013 C 
ATOM     33  H   UNL     1      41.433 -20.547 -32.644  0.00  0.00    +0.000 HD
ENDBRANCH  28  30
ENDBRANCH  15  28
BRANCH  16  34
ATOM     34  O   UNL     1      42.069 -18.704 -33.141  0.00  0.00    -0.391 OA
ATOM     35  H   UNL     1      41.657 -18.131 -33.807  0.00  0.00    +0.000 HD
ENDBRANCH  16  34
TORSDOF 3
ENDMDL
MODEL 14
REMARK VINA RESULT:    -6.264      4.167      7.701
REMARK INTER + INTRA:          -7.774
REMARK INTER:                  -7.356
REMARK INTRA:                  -0.418
REMARK UNBOUND:                -0.595
REMARK  Name = cpd244.pdb
REMARK  10 active torsions:
REMARK  status: ('A' for Active; 'I' for Inactive)
REMARK    1  A    between atoms: C_1  and  C_2
REMARK    2  A    between atoms: C_13  and  C_14
REMARK    3  A    between atoms: C_15  and  C_16
REMARK    4  A    between atoms: C_16  and  C_17
REMARK    5  A    between atoms: C_16  and  N_18
REMARK    6  A    between atoms: N_18  and  C_19
REMARK    7  A    between atoms: N_18  and  C_20
REMARK    8  A    between atoms: C_21  and  O_22
REMARK    9  A    between atoms: C_24  and  C_25
REMARK   10  A    between atoms: C_30  and  C_31
REMARK                            x       y       z     vdW  Elec       q    Type
REMARK                         _______ _______ _______ _____ _____    ______ ____
ROOT
ATOM      1  C   UNL     1      51.277  -9.960 -41.901  0.00  0.00    +0.011 C 
ATOM      2  C   UNL     1      50.588 -11.206 -41.445  0.00  0.00    +0.182 C 
ATOM      3  N   UNL     1      51.113 -12.365 -41.608  0.00  0.00    -0.251 NA
ATOM      4  C   UNL     1      50.360 -13.537 -41.150  0.00  0.00    +0.067 C 
ATOM      5  C   UNL     1      49.506 -14.038 -42.324  0.00  0.00    -0.011 C 
ATOM      6  C   UNL     1      48.517 -15.078 -41.912  0.00  0.00    -0.082 C 
ATOM      7  C   UNL     1      48.156 -15.343 -40.642  0.00  0.00    -0.069 C 
ATOM      8  C   UNL     1      47.348 -16.617 -40.418  0.00  0.00    -0.022 C 
ATOM      9  C   UNL     1      46.315 -16.690 -39.272  0.00  0.00    +0.025 C 
ATOM     10  C   UNL     1      45.483 -17.977 -39.422  0.00  0.00    +0.138 C 
ATOM     11  O   UNL     1      45.472 -18.626 -40.471  0.00  0.00    -0.297 OA
ATOM     12  C   UNL     1      44.578 -18.426 -38.282  0.00  0.00    +0.012 C 
ATOM     13  C   UNL     1      44.864 -17.734 -36.946  0.00  0.00    -0.013 C 
ATOM     14  C   UNL     1      44.087 -16.396 -36.925  0.00  0.00    -0.058 C 
ATOM     15  C   UNL     1      44.540 -18.587 -35.658  0.00  0.00    +0.007 C 
ATOM     16  C   UNL     1      45.521 -17.992 -34.587  0.00  0.00    +0.061 C 
ATOM     17  C   UNL     1      46.565 -17.143 -35.336  0.00  0.00    -0.020 C 
ATOM     18  C   UNL     1      46.429 -17.552 -36.813  0.00  0.00    -0.020 C 
ATOM     19  C   UNL     1      47.238 -18.892 -36.969  0.00  0.00    -0.059 C 
ATOM     20  C   UNL     1      47.024 -16.581 -37.893  0.00  0.00    -0.025 C 
ATOM     21  C   UNL     1      47.163 -15.120 -37.436  0.00  0.00    -0.048 C 
ATOM     22  C   UNL     1      47.521 -14.097 -38.517  0.00  0.00    -0.046 C 
ATOM     23  C   UNL     1      48.671 -14.506 -39.468  0.00  0.00    -0.009 C 
ATOM     24  C   UNL     1      49.522 -13.234 -39.896  0.00  0.00    +0.031 C 
ATOM     25  C   UNL     1      50.469 -12.873 -38.718  0.00  0.00    -0.054 C 
ATOM     26  C   UNL     1      48.658 -12.012 -40.254  0.00  0.00    +0.099 C 
ATOM     27  O   UNL     1      49.420 -10.933 -40.824  0.00  0.00    -0.479 OA
ENDROOT
BRANCH  15  28
ATOM     28  C   UNL     1      43.116 -18.884 -35.072  0.00  0.00    +0.013 C 
ATOM     29  C   UNL     1      42.065 -19.504 -36.004  0.00  0.00    -0.049 C 
BRANCH  28  30
ATOM     30  N   UNL     1      43.029 -19.564 -33.757  0.00  0.00    -0.305 N 
ATOM     31  C   UNL     1      42.345 -18.871 -32.680  0.00  0.00    -0.013 C 
ATOM     32  C   UNL     1      42.594 -20.956 -33.843  0.00  0.00    -0.013 C 
ATOM     33  H   UNL     1      44.009 -19.541 -33.475  0.00  0.00    +0.000 HD
ENDBRANCH  28  30
ENDBRANCH  15  28
BRANCH  16  34
ATOM     34  O   UNL     1      44.873 -17.179 -33.623  0.00  0.00    -0.391 OA
ATOM     35  H   UNL     1      45.085 -16.247 -33.791  0.00  0.00    +0.000 HD
ENDBRANCH  16  34
TORSDOF 3
ENDMDL
MODEL 15
REMARK VINA RESULT:    -6.202      4.722      6.288
REMARK INTER + INTRA:          -7.704
REMARK INTER:                  -7.102
REMARK INTRA:                  -0.601
REMARK UNBOUND:                -0.595
REMARK  Name = cpd244.pdb
REMARK  10 active torsions:
REMARK  status: ('A' for Active; 'I' for Inactive)
REMARK    1  A    between atoms: C_1  and  C_2
REMARK    2  A    between atoms: C_13  and  C_14
REMARK    3  A    between atoms: C_15  and  C_16
REMARK    4  A    between atoms: C_16  and  C_17
REMARK    5  A    between atoms: C_16  and  N_18
REMARK    6  A    between atoms: N_18  and  C_19
REMARK    7  A    between atoms: N_18  and  C_20
REMARK    8  A    between atoms: C_21  and  O_22
REMARK    9  A    between atoms: C_24  and  C_25
REMARK   10  A    between atoms: C_30  and  C_31
REMARK                            x       y       z     vdW  Elec       q    Type
REMARK                         _______ _______ _______ _____ _____    ______ ____
ROOT
ATOM      1  C   UNL     1      39.549 -22.152 -32.770  0.00  0.00    +0.011 C 
ATOM      2  C   UNL     1      40.224 -21.598 -33.984  0.00  0.00    +0.182 C 
ATOM      3  N   UNL     1      39.681 -21.656 -35.145  0.00  0.00    -0.251 NA
ATOM      4  C   UNL     1      40.421 -21.107 -36.285  0.00  0.00    +0.067 C 
ATOM      5  C   UNL     1      41.254 -22.243 -36.897  0.00  0.00    -0.011 C 
ATOM      6  C   UNL     1      42.231 -21.754 -37.914  0.00  0.00    -0.082 C 
ATOM      7  C   UNL     1      42.603 -20.469 -38.076  0.00  0.00    -0.069 C 
ATOM      8  C   UNL     1      43.394 -20.146 -39.340  0.00  0.00    -0.022 C 
ATOM      9  C   UNL     1      44.439 -19.008 -39.331  0.00  0.00    +0.025 C 
ATOM     10  C   UNL     1      45.250 -19.057 -40.639  0.00  0.00    +0.138 C 
ATOM     11  O   UNL     1      45.239 -20.046 -41.375  0.00  0.00    -0.297 OA
ATOM     12  C   UNL     1      46.161 -17.891 -41.004  0.00  0.00    +0.012 C 
ATOM     13  C   UNL     1      45.901 -16.616 -40.196  0.00  0.00    -0.013 C 
ATOM     14  C   UNL     1      46.698 -16.717 -38.874  0.00  0.00    -0.058 C 
ATOM     15  C   UNL     1      46.226 -15.264 -40.941  0.00  0.00    +0.007 C 
ATOM     16  C   UNL     1      45.267 -14.238 -40.242  0.00  0.00    +0.061 C 
ATOM     17  C   UNL     1      44.227 -15.046 -39.443  0.00  0.00    -0.020 C 
ATOM     18  C   UNL     1      44.340 -16.484 -39.978  0.00  0.00    -0.020 C 
ATOM     19  C   UNL     1      43.509 -16.517 -41.314  0.00  0.00    -0.059 C 
ATOM     20  C   UNL     1      43.748 -17.636 -39.094  0.00  0.00    -0.025 C 
ATOM     21  C   UNL     1      43.636 -17.304 -37.597  0.00  0.00    -0.048 C 
ATOM     22  C   UNL     1      43.281 -18.465 -36.664  0.00  0.00    -0.046 C 
ATOM     23  C   UNL     1      42.114 -19.366 -37.134  0.00  0.00    -0.009 C 
ATOM     24  C   UNL     1      41.278 -19.892 -35.890  0.00  0.00    +0.031 C 
ATOM     25  C   UNL     1      40.350 -18.741 -35.414  0.00  0.00    -0.054 C 
ATOM     26  C   UNL     1      42.155 -20.362 -34.717  0.00  0.00    +0.099 C 
ATOM     27  O   UNL     1      41.404 -21.014 -33.678  0.00  0.00    -0.479 OA
ENDROOT
BRANCH  15  28
ATOM     28  C   UNL     1      47.653 -14.668 -41.210  0.00  0.00    +0.013 C 
ATOM     29  C   UNL     1      48.614 -15.469 -42.100  0.00  0.00    -0.049 C 
BRANCH  28  30
ATOM     30  N   UNL     1      47.753 -13.238 -41.588  0.00  0.00    -0.305 N 
ATOM     31  C   UNL     1      48.931 -12.505 -41.159  0.00  0.00    -0.013 C 
ATOM     32  C   UNL     1      47.461 -12.980 -42.996  0.00  0.00    -0.013 C 
ATOM     33  H   UNL     1      47.004 -12.846 -41.018  0.00  0.00    +0.000 HD
ENDBRANCH  28  30
ENDBRANCH  15  28
BRANCH  16  34
ATOM     34  O   UNL     1      45.937 -13.353 -39.360  0.00  0.00    -0.391 OA
ATOM     35  H   UNL     1      46.190 -12.548 -39.840  0.00  0.00    +0.000 HD
ENDBRANCH  16  34
TORSDOF 3
ENDMDL
MODEL 16
REMARK VINA RESULT:    -6.182      7.198     10.796
REMARK INTER + INTRA:          -7.680
REMARK INTER:                  -7.096
REMARK INTRA:                  -0.584
REMARK UNBOUND:                -0.595
REMARK  Name = cpd244.pdb
REMARK  10 active torsions:
REMARK  status: ('A' for Active; 'I' for Inactive)
REMARK    1  A    between atoms: C_1  and  C_2
REMARK    2  A    between atoms: C_13  and  C_14
REMARK    3  A    between atoms: C_15  and  C_16
REMARK    4  A    between atoms: C_16  and  C_17
REMARK    5  A    between atoms: C_16  and  N_18
REMARK    6  A    between atoms: N_18  and  C_19
REMARK    7  A    between atoms: N_18  and  C_20
REMARK    8  A    between atoms: C_21  and  O_22
REMARK    9  A    between atoms: C_24  and  C_25
REMARK   10  A    between atoms: C_30  and  C_31
REMARK                            x       y       z     vdW  Elec       q    Type
REMARK                         _______ _______ _______ _____ _____    ______ ____
ROOT
ATOM      1  C   UNL     1      34.494 -15.971 -30.867  0.00  0.00    +0.011 C 
ATOM      2  C   UNL     1      35.366 -16.745 -31.802  0.00  0.00    +0.182 C 
ATOM      3  N   UNL     1      34.887 -17.645 -32.582  0.00  0.00    -0.251 NA
ATOM      4  C   UNL     1      35.816 -18.373 -33.452  0.00  0.00    +0.067 C 
ATOM      5  C   UNL     1      36.279 -19.630 -32.702  0.00  0.00    -0.011 C 
ATOM      6  C   UNL     1      37.408 -20.325 -33.389  0.00  0.00    -0.082 C 
ATOM      7  C   UNL     1      38.171 -19.789 -34.362  0.00  0.00    -0.069 C 
ATOM      8  C   UNL     1      39.082 -20.751 -35.117  0.00  0.00    -0.022 C 
ATOM      9  C   UNL     1      40.428 -20.256 -35.689  0.00  0.00    +0.025 C 
ATOM     10  C   UNL     1      41.245 -21.466 -36.179  0.00  0.00    +0.138 C 
ATOM     11  O   UNL     1      40.961 -22.620 -35.850  0.00  0.00    -0.297 OA
ATOM     12  C   UNL     1      42.491 -21.240 -37.026  0.00  0.00    +0.012 C 
ATOM     13  C   UNL     1      42.605 -19.829 -37.609  0.00  0.00    -0.013 C 
ATOM     14  C   UNL     1      43.267 -18.923 -36.543  0.00  0.00    -0.058 C 
ATOM     15  C   UNL     1      43.373 -19.723 -38.984  0.00  0.00    +0.007 C 
ATOM     16  C   UNL     1      42.750 -18.439 -39.636  0.00  0.00    +0.061 C 
ATOM     17  C   UNL     1      41.473 -18.092 -38.848  0.00  0.00    -0.020 C 
ATOM     18  C   UNL     1      41.156 -19.352 -38.024  0.00  0.00    -0.020 C 
ATOM     19  C   UNL     1      40.421 -20.338 -39.005  0.00  0.00    -0.059 C 
ATOM     20  C   UNL     1      40.191 -19.192 -36.797  0.00  0.00    -0.025 C 
ATOM     21  C   UNL     1      40.118 -17.770 -36.218  0.00  0.00    -0.048 C 
ATOM     22  C   UNL     1      39.374 -17.611 -34.890  0.00  0.00    -0.046 C 
ATOM     23  C   UNL     1      38.007 -18.332 -34.800  0.00  0.00    -0.009 C 
ATOM     24  C   UNL     1      36.990 -17.492 -33.913  0.00  0.00    +0.031 C 
ATOM     25  C   UNL     1      36.447 -16.324 -34.782  0.00  0.00    -0.054 C 
ATOM     26  C   UNL     1      37.619 -16.928 -32.629  0.00  0.00    +0.099 C 
ATOM     27  O   UNL     1      36.653 -16.339 -31.741  0.00  0.00    -0.479 OA
ENDROOT
BRANCH  15  28
ATOM     28  C   UNL     1      44.925 -19.814 -39.194  0.00  0.00    +0.013 C 
ATOM     29  C   UNL     1      45.658 -21.046 -38.643  0.00  0.00    -0.049 C 
BRANCH  28  30
ATOM     30  N   UNL     1      45.467 -19.514 -40.541  0.00  0.00    -0.305 N 
ATOM     31  C   UNL     1      46.733 -18.809 -40.620  0.00  0.00    -0.013 C 
ATOM     32  C   UNL     1      45.448 -20.659 -41.449  0.00  0.00    -0.013 C 
ATOM     33  H   UNL     1      44.786 -18.826 -40.862  0.00  0.00    +0.000 HD
ENDBRANCH  28  30
ENDBRANCH  15  28
BRANCH  16  34
ATOM     34  O   UNL     1      43.621 -17.320 -39.615  0.00  0.00    -0.391 OA
ATOM     35  H   UNL     1      43.430 -16.747 -40.375  0.00  0.00    +0.000 HD
ENDBRANCH  16  34
TORSDOF 3
ENDMDL
MODEL 17
REMARK VINA RESULT:    -6.114      3.750      9.490
REMARK INTER + INTRA:          -7.602
REMARK INTER:                  -7.025
REMARK INTRA:                  -0.577
REMARK UNBOUND:                -0.595
REMARK  Name = cpd244.pdb
REMARK  10 active torsions:
REMARK  status: ('A' for Active; 'I' for Inactive)
REMARK    1  A    between atoms: C_1  and  C_2
REMARK    2  A    between atoms: C_13  and  C_14
REMARK    3  A    between atoms: C_15  and  C_16
REMARK    4  A    between atoms: C_16  and  C_17
REMARK    5  A    between atoms: C_16  and  N_18
REMARK    6  A    between atoms: N_18  and  C_19
REMARK    7  A    between atoms: N_18  and  C_20
REMARK    8  A    between atoms: C_21  and  O_22
REMARK    9  A    between atoms: C_24  and  C_25
REMARK   10  A    between atoms: C_30  and  C_31
REMARK                            x       y       z     vdW  Elec       q    Type
REMARK                         _______ _______ _______ _____ _____    ______ ____
ROOT
ATOM      1  C   UNL     1      41.057 -12.610 -30.130  0.00  0.00    +0.011 C 
ATOM      2  C   UNL     1      41.703 -13.063 -31.400  0.00  0.00    +0.182 C 
ATOM      3  N   UNL     1      42.570 -12.340 -32.011  0.00  0.00    -0.251 NA
ATOM      4  C   UNL     1      43.138 -12.850 -33.262  0.00  0.00    +0.067 C 
ATOM      5  C   UNL     1      42.270 -12.337 -34.419  0.00  0.00    -0.011 C 
ATOM      6  C   UNL     1      42.607 -12.984 -35.722  0.00  0.00    -0.082 C 
ATOM      7  C   UNL     1      43.340 -14.105 -35.862  0.00  0.00    -0.069 C 
ATOM      8  C   UNL     1      43.799 -14.443 -37.277  0.00  0.00    -0.022 C 
ATOM      9  C   UNL     1      43.985 -15.917 -37.701  0.00  0.00    +0.025 C 
ATOM     10  C   UNL     1      44.212 -15.980 -39.223  0.00  0.00    +0.138 C 
ATOM     11  O   UNL     1      43.955 -15.025 -39.959  0.00  0.00    -0.297 OA
ATOM     12  C   UNL     1      44.685 -17.280 -39.860  0.00  0.00    +0.012 C 
ATOM     13  C   UNL     1      45.236 -18.302 -38.862  0.00  0.00    -0.013 C 
ATOM     14  C   UNL     1      44.043 -19.111 -38.298  0.00  0.00    -0.058 C 
ATOM     15  C   UNL     1      46.347 -19.271 -39.427  0.00  0.00    +0.007 C 
ATOM     16  C   UNL     1      47.166 -19.652 -38.144  0.00  0.00    +0.061 C 
ATOM     17  C   UNL     1      46.767 -18.667 -37.029  0.00  0.00    -0.020 C 
ATOM     18  C   UNL     1      46.043 -17.517 -37.751  0.00  0.00    -0.020 C 
ATOM     19  C   UNL     1      47.173 -16.587 -38.328  0.00  0.00    -0.059 C 
ATOM     20  C   UNL     1      45.132 -16.577 -36.887  0.00  0.00    -0.025 C 
ATOM     21  C   UNL     1      44.618 -17.204 -35.581  0.00  0.00    -0.048 C 
ATOM     22  C   UNL     1      43.550 -16.416 -34.818  0.00  0.00    -0.046 C 
ATOM     23  C   UNL     1      43.829 -14.902 -34.651  0.00  0.00    -0.009 C 
ATOM     24  C   UNL     1      43.271 -14.383 -33.257  0.00  0.00    +0.031 C 
ATOM     25  C   UNL     1      44.275 -14.809 -32.150  0.00  0.00    -0.054 C 
ATOM     26  C   UNL     1      41.872 -14.923 -32.917  0.00  0.00    +0.099 C 
ATOM     27  O   UNL     1      41.295 -14.300 -31.757  0.00  0.00    -0.479 OA
ENDROOT
BRANCH  15  28
ATOM     28  C   UNL     1      46.119 -20.494 -40.383  0.00  0.00    +0.013 C 
ATOM     29  C   UNL     1      45.326 -20.262 -41.677  0.00  0.00    -0.049 C 
BRANCH  28  30
ATOM     30  N   UNL     1      47.281 -21.360 -40.699  0.00  0.00    -0.305 N 
ATOM     31  C   UNL     1      47.049 -22.788 -40.814  0.00  0.00    -0.013 C 
ATOM     32  C   UNL     1      48.092 -20.870 -41.811  0.00  0.00    -0.013 C 
ATOM     33  H   UNL     1      47.815 -21.270 -39.835  0.00  0.00    +0.000 HD
ENDBRANCH  28  30
ENDBRANCH  15  28
BRANCH  16  34
ATOM     34  O   UNL     1      46.924 -20.976 -37.696  0.00  0.00    -0.391 OA
ATOM     35  H   UNL     1      45.979 -21.179 -37.785  0.00  0.00    +0.000 HD
ENDBRANCH  16  34
TORSDOF 3
ENDMDL
MODEL 18
REMARK VINA RESULT:    -6.045      6.859     10.747
REMARK INTER + INTRA:          -7.523
REMARK INTER:                  -6.948
REMARK INTRA:                  -0.575
REMARK UNBOUND:                -0.595
REMARK  Name = cpd244.pdb
REMARK  10 active torsions:
REMARK  status: ('A' for Active; 'I' for Inactive)
REMARK    1  A    between atoms: C_1  and  C_2
REMARK    2  A    between atoms: C_13  and  C_14
REMARK    3  A    between atoms: C_15  and  C_16
REMARK    4  A    between atoms: C_16  and  C_17
REMARK    5  A    between atoms: C_16  and  N_18
REMARK    6  A    between atoms: N_18  and  C_19
REMARK    7  A    between atoms: N_18  and  C_20
REMARK    8  A    between atoms: C_21  and  O_22
REMARK    9  A    between atoms: C_24  and  C_25
REMARK   10  A    between atoms: C_30  and  C_31
REMARK                            x       y       z     vdW  Elec       q    Type
REMARK                         _______ _______ _______ _____ _____    ______ ____
ROOT
ATOM      1  C   UNL     1      33.274 -16.250 -34.157  0.00  0.00    +0.011 C 
ATOM      2  C   UNL     1      34.564 -16.972 -34.376  0.00  0.00    +0.182 C 
ATOM      3  N   UNL     1      34.780 -18.135 -33.878  0.00  0.00    -0.251 NA
ATOM      4  C   UNL     1      36.081 -18.763 -34.123  0.00  0.00    +0.067 C 
ATOM      5  C   UNL     1      37.018 -18.375 -32.970  0.00  0.00    -0.011 C 
ATOM      6  C   UNL     1      38.437 -18.757 -33.230  0.00  0.00    -0.082 C 
ATOM      7  C   UNL     1      38.939 -19.103 -34.432  0.00  0.00    -0.069 C 
ATOM      8  C   UNL     1      40.333 -19.720 -34.434  0.00  0.00    -0.022 C 
ATOM      9  C   UNL     1      41.274 -19.509 -35.640  0.00  0.00    +0.025 C 
ATOM     10  C   UNL     1      42.680 -20.024 -35.281  0.00  0.00    +0.138 C 
ATOM     11  O   UNL     1      43.012 -20.252 -34.115  0.00  0.00    -0.297 OA
ATOM     12  C   UNL     1      43.728 -20.179 -36.376  0.00  0.00    +0.012 C 
ATOM     13  C   UNL     1      43.158 -20.145 -37.797  0.00  0.00    -0.013 C 
ATOM     14  C   UNL     1      43.045 -18.664 -38.231  0.00  0.00    -0.058 C 
ATOM     15  C   UNL     1      43.961 -20.979 -38.869  0.00  0.00    +0.007 C 
ATOM     16  C   UNL     1      42.862 -21.337 -39.931  0.00  0.00    +0.061 C 
ATOM     17  C   UNL     1      41.490 -21.047 -39.293  0.00  0.00    -0.020 C 
ATOM     18  C   UNL     1      41.771 -20.904 -37.787  0.00  0.00    -0.020 C 
ATOM     19  C   UNL     1      41.854 -22.368 -37.219  0.00  0.00    -0.059 C 
ATOM     20  C   UNL     1      40.687 -20.181 -36.913  0.00  0.00    -0.025 C 
ATOM     21  C   UNL     1      39.767 -19.225 -37.690  0.00  0.00    -0.048 C 
ATOM     22  C   UNL     1      38.849 -18.330 -36.855  0.00  0.00    -0.046 C 
ATOM     23  C   UNL     1      38.091 -19.038 -35.705  0.00  0.00    -0.009 C 
ATOM     24  C   UNL     1      36.654 -18.392 -35.502  0.00  0.00    +0.031 C 
ATOM     25  C   UNL     1      35.719 -18.944 -36.613  0.00  0.00    -0.054 C 
ATOM     26  C   UNL     1      36.661 -16.855 -35.553  0.00  0.00    +0.099 C 
ATOM     27  O   UNL     1      35.400 -16.275 -35.176  0.00  0.00    -0.479 OA
ENDROOT
BRANCH  15  28
ATOM     28  C   UNL     1      45.328 -20.580 -39.528  0.00  0.00    +0.013 C 
ATOM     29  C   UNL     1      46.498 -20.217 -38.602  0.00  0.00    -0.049 C 
BRANCH  28  30
ATOM     30  N   UNL     1      45.850 -21.431 -40.625  0.00  0.00    -0.305 N 
ATOM     31  C   UNL     1      46.425 -20.768 -41.781  0.00  0.00    -0.013 C 
ATOM     32  C   UNL     1      46.709 -22.520 -40.165  0.00  0.00    -0.013 C 
ATOM     33  H   UNL     1      44.979 -21.825 -40.980  0.00  0.00    +0.000 HD
ENDBRANCH  28  30
ENDBRANCH  15  28
BRANCH  16  34
ATOM     34  O   UNL     1      42.977 -20.592 -41.131  0.00  0.00    -0.391 OA
ATOM     35  H   UNL     1      42.438 -19.788 -41.066  0.00  0.00    +0.000 HD
ENDBRANCH  16  34
TORSDOF 3
ENDMDL
MODEL 19
REMARK VINA RESULT:    -6.026      3.869      8.175
REMARK INTER + INTRA:          -7.501
REMARK INTER:                  -6.972
REMARK INTRA:                  -0.529
REMARK UNBOUND:                -0.595
REMARK  Name = cpd244.pdb
REMARK  10 active torsions:
REMARK  status: ('A' for Active; 'I' for Inactive)
REMARK    1  A    between atoms: C_1  and  C_2
REMARK    2  A    between atoms: C_13  and  C_14
REMARK    3  A    between atoms: C_15  and  C_16
REMARK    4  A    between atoms: C_16  and  C_17
REMARK    5  A    between atoms: C_16  and  N_18
REMARK    6  A    between atoms: N_18  and  C_19
REMARK    7  A    between atoms: N_18  and  C_20
REMARK    8  A    between atoms: C_21  and  O_22
REMARK    9  A    between atoms: C_24  and  C_25
REMARK   10  A    between atoms: C_30  and  C_31
REMARK                            x       y       z     vdW  Elec       q    Type
REMARK                         _______ _______ _______ _____ _____    ______ ____
ROOT
ATOM      1  C   UNL     1      49.507 -10.089 -40.462  0.00  0.00    +0.011 C 
ATOM      2  C   UNL     1      48.960 -11.476 -40.352  0.00  0.00    +0.182 C 
ATOM      3  N   UNL     1      49.727 -12.495 -40.212  0.00  0.00    -0.251 NA
ATOM      4  C   UNL     1      49.109 -13.822 -40.134  0.00  0.00    +0.067 C 
ATOM      5  C   UNL     1      49.035 -14.392 -41.558  0.00  0.00    -0.011 C 
ATOM      6  C   UNL     1      48.209 -15.633 -41.637  0.00  0.00    -0.082 C 
ATOM      7  C   UNL     1      47.356 -16.058 -40.685  0.00  0.00    -0.069 C 
ATOM      8  C   UNL     1      46.823 -17.479 -40.835  0.00  0.00    -0.022 C 
ATOM      9  C   UNL     1      45.413 -17.838 -40.318  0.00  0.00    +0.025 C 
ATOM     10  C   UNL     1      45.038 -19.248 -40.809  0.00  0.00    +0.138 C 
ATOM     11  O   UNL     1      45.657 -19.807 -41.717  0.00  0.00    -0.297 OA
ATOM     12  C   UNL     1      43.818 -19.949 -40.224  0.00  0.00    +0.012 C 
ATOM     13  C   UNL     1      43.290 -19.315 -38.934  0.00  0.00    -0.013 C 
ATOM     14  C   UNL     1      42.335 -18.162 -39.325  0.00  0.00    -0.058 C 
ATOM     15  C   UNL     1      42.582 -20.308 -37.932  0.00  0.00    +0.007 C 
ATOM     16  C   UNL     1      42.795 -19.613 -36.541  0.00  0.00    +0.061 C 
ATOM     17  C   UNL     1      43.867 -18.523 -36.727  0.00  0.00    -0.020 C 
ATOM     18  C   UNL     1      44.531 -18.840 -38.078  0.00  0.00    -0.020 C 
ATOM     19  C   UNL     1      45.577 -19.981 -37.790  0.00  0.00    -0.059 C 
ATOM     20  C   UNL     1      45.347 -17.694 -38.771  0.00  0.00    -0.025 C 
ATOM     21  C   UNL     1      44.948 -16.272 -38.346  0.00  0.00    -0.048 C 
ATOM     22  C   UNL     1      45.551 -15.122 -39.155  0.00  0.00    -0.046 C 
ATOM     23  C   UNL     1      47.071 -15.226 -39.432  0.00  0.00    -0.009 C 
ATOM     24  C   UNL     1      47.737 -13.783 -39.440  0.00  0.00    +0.031 C 
ATOM     25  C   UNL     1      47.919 -13.331 -37.965  0.00  0.00    -0.054 C 
ATOM     26  C   UNL     1      46.912 -12.732 -40.201  0.00  0.00    +0.099 C 
ATOM     27  O   UNL     1      47.609 -11.485 -40.370  0.00  0.00    -0.479 OA
ENDROOT
BRANCH  15  28
ATOM     28  C   UNL     1      41.147 -20.922 -38.086  0.00  0.00    +0.013 C 
ATOM     29  C   UNL     1      40.925 -21.978 -39.178  0.00  0.00    -0.049 C 
BRANCH  28  30
ATOM     30  N   UNL     1      40.442 -21.368 -36.859  0.00  0.00    -0.305 N 
ATOM     31  C   UNL     1      39.000 -21.208 -36.811  0.00  0.00    -0.013 C 
ATOM     32  C   UNL     1      40.836 -22.700 -36.407  0.00  0.00    -0.013 C 
ATOM     33  H   UNL     1      40.785 -20.678 -36.192  0.00  0.00    +0.000 HD
ENDBRANCH  28  30
ENDBRANCH  15  28
BRANCH  16  34
ATOM     34  O   UNL     1      41.617 -19.017 -36.025  0.00  0.00    -0.391 OA
ATOM     35  H   UNL     1      41.816 -18.117 -35.723  0.00  0.00    +0.000 HD
ENDBRANCH  16  34
TORSDOF 3
ENDMDL
MODEL 20
REMARK VINA RESULT:    -5.877     22.661     25.657
REMARK INTER + INTRA:          -7.331
REMARK INTER:                  -6.925
REMARK INTRA:                  -0.406
REMARK UNBOUND:                -0.595
REMARK  Name = cpd244.pdb
REMARK  10 active torsions:
REMARK  status: ('A' for Active; 'I' for Inactive)
REMARK    1  A    between atoms: C_1  and  C_2
REMARK    2  A    between atoms: C_13  and  C_14
REMARK    3  A    between atoms: C_15  and  C_16
REMARK    4  A    between atoms: C_16  and  C_17
REMARK    5  A    between atoms: C_16  and  N_18
REMARK    6  A    between atoms: N_18  and  C_19
REMARK    7  A    between atoms: N_18  and  C_20
REMARK    8  A    between atoms: C_21  and  O_22
REMARK    9  A    between atoms: C_24  and  C_25
REMARK   10  A    between atoms: C_30  and  C_31
REMARK                            x       y       z     vdW  Elec       q    Type
REMARK                         _______ _______ _______ _____ _____    ______ ____
ROOT
ATOM      1  C   UNL     1      25.156 -29.238 -33.276  0.00  0.00    +0.011 C 
ATOM      2  C   UNL     1      26.372 -29.850 -32.659  0.00  0.00    +0.182 C 
ATOM      3  N   UNL     1      26.740 -29.564 -31.464  0.00  0.00    -0.251 NA
ATOM      4  C   UNL     1      27.958 -30.193 -30.945  0.00  0.00    +0.067 C 
ATOM      5  C   UNL     1      29.140 -29.265 -31.259  0.00  0.00    -0.011 C 
ATOM      6  C   UNL     1      30.461 -29.907 -30.993  0.00  0.00    -0.082 C 
ATOM      7  C   UNL     1      30.658 -31.228 -30.812  0.00  0.00    -0.069 C 
ATOM      8  C   UNL     1      32.026 -31.644 -30.282  0.00  0.00    -0.022 C 
ATOM      9  C   UNL     1      32.630 -33.008 -30.680  0.00  0.00    +0.025 C 
ATOM     10  C   UNL     1      34.097 -33.068 -30.213  0.00  0.00    +0.138 C 
ATOM     11  O   UNL     1      34.715 -32.055 -29.879  0.00  0.00    -0.297 OA
ATOM     12  C   UNL     1      34.843 -34.396 -30.242  0.00  0.00    +0.012 C 
ATOM     13  C   UNL     1      33.936 -35.620 -30.398  0.00  0.00    -0.013 C 
ATOM     14  C   UNL     1      33.674 -35.831 -31.908  0.00  0.00    -0.058 C 
ATOM     15  C   UNL     1      34.472 -36.949 -29.735  0.00  0.00    +0.007 C 
ATOM     16  C   UNL     1      33.155 -37.745 -29.432  0.00  0.00    +0.061 C 
ATOM     17  C   UNL     1      31.977 -36.762 -29.568  0.00  0.00    -0.020 C 
ATOM     18  C   UNL     1      32.619 -35.364 -29.562  0.00  0.00    -0.020 C 
ATOM     19  C   UNL     1      32.886 -35.015 -28.051  0.00  0.00    -0.059 C 
ATOM     20  C   UNL     1      31.766 -34.172 -30.118  0.00  0.00    -0.025 C 
ATOM     21  C   UNL     1      30.652 -34.579 -31.097  0.00  0.00    -0.048 C 
ATOM     22  C   UNL     1      29.944 -33.443 -31.839  0.00  0.00    -0.046 C 
ATOM     23  C   UNL     1      29.519 -32.238 -30.965  0.00  0.00    -0.009 C 
ATOM     24  C   UNL     1      28.158 -31.615 -31.498  0.00  0.00    +0.031 C 
ATOM     25  C   UNL     1      26.993 -32.523 -31.018  0.00  0.00    -0.054 C 
ATOM     26  C   UNL     1      28.105 -31.479 -33.029  0.00  0.00    +0.099 C 
ATOM     27  O   UNL     1      26.961 -30.739 -33.489  0.00  0.00    -0.479 OA
ENDROOT
BRANCH  15  28
ATOM     28  C   UNL     1      35.619 -37.867 -30.285  0.00  0.00    +0.013 C 
ATOM     29  C   UNL     1      37.030 -37.273 -30.397  0.00  0.00    -0.049 C 
BRANCH  28  30
ATOM     30  N   UNL     1      35.736 -39.241 -29.739  0.00  0.00    -0.305 N 
ATOM     31  C   UNL     1      35.682 -40.348 -30.677  0.00  0.00    -0.013 C 
ATOM     32  C   UNL     1      36.840 -39.407 -28.797  0.00  0.00    -0.013 C 
ATOM     33  H   UNL     1      34.855 -39.311 -29.231  0.00  0.00    +0.000 HD
ENDBRANCH  28  30
ENDBRANCH  15  28
BRANCH  16  34
ATOM     34  O   UNL     1      32.945 -38.839 -30.309  0.00  0.00    -0.391 OA
ATOM     35  H   UNL     1      32.276 -38.599 -30.971  0.00  0.00    +0.000 HD
ENDBRANCH  16  34
TORSDOF 3
ENDMDL
