REMARK  Name = cpd244.pdb
REMARK  10 active torsions:
REMARK  status: ('A' for Active; 'I' for Inactive)
REMARK    1  A    between atoms: C_1  and  C_2
REMARK    2  A    between atoms: C_13  and  C_14
REMARK    3  A    between atoms: C_15  and  C_16
REMARK    4  A    between atoms: C_16  and  C_17
REMARK    5  A    between atoms: C_16  and  N_18
REMARK    6  A    between atoms: N_18  and  C_19
REMARK    7  A    between atoms: N_18  and  C_20
REMARK    8  A    between atoms: C_21  and  O_22
REMARK    9  A    between atoms: C_24  and  C_25
REMARK   10  A    between atoms: C_30  and  C_31
REMARK                            x       y       z     vdW  Elec       q    Type
REMARK                         _______ _______ _______ _____ _____    ______ ____
ROOT
ATOM      1  C   UNL     1       3.959   0.948  -1.383  0.00  0.00    +0.011 C 
ATOM      2  C   UNL     1       2.767   0.140  -0.981  0.00  0.00    +0.182 C 
ATOM      3  N   UNL     1       2.725  -0.492   0.135  0.00  0.00    -0.251 NA
ATOM      4  C   UNL     1       1.526  -1.278   0.441  0.00  0.00    +0.067 C 
ATOM      5  C   UNL     1       1.756  -2.708  -0.069  0.00  0.00    -0.011 C 
ATOM      6  C   UNL     1       0.516  -3.538  -0.030  0.00  0.00    -0.082 C 
ATOM      7  C   UNL     1      -0.734  -3.057   0.116  0.00  0.00    -0.069 C 
ATOM      8  C   UNL     1      -1.826  -4.081   0.407  0.00  0.00    -0.022 C 
ATOM      9  C   UNL     1      -3.269  -3.838  -0.087  0.00  0.00    +0.025 C 
ATOM     10  C   UNL     1      -4.098  -5.118   0.125  0.00  0.00    +0.138 C 
ATOM     11  O   UNL     1      -3.567  -6.208   0.350  0.00  0.00    -0.297 OA
ATOM     12  C   UNL     1      -5.613  -5.068  -0.029  0.00  0.00    +0.012 C 
ATOM     13  C   UNL     1      -6.196  -3.652  -0.029  0.00  0.00    -0.013 C 
ATOM     14  C   UNL     1      -6.115  -3.102  -1.473  0.00  0.00    -0.058 C 
ATOM     15  C   UNL     1      -7.665  -3.524   0.534  0.00  0.00    +0.007 C 
ATOM     16  C   UNL     1      -7.713  -2.045   1.056  0.00  0.00    +0.061 C 
ATOM     17  C   UNL     1      -6.263  -1.529   1.121  0.00  0.00    -0.020 C 
ATOM     18  C   UNL     1      -5.385  -2.788   1.018  0.00  0.00    -0.020 C 
ATOM     19  C   UNL     1      -5.349  -3.412   2.462  0.00  0.00    -0.059 C 
ATOM     20  C   UNL     1      -3.882  -2.593   0.613  0.00  0.00    -0.025 C 
ATOM     21  C   UNL     1      -3.588  -1.299  -0.163  0.00  0.00    -0.048 C 
ATOM     22  C   UNL     1      -2.191  -1.171  -0.775  0.00  0.00    -0.046 C 
ATOM     23  C   UNL     1      -1.016  -1.553   0.158  0.00  0.00    -0.009 C 
ATOM     24  C   UNL     1       0.251  -0.641  -0.138  0.00  0.00    +0.031 C 
ATOM     25  C   UNL     1       0.015   0.740   0.533  0.00  0.00    -0.054 C 
ATOM     26  C   UNL     1       0.526  -0.443  -1.638  0.00  0.00    +0.099 C 
ATOM     27  O   UNL     1       1.778   0.216  -1.898  0.00  0.00    -0.479 OA
ENDROOT
BRANCH  15  28
ATOM     28  C   UNL     1      -8.985  -3.947  -0.201  0.00  0.00    +0.013 C 
ATOM     29  C   UNL     1      -9.174  -3.505  -1.659  0.00  0.00    -0.049 C 
BRANCH  28  30
ATOM     30  N   UNL     1      -9.431  -5.356  -0.081  0.00  0.00    -0.305 N 
ATOM     31  C   UNL     1      -8.587  -6.385  -0.661  0.00  0.00    -0.013 C 
ATOM     32  C   UNL     1      -9.854  -5.725   1.268  0.00  0.00    -0.013 C 
ATOM     33  H   UNL     1     -10.248  -5.341  -0.691  0.00  0.00    +0.000 HD
ENDBRANCH  28  30
ENDBRANCH  15  28
BRANCH  16  34
ATOM     34  O   UNL     1      -8.472  -1.181   0.227  0.00  0.00    -0.391 OA
ATOM     35  H   UNL     1      -8.073  -1.148  -0.657  0.00  0.00    +0.000 HD
ENDBRANCH  16  34
TORSDOF 3
