MODEL 1
REMARK VINA RESULT:    -6.567      0.000      0.000
REMARK INTER + INTRA:         -12.539
REMARK INTER:                 -10.598
REMARK INTRA:                  -1.941
REMARK UNBOUND:                -1.941
REMARK  Name = cpd287.pdb
REMARK  15 active torsions:
REMARK  status: ('A' for Active; 'I' for Inactive)
REMARK    1  A    between atoms: C_1  and  C_2
REMARK    2  A    between atoms: C_2  and  C_3
REMARK    3  A    between atoms: C_2  and  C_20
REMARK    4  A    between atoms: C_3  and  C_4
REMARK    5  A    between atoms: C_4  and  C_5
REMARK    6  A    between atoms: C_6  and  C_7
REMARK    7  A    between atoms: C_7  and  O_8
REMARK    8  A    between atoms: C_12  and  C_13
REMARK    9  A    between atoms: C_12  and  C_14
REMARK   10  A    between atoms: C_18  and  C_19
REMARK   11  A    between atoms: C_20  and  C_21
REMARK   12  A    between atoms: C_21  and  O_23
REMARK   13  A    between atoms: O_23  and  C_24
REMARK   14  A    between atoms: C_24  and  C_25
REMARK   15  A    between atoms: C_25  and  N_26
REMARK                            x       y       z     vdW  Elec       q    Type
REMARK                         _______ _______ _______ _____ _____    ______ ____
ROOT
ATOM      1  C   UNL     1      44.402 -19.285 -37.058  0.00  0.00    -0.046 C 
ENDROOT
BRANCH   1   2
ATOM      2  C   UNL     1      44.167 -20.528 -37.982  0.00  0.00    -0.012 C 
ATOM      3  C   UNL     1      42.701 -20.653 -38.426  0.00  0.00    -0.045 C 
ATOM      4  C   UNL     1      42.387 -20.992 -39.688  0.00  0.00    -0.082 C 
ATOM      5  C   UNL     1      43.364 -21.315 -40.763  0.00  0.00    -0.031 C 
ATOM      6  C   UNL     1      44.798 -21.627 -40.272  0.00  0.00    -0.027 C 
ATOM      7  C   UNL     1      45.820 -21.774 -41.480  0.00  0.00    -0.031 C 
ATOM      8  C   UNL     1      46.808 -22.935 -41.204  0.00  0.00    -0.060 C 
ATOM      9  C   UNL     1      45.126 -22.159 -42.813  0.00  0.00    -0.060 C 
ATOM     10  C   UNL     1      46.627 -20.471 -41.721  0.00  0.00    -0.048 C 
ATOM     11  C   UNL     1      45.868 -19.213 -41.322  0.00  0.00    -0.052 C 
ATOM     12  C   UNL     1      45.410 -19.189 -39.859  0.00  0.00    -0.047 C 
ATOM     13  C   UNL     1      45.230 -20.580 -39.182  0.00  0.00    -0.022 C 
ATOM     14  C   UNL     1      46.574 -21.003 -38.523  0.00  0.00    -0.059 C 
BRANCH   3  15
ATOM     15  C   UNL     1      41.628 -20.474 -37.368  0.00  0.00    +0.066 C 
BRANCH  15  16
ATOM     16  O   UNL     1      41.525 -21.596 -36.499  0.00  0.00    -0.391 OA
ATOM     17  H   UNL     1      42.403 -21.987 -36.372  0.00  0.00    +0.000 HD
ENDBRANCH  15  16
ENDBRANCH   3  15
ENDBRANCH   1   2
BRANCH   1  18
ATOM     18  C   UNL     1      44.864 -19.617 -35.625  0.00  0.00    -0.049 C 
BRANCH  18  20
ATOM     19  C   UNL     1      46.944 -18.208 -36.053  0.00  0.00    -0.062 C 
ATOM     20  C   UNL     1      45.893 -18.634 -35.024  0.00  0.00    -0.034 C 
BRANCH  20  21
ATOM     21  C   UNL     1      45.204 -17.405 -34.393  0.00  0.00    +0.048 C 
BRANCH  21  22
ATOM     22  C   UNL     1      44.612 -17.662 -33.023  0.00  0.00    +0.307 C 
ATOM     23  O   UNL     1      45.336 -17.858 -32.050  0.00  0.00    -0.251 OA
BRANCH  22  24
ATOM     24  O   UNL     1      43.269 -17.734 -32.891  0.00  0.00    -0.463 OA
BRANCH  24  25
ATOM     25  C   UNL     1      42.528 -18.960 -32.714  0.00  0.00    +0.105 C 
BRANCH  25  26
ATOM     26  C   UNL     1      41.534 -19.153 -33.869  0.00  0.00    +0.033 C 
BRANCH  26  27
ATOM     27  N   UNL     1      40.850 -20.456 -33.846  0.00  0.00    -0.295 N 
ATOM     28  C   UNL     1      39.377 -20.318 -33.827  0.00  0.00    +0.023 C 
ATOM     29  C   UNL     1      38.684 -21.685 -33.709  0.00  0.00    +0.060 C 
ATOM     30  O   UNL     1      39.108 -22.381 -32.530  0.00  0.00    -0.377 OA
ATOM     31  C   UNL     1      40.528 -22.573 -32.562  0.00  0.00    +0.060 C 
ATOM     32  C   UNL     1      41.265 -21.227 -32.650  0.00  0.00    +0.023 C 
ATOM     33  H   UNL     1      41.118 -20.944 -34.701  0.00  0.00    +0.000 HD
ENDBRANCH  26  27
ENDBRANCH  25  26
ENDBRANCH  24  25
ENDBRANCH  22  24
ENDBRANCH  21  22
ENDBRANCH  20  21
ENDBRANCH  18  20
ENDBRANCH   1  18
TORSDOF 11
ENDMDL
MODEL 2
REMARK VINA RESULT:    -6.406      1.293      1.804
REMARK INTER + INTRA:         -12.278
REMARK INTER:                 -10.250
REMARK INTRA:                  -2.028
REMARK UNBOUND:                -1.941
REMARK  Name = cpd287.pdb
REMARK  15 active torsions:
REMARK  status: ('A' for Active; 'I' for Inactive)
REMARK    1  A    between atoms: C_1  and  C_2
REMARK    2  A    between atoms: C_2  and  C_3
REMARK    3  A    between atoms: C_2  and  C_20
REMARK    4  A    between atoms: C_3  and  C_4
REMARK    5  A    between atoms: C_4  and  C_5
REMARK    6  A    between atoms: C_6  and  C_7
REMARK    7  A    between atoms: C_7  and  O_8
REMARK    8  A    between atoms: C_12  and  C_13
REMARK    9  A    between atoms: C_12  and  C_14
REMARK   10  A    between atoms: C_18  and  C_19
REMARK   11  A    between atoms: C_20  and  C_21
REMARK   12  A    between atoms: C_21  and  O_23
REMARK   13  A    between atoms: O_23  and  C_24
REMARK   14  A    between atoms: C_24  and  C_25
REMARK   15  A    between atoms: C_25  and  N_26
REMARK                            x       y       z     vdW  Elec       q    Type
REMARK                         _______ _______ _______ _____ _____    ______ ____
ROOT
ATOM      1  C   UNL     1      43.315 -19.753 -36.475  0.00  0.00    -0.046 C 
ENDROOT
BRANCH   1   2
ATOM      2  C   UNL     1      43.457 -20.888 -37.546  0.00  0.00    -0.012 C 
ATOM      3  C   UNL     1      42.100 -21.511 -37.915  0.00  0.00    -0.045 C 
ATOM      4  C   UNL     1      41.800 -21.809 -39.190  0.00  0.00    -0.082 C 
ATOM      5  C   UNL     1      42.707 -21.623 -40.356  0.00  0.00    -0.031 C 
ATOM      6  C   UNL     1      44.199 -21.419 -39.998  0.00  0.00    -0.027 C 
ATOM      7  C   UNL     1      45.069 -21.041 -41.274  0.00  0.00    -0.031 C 
ATOM      8  C   UNL     1      46.438 -21.764 -41.219  0.00  0.00    -0.060 C 
ATOM      9  C   UNL     1      44.427 -21.517 -42.604  0.00  0.00    -0.060 C 
ATOM     10  C   UNL     1      45.310 -19.512 -41.380  0.00  0.00    -0.048 C 
ATOM     11  C   UNL     1      44.189 -18.683 -40.768  0.00  0.00    -0.052 C 
ATOM     12  C   UNL     1      43.913 -18.989 -39.290  0.00  0.00    -0.047 C 
ATOM     13  C   UNL     1      44.330 -20.407 -38.802  0.00  0.00    -0.022 C 
ATOM     14  C   UNL     1      45.797 -20.359 -38.288  0.00  0.00    -0.059 C 
BRANCH   3  15
ATOM     15  C   UNL     1      41.156 -21.863 -36.781  0.00  0.00    +0.066 C 
BRANCH  15  16
ATOM     16  O   UNL     1      41.456 -23.123 -36.192  0.00  0.00    -0.391 OA
ATOM     17  H   UNL     1      42.263 -23.483 -36.593  0.00  0.00    +0.000 HD
ENDBRANCH  15  16
ENDBRANCH   3  15
ENDBRANCH   1   2
BRANCH   1  18
ATOM     18  C   UNL     1      43.998 -20.045 -35.123  0.00  0.00    -0.049 C 
BRANCH  18  20
ATOM     19  C   UNL     1      45.810 -18.335 -34.587  0.00  0.00    -0.062 C 
ATOM     20  C   UNL     1      44.378 -18.796 -34.298  0.00  0.00    -0.034 C 
BRANCH  20  21
ATOM     21  C   UNL     1      43.371 -17.645 -34.512  0.00  0.00    +0.048 C 
BRANCH  21  22
ATOM     22  C   UNL     1      42.274 -17.581 -33.472  0.00  0.00    +0.307 C 
ATOM     23  O   UNL     1      42.536 -17.375 -32.290  0.00  0.00    -0.251 OA
BRANCH  22  24
ATOM     24  O   UNL     1      40.997 -17.815 -33.849  0.00  0.00    -0.463 OA
BRANCH  24  25
ATOM     25  C   UNL     1      40.450 -19.122 -34.124  0.00  0.00    +0.105 C 
BRANCH  25  26
ATOM     26  C   UNL     1      39.561 -19.582 -32.959  0.00  0.00    +0.033 C 
BRANCH  26  27
ATOM     27  N   UNL     1      39.603 -21.034 -32.724  0.00  0.00    -0.295 N 
ATOM     28  C   UNL     1      40.987 -21.554 -32.656  0.00  0.00    +0.023 C 
ATOM     29  C   UNL     1      41.008 -23.084 -32.504  0.00  0.00    +0.060 C 
ATOM     30  O   UNL     1      40.317 -23.721 -33.586  0.00  0.00    -0.377 OA
ATOM     31  C   UNL     1      38.958 -23.270 -33.629  0.00  0.00    +0.060 C 
ATOM     32  C   UNL     1      38.887 -21.746 -33.810  0.00  0.00    +0.023 C 
ATOM     33  H   UNL     1      39.151 -21.201 -31.824  0.00  0.00    +0.000 HD
ENDBRANCH  26  27
ENDBRANCH  25  26
ENDBRANCH  24  25
ENDBRANCH  22  24
ENDBRANCH  21  22
ENDBRANCH  20  21
ENDBRANCH  18  20
ENDBRANCH   1  18
TORSDOF 11
ENDMDL
MODEL 3
REMARK VINA RESULT:    -6.348     16.414     19.408
REMARK INTER + INTRA:         -12.186
REMARK INTER:                 -11.090
REMARK INTRA:                  -1.096
REMARK UNBOUND:                -1.941
REMARK  Name = cpd287.pdb
REMARK  15 active torsions:
REMARK  status: ('A' for Active; 'I' for Inactive)
REMARK    1  A    between atoms: C_1  and  C_2
REMARK    2  A    between atoms: C_2  and  C_3
REMARK    3  A    between atoms: C_2  and  C_20
REMARK    4  A    between atoms: C_3  and  C_4
REMARK    5  A    between atoms: C_4  and  C_5
REMARK    6  A    between atoms: C_6  and  C_7
REMARK    7  A    between atoms: C_7  and  O_8
REMARK    8  A    between atoms: C_12  and  C_13
REMARK    9  A    between atoms: C_12  and  C_14
REMARK   10  A    between atoms: C_18  and  C_19
REMARK   11  A    between atoms: C_20  and  C_21
REMARK   12  A    between atoms: C_21  and  O_23
REMARK   13  A    between atoms: O_23  and  C_24
REMARK   14  A    between atoms: C_24  and  C_25
REMARK   15  A    between atoms: C_25  and  N_26
REMARK                            x       y       z     vdW  Elec       q    Type
REMARK                         _______ _______ _______ _____ _____    ______ ____
ROOT
ATOM      1  C   UNL     1      35.589 -34.470 -30.692  0.00  0.00    -0.046 C 
ENDROOT
BRANCH   1   2
ATOM      2  C   UNL     1      36.378 -35.797 -30.958  0.00  0.00    -0.012 C 
ATOM      3  C   UNL     1      37.896 -35.566 -31.030  0.00  0.00    -0.045 C 
ATOM      4  C   UNL     1      38.755 -36.423 -30.453  0.00  0.00    -0.082 C 
ATOM      5  C   UNL     1      38.377 -37.670 -29.735  0.00  0.00    -0.031 C 
ATOM      6  C   UNL     1      36.936 -38.169 -30.004  0.00  0.00    -0.027 C 
ATOM      7  C   UNL     1      36.546 -39.389 -29.063  0.00  0.00    -0.031 C 
ATOM      8  C   UNL     1      35.728 -40.436 -29.860  0.00  0.00    -0.060 C 
ATOM      9  C   UNL     1      37.782 -40.170 -28.544  0.00  0.00    -0.060 C 
ATOM     10  C   UNL     1      35.719 -38.932 -27.833  0.00  0.00    -0.048 C 
ATOM     11  C   UNL     1      36.035 -37.510 -27.390  0.00  0.00    -0.052 C 
ATOM     12  C   UNL     1      35.834 -36.451 -28.482  0.00  0.00    -0.047 C 
ATOM     13  C   UNL     1      35.932 -36.961 -29.949  0.00  0.00    -0.022 C 
ATOM     14  C   UNL     1      34.521 -37.404 -30.430  0.00  0.00    -0.059 C 
BRANCH   3  15
ATOM     15  C   UNL     1      38.390 -34.392 -31.856  0.00  0.00    +0.066 C 
BRANCH  15  16
ATOM     16  O   UNL     1      39.602 -34.679 -32.543  0.00  0.00    -0.391 OA
ATOM     17  H   UNL     1      39.399 -35.002 -33.435  0.00  0.00    +0.000 HD
ENDBRANCH  15  16
ENDBRANCH   3  15
ENDBRANCH   1   2
BRANCH   1  18
ATOM     18  C   UNL     1      34.401 -34.218 -31.642  0.00  0.00    -0.049 C 
BRANCH  18  20
ATOM     19  C   UNL     1      33.209 -33.827 -29.424  0.00  0.00    -0.062 C 
ATOM     20  C   UNL     1      33.088 -33.788 -30.950  0.00  0.00    -0.034 C 
BRANCH  20  21
ATOM     21  C   UNL     1      32.618 -32.400 -31.435  0.00  0.00    +0.048 C 
BRANCH  21  22
ATOM     22  C   UNL     1      31.115 -32.221 -31.438  0.00  0.00    +0.307 C 
ATOM     23  O   UNL     1      30.364 -33.192 -31.374  0.00  0.00    -0.251 OA
BRANCH  22  24
ATOM     24  O   UNL     1      30.601 -30.978 -31.575  0.00  0.00    -0.463 OA
BRANCH  24  25
ATOM     25  C   UNL     1      30.785 -29.907 -30.626  0.00  0.00    +0.105 C 
BRANCH  25  26
ATOM     26  C   UNL     1      30.252 -30.321 -29.246  0.00  0.00    +0.033 C 
BRANCH  26  27
ATOM     27  N   UNL     1      29.446 -29.279 -28.589  0.00  0.00    -0.295 N 
ATOM     28  C   UNL     1      28.398 -29.848 -27.713  0.00  0.00    +0.023 C 
ATOM     29  C   UNL     1      27.508 -28.748 -27.111  0.00  0.00    +0.060 C 
ATOM     30  O   UNL     1      26.890 -27.961 -28.137  0.00  0.00    -0.377 OA
ATOM     31  C   UNL     1      27.896 -27.357 -28.960  0.00  0.00    +0.060 C 
ATOM     32  C   UNL     1      28.793 -28.424 -29.608  0.00  0.00    +0.023 C 
ATOM     33  H   UNL     1      30.085 -28.732 -28.014  0.00  0.00    +0.000 HD
ENDBRANCH  26  27
ENDBRANCH  25  26
ENDBRANCH  24  25
ENDBRANCH  22  24
ENDBRANCH  21  22
ENDBRANCH  20  21
ENDBRANCH  18  20
ENDBRANCH   1  18
TORSDOF 11
ENDMDL
MODEL 4
REMARK VINA RESULT:    -6.301     16.636     20.082
REMARK INTER + INTRA:         -12.110
REMARK INTER:                 -10.952
REMARK INTRA:                  -1.158
REMARK UNBOUND:                -1.941
REMARK  Name = cpd287.pdb
REMARK  15 active torsions:
REMARK  status: ('A' for Active; 'I' for Inactive)
REMARK    1  A    between atoms: C_1  and  C_2
REMARK    2  A    between atoms: C_2  and  C_3
REMARK    3  A    between atoms: C_2  and  C_20
REMARK    4  A    between atoms: C_3  and  C_4
REMARK    5  A    between atoms: C_4  and  C_5
REMARK    6  A    between atoms: C_6  and  C_7
REMARK    7  A    between atoms: C_7  and  O_8
REMARK    8  A    between atoms: C_12  and  C_13
REMARK    9  A    between atoms: C_12  and  C_14
REMARK   10  A    between atoms: C_18  and  C_19
REMARK   11  A    between atoms: C_20  and  C_21
REMARK   12  A    between atoms: C_21  and  O_23
REMARK   13  A    between atoms: O_23  and  C_24
REMARK   14  A    between atoms: C_24  and  C_25
REMARK   15  A    between atoms: C_25  and  N_26
REMARK                            x       y       z     vdW  Elec       q    Type
REMARK                         _______ _______ _______ _____ _____    ______ ____
ROOT
ATOM      1  C   UNL     1      34.392 -36.155 -31.572  0.00  0.00    -0.046 C 
ENDROOT
BRANCH   1   2
ATOM      2  C   UNL     1      34.394 -34.933 -30.591  0.00  0.00    -0.012 C 
ATOM      3  C   UNL     1      35.478 -33.903 -30.948  0.00  0.00    -0.045 C 
ATOM      4  C   UNL     1      35.224 -32.585 -30.896  0.00  0.00    -0.082 C 
ATOM      5  C   UNL     1      33.937 -31.971 -30.470  0.00  0.00    -0.031 C 
ATOM      6  C   UNL     1      32.983 -32.917 -29.701  0.00  0.00    -0.027 C 
ATOM      7  C   UNL     1      31.562 -32.250 -29.448  0.00  0.00    -0.031 C 
ATOM      8  C   UNL     1      31.052 -32.606 -28.030  0.00  0.00    -0.060 C 
ATOM      9  C   UNL     1      31.612 -30.700 -29.470  0.00  0.00    -0.060 C 
ATOM     10  C   UNL     1      30.512 -32.709 -30.493  0.00  0.00    -0.048 C 
ATOM     11  C   UNL     1      31.121 -33.062 -31.843  0.00  0.00    -0.052 C 
ATOM     12  C   UNL     1      32.196 -34.155 -31.782  0.00  0.00    -0.047 C 
ATOM     13  C   UNL     1      32.924 -34.316 -30.416  0.00  0.00    -0.022 C 
ATOM     14  C   UNL     1      32.148 -35.342 -29.542  0.00  0.00    -0.059 C 
BRANCH   3  15
ATOM     15  C   UNL     1      36.867 -34.425 -31.267  0.00  0.00    +0.066 C 
BRANCH  15  16
ATOM     16  O   UNL     1      37.724 -33.416 -31.787  0.00  0.00    -0.391 OA
ATOM     17  H   UNL     1      38.645 -33.715 -31.732  0.00  0.00    +0.000 HD
ENDBRANCH  15  16
ENDBRANCH   3  15
ENDBRANCH   1   2
BRANCH   1  18
ATOM     18  C   UNL     1      35.370 -37.288 -31.202  0.00  0.00    -0.049 C 
BRANCH  18  20
ATOM     19  C   UNL     1      33.450 -38.776 -30.431  0.00  0.00    -0.062 C 
ATOM     20  C   UNL     1      34.860 -38.266 -30.120  0.00  0.00    -0.034 C 
BRANCH  20  21
ATOM     21  C   UNL     1      35.840 -39.440 -29.907  0.00  0.00    +0.048 C 
BRANCH  21  22
ATOM     22  C   UNL     1      36.326 -39.591 -28.482  0.00  0.00    +0.307 C 
ATOM     23  O   UNL     1      35.589 -40.041 -27.608  0.00  0.00    -0.251 OA
BRANCH  22  24
ATOM     24  O   UNL     1      37.569 -39.165 -28.163  0.00  0.00    -0.463 OA
BRANCH  24  25
ATOM     25  C   UNL     1      38.262 -38.088 -28.828  0.00  0.00    +0.105 C 
BRANCH  25  26
ATOM     26  C   UNL     1      39.779 -38.234 -28.639  0.00  0.00    +0.033 C 
BRANCH  26  27
ATOM     27  N   UNL     1      40.571 -37.517 -29.652  0.00  0.00    -0.295 N 
ATOM     28  C   UNL     1      39.731 -36.983 -30.747  0.00  0.00    +0.023 C 
ATOM     29  C   UNL     1      40.585 -36.320 -31.840  0.00  0.00    +0.060 C 
ATOM     30  O   UNL     1      41.539 -37.242 -32.383  0.00  0.00    -0.377 OA
ATOM     31  C   UNL     1      42.397 -37.724 -31.341  0.00  0.00    +0.060 C 
ATOM     32  C   UNL     1      41.587 -38.422 -30.238  0.00  0.00    +0.023 C 
ATOM     33  H   UNL     1      41.017 -36.733 -29.176  0.00  0.00    +0.000 HD
ENDBRANCH  26  27
ENDBRANCH  25  26
ENDBRANCH  24  25
ENDBRANCH  22  24
ENDBRANCH  21  22
ENDBRANCH  20  21
ENDBRANCH  18  20
ENDBRANCH   1  18
TORSDOF 11
ENDMDL
MODEL 5
REMARK VINA RESULT:    -6.171      2.093      4.714
REMARK INTER + INTRA:         -11.900
REMARK INTER:                 -10.157
REMARK INTRA:                  -1.742
REMARK UNBOUND:                -1.941
REMARK  Name = cpd287.pdb
REMARK  15 active torsions:
REMARK  status: ('A' for Active; 'I' for Inactive)
REMARK    1  A    between atoms: C_1  and  C_2
REMARK    2  A    between atoms: C_2  and  C_3
REMARK    3  A    between atoms: C_2  and  C_20
REMARK    4  A    between atoms: C_3  and  C_4
REMARK    5  A    between atoms: C_4  and  C_5
REMARK    6  A    between atoms: C_6  and  C_7
REMARK    7  A    between atoms: C_7  and  O_8
REMARK    8  A    between atoms: C_12  and  C_13
REMARK    9  A    between atoms: C_12  and  C_14
REMARK   10  A    between atoms: C_18  and  C_19
REMARK   11  A    between atoms: C_20  and  C_21
REMARK   12  A    between atoms: C_21  and  O_23
REMARK   13  A    between atoms: O_23  and  C_24
REMARK   14  A    between atoms: C_24  and  C_25
REMARK   15  A    between atoms: C_25  and  N_26
REMARK                            x       y       z     vdW  Elec       q    Type
REMARK                         _______ _______ _______ _____ _____    ______ ____
ROOT
ATOM      1  C   UNL     1      42.366 -18.970 -38.513  0.00  0.00    -0.046 C 
ENDROOT
BRANCH   1   2
ATOM      2  C   UNL     1      43.169 -18.965 -39.858  0.00  0.00    -0.012 C 
ATOM      3  C   UNL     1      43.881 -17.625 -40.104  0.00  0.00    -0.045 C 
ATOM      4  C   UNL     1      45.132 -17.586 -40.593  0.00  0.00    -0.082 C 
ATOM      5  C   UNL     1      45.944 -18.772 -40.980  0.00  0.00    -0.031 C 
ATOM      6  C   UNL     1      45.142 -20.083 -41.164  0.00  0.00    -0.027 C 
ATOM      7  C   UNL     1      46.095 -21.335 -41.389  0.00  0.00    -0.031 C 
ATOM      8  C   UNL     1      45.493 -22.276 -42.462  0.00  0.00    -0.060 C 
ATOM      9  C   UNL     1      47.486 -20.941 -41.949  0.00  0.00    -0.060 C 
ATOM     10  C   UNL     1      46.317 -22.138 -40.080  0.00  0.00    -0.048 C 
ATOM     11  C   UNL     1      46.227 -21.280 -38.826  0.00  0.00    -0.052 C 
ATOM     12  C   UNL     1      44.898 -20.530 -38.669  0.00  0.00    -0.047 C 
ATOM     13  C   UNL     1      44.115 -20.253 -39.985  0.00  0.00    -0.022 C 
ATOM     14  C   UNL     1      43.155 -21.443 -40.268  0.00  0.00    -0.059 C 
BRANCH   3  15
ATOM     15  C   UNL     1      43.089 -16.352 -39.867  0.00  0.00    +0.066 C 
BRANCH  15  16
ATOM     16  O   UNL     1      43.923 -15.213 -39.699  0.00  0.00    -0.391 OA
ATOM     17  H   UNL     1      43.780 -14.597 -40.435  0.00  0.00    +0.000 HD
ENDBRANCH  15  16
ENDBRANCH   3  15
ENDBRANCH   1   2
BRANCH   1  18
ATOM     18  C   UNL     1      40.861 -19.274 -38.654  0.00  0.00    -0.049 C 
BRANCH  18  20
ATOM     19  C   UNL     1      39.637 -21.508 -38.747  0.00  0.00    -0.062 C 
ATOM     20  C   UNL     1      40.361 -20.497 -37.853  0.00  0.00    -0.034 C 
BRANCH  20  21
ATOM     21  C   UNL     1      41.509 -21.171 -37.070  0.00  0.00    +0.048 C 
BRANCH  21  22
ATOM     22  C   UNL     1      41.047 -22.065 -35.940  0.00  0.00    +0.307 C 
ATOM     23  O   UNL     1      40.870 -23.267 -36.118  0.00  0.00    -0.251 OA
BRANCH  22  24
ATOM     24  O   UNL     1      40.768 -21.512 -34.738  0.00  0.00    -0.463 OA
BRANCH  24  25
ATOM     25  C   UNL     1      41.156 -20.180 -34.339  0.00  0.00    +0.105 C 
BRANCH  25  26
ATOM     26  C   UNL     1      41.768 -20.204 -32.930  0.00  0.00    +0.033 C 
BRANCH  26  27
ATOM     27  N   UNL     1      43.165 -19.743 -32.886  0.00  0.00    -0.295 N 
ATOM     28  C   UNL     1      43.267 -18.275 -32.721  0.00  0.00    +0.023 C 
ATOM     29  C   UNL     1      44.729 -17.803 -32.772  0.00  0.00    +0.060 C 
ATOM     30  O   UNL     1      45.354 -18.184 -34.004  0.00  0.00    -0.377 OA
ATOM     31  C   UNL     1      45.313 -19.609 -34.151  0.00  0.00    +0.060 C 
ATOM     32  C   UNL     1      43.865 -20.124 -34.135  0.00  0.00    +0.023 C 
ATOM     33  H   UNL     1      43.597 -20.190 -32.078  0.00  0.00    +0.000 HD
ENDBRANCH  26  27
ENDBRANCH  25  26
ENDBRANCH  24  25
ENDBRANCH  22  24
ENDBRANCH  21  22
ENDBRANCH  20  21
ENDBRANCH  18  20
ENDBRANCH   1  18
TORSDOF 11
ENDMDL
MODEL 6
REMARK VINA RESULT:    -6.162      2.662      3.847
REMARK INTER + INTRA:         -11.885
REMARK INTER:                 -10.009
REMARK INTRA:                  -1.877
REMARK UNBOUND:                -1.941
REMARK  Name = cpd287.pdb
REMARK  15 active torsions:
REMARK  status: ('A' for Active; 'I' for Inactive)
REMARK    1  A    between atoms: C_1  and  C_2
REMARK    2  A    between atoms: C_2  and  C_3
REMARK    3  A    between atoms: C_2  and  C_20
REMARK    4  A    between atoms: C_3  and  C_4
REMARK    5  A    between atoms: C_4  and  C_5
REMARK    6  A    between atoms: C_6  and  C_7
REMARK    7  A    between atoms: C_7  and  O_8
REMARK    8  A    between atoms: C_12  and  C_13
REMARK    9  A    between atoms: C_12  and  C_14
REMARK   10  A    between atoms: C_18  and  C_19
REMARK   11  A    between atoms: C_20  and  C_21
REMARK   12  A    between atoms: C_21  and  O_23
REMARK   13  A    between atoms: O_23  and  C_24
REMARK   14  A    between atoms: C_24  and  C_25
REMARK   15  A    between atoms: C_25  and  N_26
REMARK                            x       y       z     vdW  Elec       q    Type
REMARK                         _______ _______ _______ _____ _____    ______ ____
ROOT
ATOM      1  C   UNL     1      41.926 -19.145 -38.027  0.00  0.00    -0.046 C 
ENDROOT
BRANCH   1   2
ATOM      2  C   UNL     1      42.340 -20.466 -38.761  0.00  0.00    -0.012 C 
ATOM      3  C   UNL     1      41.167 -21.094 -39.531  0.00  0.00    -0.045 C 
ATOM      4  C   UNL     1      41.345 -21.616 -40.756  0.00  0.00    -0.082 C 
ATOM      5  C   UNL     1      42.642 -21.688 -41.483  0.00  0.00    -0.031 C 
ATOM      6  C   UNL     1      43.898 -21.479 -40.603  0.00  0.00    -0.027 C 
ATOM      7  C   UNL     1      45.223 -21.382 -41.475  0.00  0.00    -0.031 C 
ATOM      8  C   UNL     1      46.380 -22.134 -40.771  0.00  0.00    -0.060 C 
ATOM      9  C   UNL     1      45.088 -22.075 -42.856  0.00  0.00    -0.060 C 
ATOM     10  C   UNL     1      45.652 -19.911 -41.719  0.00  0.00    -0.048 C 
ATOM     11  C   UNL     1      44.481 -18.939 -41.738  0.00  0.00    -0.052 C 
ATOM     12  C   UNL     1      43.631 -18.950 -40.461  0.00  0.00    -0.047 C 
ATOM     13  C   UNL     1      43.673 -20.265 -39.629  0.00  0.00    -0.022 C 
ATOM     14  C   UNL     1      44.830 -20.177 -38.593  0.00  0.00    -0.059 C 
BRANCH   3  15
ATOM     15  C   UNL     1      39.829 -21.189 -38.821  0.00  0.00    +0.066 C 
BRANCH  15  16
ATOM     16  O   UNL     1      39.462 -22.532 -38.527  0.00  0.00    -0.391 OA
ATOM     17  H   UNL     1      39.295 -23.010 -39.354  0.00  0.00    +0.000 HD
ENDBRANCH  15  16
ENDBRANCH   3  15
ENDBRANCH   1   2
BRANCH   1  18
ATOM     18  C   UNL     1      41.837 -19.253 -36.492  0.00  0.00    -0.049 C 
BRANCH  18  20
ATOM     19  C   UNL     1      43.939 -19.987 -35.250  0.00  0.00    -0.062 C 
ATOM     20  C   UNL     1      42.614 -20.437 -35.873  0.00  0.00    -0.034 C 
BRANCH  20  21
ATOM     21  C   UNL     1      41.753 -21.209 -34.849  0.00  0.00    +0.048 C 
BRANCH  21  22
ATOM     22  C   UNL     1      40.733 -22.137 -35.472  0.00  0.00    +0.307 C 
ATOM     23  O   UNL     1      41.086 -23.112 -36.130  0.00  0.00    -0.251 OA
BRANCH  22  24
ATOM     24  O   UNL     1      39.418 -21.846 -35.348  0.00  0.00    -0.463 OA
BRANCH  24  25
ATOM     25  C   UNL     1      38.879 -20.867 -34.436  0.00  0.00    +0.105 C 
BRANCH  25  26
ATOM     26  C   UNL     1      37.413 -21.193 -34.112  0.00  0.00    +0.033 C 
BRANCH  26  27
ATOM     27  N   UNL     1      36.523 -20.022 -34.167  0.00  0.00    -0.295 N 
ATOM     28  C   UNL     1      37.172 -18.851 -34.798  0.00  0.00    +0.023 C 
ATOM     29  C   UNL     1      36.261 -17.613 -34.761  0.00  0.00    +0.060 C 
ATOM     30  O   UNL     1      35.892 -17.281 -33.416  0.00  0.00    -0.377 OA
ATOM     31  C   UNL     1      35.210 -18.387 -32.811  0.00  0.00    +0.060 C 
ATOM     32  C   UNL     1      36.097 -19.642 -32.799  0.00  0.00    +0.023 C 
ATOM     33  H   UNL     1      35.719 -20.290 -34.734  0.00  0.00    +0.000 HD
ENDBRANCH  26  27
ENDBRANCH  25  26
ENDBRANCH  24  25
ENDBRANCH  22  24
ENDBRANCH  21  22
ENDBRANCH  20  21
ENDBRANCH  18  20
ENDBRANCH   1  18
TORSDOF 11
ENDMDL
MODEL 7
REMARK VINA RESULT:    -6.120     16.744     20.620
REMARK INTER + INTRA:         -11.817
REMARK INTER:                 -10.046
REMARK INTRA:                  -1.772
REMARK UNBOUND:                -1.941
REMARK  Name = cpd287.pdb
REMARK  15 active torsions:
REMARK  status: ('A' for Active; 'I' for Inactive)
REMARK    1  A    between atoms: C_1  and  C_2
REMARK    2  A    between atoms: C_2  and  C_3
REMARK    3  A    between atoms: C_2  and  C_20
REMARK    4  A    between atoms: C_3  and  C_4
REMARK    5  A    between atoms: C_4  and  C_5
REMARK    6  A    between atoms: C_6  and  C_7
REMARK    7  A    between atoms: C_7  and  O_8
REMARK    8  A    between atoms: C_12  and  C_13
REMARK    9  A    between atoms: C_12  and  C_14
REMARK   10  A    between atoms: C_18  and  C_19
REMARK   11  A    between atoms: C_20  and  C_21
REMARK   12  A    between atoms: C_21  and  O_23
REMARK   13  A    between atoms: O_23  and  C_24
REMARK   14  A    between atoms: C_24  and  C_25
REMARK   15  A    between atoms: C_25  and  N_26
REMARK                            x       y       z     vdW  Elec       q    Type
REMARK                         _______ _______ _______ _____ _____    ______ ____
ROOT
ATOM      1  C   UNL     1      35.604 -34.182 -30.372  0.00  0.00    -0.046 C 
ENDROOT
BRANCH   1   2
ATOM      2  C   UNL     1      36.152 -35.585 -30.804  0.00  0.00    -0.012 C 
ATOM      3  C   UNL     1      37.681 -35.587 -30.969  0.00  0.00    -0.045 C 
ATOM      4  C   UNL     1      38.423 -36.617 -30.530  0.00  0.00    -0.082 C 
ATOM      5  C   UNL     1      37.892 -37.851 -29.891  0.00  0.00    -0.031 C 
ATOM      6  C   UNL     1      36.377 -38.093 -30.093  0.00  0.00    -0.027 C 
ATOM      7  C   UNL     1      35.851 -39.321 -29.229  0.00  0.00    -0.031 C 
ATOM      8  C   UNL     1      34.829 -40.149 -30.047  0.00  0.00    -0.060 C 
ATOM      9  C   UNL     1      36.974 -40.328 -28.869  0.00  0.00    -0.060 C 
ATOM     10  C   UNL     1      35.184 -38.857 -27.908  0.00  0.00    -0.048 C 
ATOM     11  C   UNL     1      35.752 -37.549 -27.375  0.00  0.00    -0.052 C 
ATOM     12  C   UNL     1      35.659 -36.374 -28.357  0.00  0.00    -0.047 C 
ATOM     13  C   UNL     1      35.585 -36.754 -29.864  0.00  0.00    -0.022 C 
ATOM     14  C   UNL     1      34.095 -36.926 -30.275  0.00  0.00    -0.059 C 
BRANCH   3  15
ATOM     15  C   UNL     1      38.307 -34.432 -31.729  0.00  0.00    +0.066 C 
BRANCH  15  16
ATOM     16  O   UNL     1      39.197 -34.868 -32.750  0.00  0.00    -0.391 OA
ATOM     17  H   UNL     1      39.875 -34.191 -32.899  0.00  0.00    +0.000 HD
ENDBRANCH  15  16
ENDBRANCH   3  15
ENDBRANCH   1   2
BRANCH   1  18
ATOM     18  C   UNL     1      34.684 -33.497 -31.402  0.00  0.00    -0.049 C 
BRANCH  18  20
ATOM     19  C   UNL     1      32.168 -33.850 -31.600  0.00  0.00    -0.062 C 
ATOM     20  C   UNL     1      33.288 -33.102 -30.872  0.00  0.00    -0.034 C 
BRANCH  20  21
ATOM     21  C   UNL     1      33.184 -33.297 -29.344  0.00  0.00    +0.048 C 
BRANCH  21  22
ATOM     22  C   UNL     1      31.880 -33.916 -28.886  0.00  0.00    +0.307 C 
ATOM     23  O   UNL     1      30.875 -33.227 -28.734  0.00  0.00    -0.251 OA
BRANCH  22  24
ATOM     24  O   UNL     1      31.849 -35.233 -28.584  0.00  0.00    -0.463 OA
BRANCH  24  25
ATOM     25  C   UNL     1      31.270 -35.785 -27.383  0.00  0.00    +0.105 C 
BRANCH  25  26
ATOM     26  C   UNL     1      32.018 -37.062 -26.970  0.00  0.00    +0.033 C 
BRANCH  26  27
ATOM     27  N   UNL     1      32.797 -36.913 -25.731  0.00  0.00    -0.295 N 
ATOM     28  C   UNL     1      32.814 -38.155 -24.925  0.00  0.00    +0.023 C 
ATOM     29  C   UNL     1      33.553 -37.952 -23.592  0.00  0.00    +0.060 C 
ATOM     30  O   UNL     1      32.957 -36.898 -22.824  0.00  0.00    -0.377 OA
ATOM     31  C   UNL     1      32.986 -35.675 -23.571  0.00  0.00    +0.060 C 
ATOM     32  C   UNL     1      32.231 -35.823 -24.901  0.00  0.00    +0.023 C 
ATOM     33  H   UNL     1      33.754 -36.696 -26.009  0.00  0.00    +0.000 HD
ENDBRANCH  26  27
ENDBRANCH  25  26
ENDBRANCH  24  25
ENDBRANCH  22  24
ENDBRANCH  21  22
ENDBRANCH  20  21
ENDBRANCH  18  20
ENDBRANCH   1  18
TORSDOF 11
ENDMDL
MODEL 8
REMARK VINA RESULT:    -6.099      2.038      4.783
REMARK INTER + INTRA:         -11.784
REMARK INTER:                 -10.494
REMARK INTRA:                  -1.290
REMARK UNBOUND:                -1.941
REMARK  Name = cpd287.pdb
REMARK  15 active torsions:
REMARK  status: ('A' for Active; 'I' for Inactive)
REMARK    1  A    between atoms: C_1  and  C_2
REMARK    2  A    between atoms: C_2  and  C_3
REMARK    3  A    between atoms: C_2  and  C_20
REMARK    4  A    between atoms: C_3  and  C_4
REMARK    5  A    between atoms: C_4  and  C_5
REMARK    6  A    between atoms: C_6  and  C_7
REMARK    7  A    between atoms: C_7  and  O_8
REMARK    8  A    between atoms: C_12  and  C_13
REMARK    9  A    between atoms: C_12  and  C_14
REMARK   10  A    between atoms: C_18  and  C_19
REMARK   11  A    between atoms: C_20  and  C_21
REMARK   12  A    between atoms: C_21  and  O_23
REMARK   13  A    between atoms: O_23  and  C_24
REMARK   14  A    between atoms: C_24  and  C_25
REMARK   15  A    between atoms: C_25  and  N_26
REMARK                            x       y       z     vdW  Elec       q    Type
REMARK                         _______ _______ _______ _____ _____    ______ ____
ROOT
ATOM      1  C   UNL     1      41.659 -20.410 -37.667  0.00  0.00    -0.046 C 
ENDROOT
BRANCH   1   2
ATOM      2  C   UNL     1      42.449 -21.232 -38.742  0.00  0.00    -0.012 C 
ATOM      3  C   UNL     1      41.514 -21.904 -39.761  0.00  0.00    -0.045 C 
ATOM      4  C   UNL     1      41.816 -21.923 -41.069  0.00  0.00    -0.082 C 
ATOM      5  C   UNL     1      43.053 -21.359 -41.677  0.00  0.00    -0.031 C 
ATOM      6  C   UNL     1      44.200 -21.073 -40.679  0.00  0.00    -0.027 C 
ATOM      7  C   UNL     1      45.408 -20.302 -41.369  0.00  0.00    -0.031 C 
ATOM      8  C   UNL     1      46.758 -20.851 -40.846  0.00  0.00    -0.060 C 
ATOM      9  C   UNL     1      45.463 -20.520 -42.903  0.00  0.00    -0.060 C 
ATOM     10  C   UNL     1      45.348 -18.774 -41.105  0.00  0.00    -0.048 C 
ATOM     11  C   UNL     1      43.931 -18.253 -40.912  0.00  0.00    -0.052 C 
ATOM     12  C   UNL     1      43.158 -18.932 -39.774  0.00  0.00    -0.047 C 
ATOM     13  C   UNL     1      43.630 -20.367 -39.395  0.00  0.00    -0.022 C 
ATOM     14  C   UNL     1      44.726 -20.270 -38.295  0.00  0.00    -0.059 C 
BRANCH   3  15
ATOM     15  C   UNL     1      40.291 -22.625 -39.225  0.00  0.00    +0.066 C 
BRANCH  15  16
ATOM     16  O   UNL     1      40.236 -23.986 -39.635  0.00  0.00    -0.391 OA
ATOM     17  H   UNL     1      40.379 -24.041 -40.593  0.00  0.00    +0.000 HD
ENDBRANCH  15  16
ENDBRANCH   3  15
ENDBRANCH   1   2
BRANCH   1  18
ATOM     18  C   UNL     1      41.635 -21.036 -36.258  0.00  0.00    -0.049 C 
BRANCH  18  20
ATOM     19  C   UNL     1      39.628 -22.340 -35.382  0.00  0.00    -0.062 C 
ATOM     20  C   UNL     1      40.274 -20.959 -35.531  0.00  0.00    -0.034 C 
BRANCH  20  21
ATOM     21  C   UNL     1      40.399 -20.255 -34.162  0.00  0.00    +0.048 C 
BRANCH  21  22
ATOM     22  C   UNL     1      41.560 -20.739 -33.321  0.00  0.00    +0.307 C 
ATOM     23  O   UNL     1      41.611 -21.900 -32.924  0.00  0.00    -0.251 OA
BRANCH  22  24
ATOM     24  O   UNL     1      42.519 -19.858 -32.956  0.00  0.00    -0.463 OA
BRANCH  24  25
ATOM     25  C   UNL     1      43.306 -19.075 -33.878  0.00  0.00    +0.105 C 
BRANCH  25  26
ATOM     26  C   UNL     1      44.721 -19.660 -34.000  0.00  0.00    +0.033 C 
BRANCH  26  27
ATOM     27  N   UNL     1      45.532 -19.025 -35.051  0.00  0.00    -0.295 N 
ATOM     28  C   UNL     1      46.836 -19.700 -35.239  0.00  0.00    +0.023 C 
ATOM     29  C   UNL     1      47.706 -18.967 -36.274  0.00  0.00    +0.060 C 
ATOM     30  O   UNL     1      47.930 -17.604 -35.890  0.00  0.00    -0.377 OA
ATOM     31  C   UNL     1      46.676 -16.922 -35.760  0.00  0.00    +0.060 C 
ATOM     32  C   UNL     1      45.783 -17.605 -34.712  0.00  0.00    +0.023 C 
ATOM     33  H   UNL     1      45.001 -19.101 -35.919  0.00  0.00    +0.000 HD
ENDBRANCH  26  27
ENDBRANCH  25  26
ENDBRANCH  24  25
ENDBRANCH  22  24
ENDBRANCH  21  22
ENDBRANCH  20  21
ENDBRANCH  18  20
ENDBRANCH   1  18
TORSDOF 11
ENDMDL
MODEL 9
REMARK VINA RESULT:    -6.097      1.723      2.283
REMARK INTER + INTRA:         -11.781
REMARK INTER:                 -10.089
REMARK INTRA:                  -1.692
REMARK UNBOUND:                -1.941
REMARK  Name = cpd287.pdb
REMARK  15 active torsions:
REMARK  status: ('A' for Active; 'I' for Inactive)
REMARK    1  A    between atoms: C_1  and  C_2
REMARK    2  A    between atoms: C_2  and  C_3
REMARK    3  A    between atoms: C_2  and  C_20
REMARK    4  A    between atoms: C_3  and  C_4
REMARK    5  A    between atoms: C_4  and  C_5
REMARK    6  A    between atoms: C_6  and  C_7
REMARK    7  A    between atoms: C_7  and  O_8
REMARK    8  A    between atoms: C_12  and  C_13
REMARK    9  A    between atoms: C_12  and  C_14
REMARK   10  A    between atoms: C_18  and  C_19
REMARK   11  A    between atoms: C_20  and  C_21
REMARK   12  A    between atoms: C_21  and  O_23
REMARK   13  A    between atoms: O_23  and  C_24
REMARK   14  A    between atoms: C_24  and  C_25
REMARK   15  A    between atoms: C_25  and  N_26
REMARK                            x       y       z     vdW  Elec       q    Type
REMARK                         _______ _______ _______ _____ _____    ______ ____
ROOT
ATOM      1  C   UNL     1      44.606 -18.649 -38.405  0.00  0.00    -0.046 C 
ENDROOT
BRANCH   1   2
ATOM      2  C   UNL     1      44.536 -20.106 -38.976  0.00  0.00    -0.012 C 
ATOM      3  C   UNL     1      43.223 -20.372 -39.731  0.00  0.00    -0.045 C 
ATOM      4  C   UNL     1      43.216 -21.060 -40.885  0.00  0.00    -0.082 C 
ATOM      5  C   UNL     1      44.410 -21.661 -41.538  0.00  0.00    -0.031 C 
ATOM      6  C   UNL     1      45.654 -21.801 -40.628  0.00  0.00    -0.027 C 
ATOM      7  C   UNL     1      46.936 -22.271 -41.442  0.00  0.00    -0.031 C 
ATOM      8  C   UNL     1      47.750 -23.292 -40.609  0.00  0.00    -0.060 C 
ATOM      9  C   UNL     1      46.576 -23.028 -42.747  0.00  0.00    -0.060 C 
ATOM     10  C   UNL     1      47.854 -21.079 -41.818  0.00  0.00    -0.048 C 
ATOM     11  C   UNL     1      47.098 -19.770 -41.994  0.00  0.00    -0.052 C 
ATOM     12  C   UNL     1      46.289 -19.339 -40.763  0.00  0.00    -0.047 C 
ATOM     13  C   UNL     1      45.861 -20.482 -39.798  0.00  0.00    -0.022 C 
ATOM     14  C   UNL     1      46.968 -20.683 -38.724  0.00  0.00    -0.059 C 
BRANCH   3  15
ATOM     15  C   UNL     1      41.932 -19.915 -39.078  0.00  0.00    +0.066 C 
BRANCH  15  16
ATOM     16  O   UNL     1      41.272 -20.964 -38.378  0.00  0.00    -0.391 OA
ATOM     17  H   UNL     1      41.379 -21.795 -38.867  0.00  0.00    +0.000 HD
ENDBRANCH  15  16
ENDBRANCH   3  15
ENDBRANCH   1   2
BRANCH   1  18
ATOM     18  C   UNL     1      45.045 -18.549 -36.930  0.00  0.00    -0.049 C 
BRANCH  18  20
ATOM     19  C   UNL     1      45.195 -20.215 -35.008  0.00  0.00    -0.062 C 
ATOM     20  C   UNL     1      44.261 -19.450 -35.951  0.00  0.00    -0.034 C 
BRANCH  20  21
ATOM     21  C   UNL     1      43.208 -18.646 -35.158  0.00  0.00    +0.048 C 
BRANCH  21  22
ATOM     22  C   UNL     1      41.898 -19.376 -34.952  0.00  0.00    +0.307 C 
ATOM     23  O   UNL     1      41.663 -20.428 -35.541  0.00  0.00    -0.251 OA
BRANCH  22  24
ATOM     24  O   UNL     1      40.956 -18.823 -34.154  0.00  0.00    -0.463 OA
BRANCH  24  25
ATOM     25  C   UNL     1      39.632 -19.360 -33.957  0.00  0.00    +0.105 C 
BRANCH  25  26
ATOM     26  C   UNL     1      39.492 -19.923 -32.535  0.00  0.00    +0.033 C 
BRANCH  26  27
ATOM     27  N   UNL     1      39.396 -21.391 -32.489  0.00  0.00    -0.295 N 
ATOM     28  C   UNL     1      40.724 -22.043 -32.540  0.00  0.00    +0.023 C 
ATOM     29  C   UNL     1      40.598 -23.575 -32.585  0.00  0.00    +0.060 C 
ATOM     30  O   UNL     1      39.821 -23.998 -33.713  0.00  0.00    -0.377 OA
ATOM     31  C   UNL     1      38.512 -23.419 -33.647  0.00  0.00    +0.060 C 
ATOM     32  C   UNL     1      38.588 -21.884 -33.629  0.00  0.00    +0.023 C 
ATOM     33  H   UNL     1      38.953 -21.630 -31.602  0.00  0.00    +0.000 HD
ENDBRANCH  26  27
ENDBRANCH  25  26
ENDBRANCH  24  25
ENDBRANCH  22  24
ENDBRANCH  21  22
ENDBRANCH  20  21
ENDBRANCH  18  20
ENDBRANCH   1  18
TORSDOF 11
ENDMDL
MODEL 10
REMARK VINA RESULT:    -6.009      2.304      3.564
REMARK INTER + INTRA:         -11.639
REMARK INTER:                 -10.233
REMARK INTRA:                  -1.405
REMARK UNBOUND:                -1.941
REMARK  Name = cpd287.pdb
REMARK  15 active torsions:
REMARK  status: ('A' for Active; 'I' for Inactive)
REMARK    1  A    between atoms: C_1  and  C_2
REMARK    2  A    between atoms: C_2  and  C_3
REMARK    3  A    between atoms: C_2  and  C_20
REMARK    4  A    between atoms: C_3  and  C_4
REMARK    5  A    between atoms: C_4  and  C_5
REMARK    6  A    between atoms: C_6  and  C_7
REMARK    7  A    between atoms: C_7  and  O_8
REMARK    8  A    between atoms: C_12  and  C_13
REMARK    9  A    between atoms: C_12  and  C_14
REMARK   10  A    between atoms: C_18  and  C_19
REMARK   11  A    between atoms: C_20  and  C_21
REMARK   12  A    between atoms: C_21  and  O_23
REMARK   13  A    between atoms: O_23  and  C_24
REMARK   14  A    between atoms: C_24  and  C_25
REMARK   15  A    between atoms: C_25  and  N_26
REMARK                            x       y       z     vdW  Elec       q    Type
REMARK                         _______ _______ _______ _____ _____    ______ ____
ROOT
ATOM      1  C   UNL     1      46.805 -17.654 -37.546  0.00  0.00    -0.046 C 
ENDROOT
BRANCH   1   2
ATOM      2  C   UNL     1      46.169 -17.822 -38.968  0.00  0.00    -0.012 C 
ATOM      3  C   UNL     1      47.041 -17.202 -40.072  0.00  0.00    -0.045 C 
ATOM      4  C   UNL     1      47.220 -17.828 -41.246  0.00  0.00    -0.082 C 
ATOM      5  C   UNL     1      46.600 -19.124 -41.635  0.00  0.00    -0.031 C 
ATOM      6  C   UNL     1      45.399 -19.563 -40.763  0.00  0.00    -0.027 C 
ATOM      7  C   UNL     1      44.915 -21.035 -41.119  0.00  0.00    -0.031 C 
ATOM      8  C   UNL     1      43.368 -21.108 -41.090  0.00  0.00    -0.060 C 
ATOM      9  C   UNL     1      45.301 -21.466 -42.558  0.00  0.00    -0.060 C 
ATOM     10  C   UNL     1      45.488 -22.089 -40.135  0.00  0.00    -0.048 C 
ATOM     11  C   UNL     1      46.837 -21.694 -39.551  0.00  0.00    -0.052 C 
ATOM     12  C   UNL     1      46.836 -20.349 -38.813  0.00  0.00    -0.047 C 
ATOM     13  C   UNL     1      45.732 -19.340 -39.243  0.00  0.00    -0.022 C 
ATOM     14  C   UNL     1      44.465 -19.568 -38.370  0.00  0.00    -0.059 C 
BRANCH   3  15
ATOM     15  C   UNL     1      47.611 -15.817 -39.823  0.00  0.00    +0.066 C 
BRANCH  15  16
ATOM     16  O   UNL     1      48.449 -15.373 -40.883  0.00  0.00    -0.391 OA
ATOM     17  H   UNL     1      47.920 -14.872 -41.524  0.00  0.00    +0.000 HD
ENDBRANCH  15  16
ENDBRANCH   3  15
ENDBRANCH   1   2
BRANCH   1  18
ATOM     18  C   UNL     1      46.240 -16.485 -36.715  0.00  0.00    -0.049 C 
BRANCH  18  20
ATOM     19  C   UNL     1      43.781 -16.808 -36.125  0.00  0.00    -0.062 C 
ATOM     20  C   UNL     1      45.225 -16.889 -35.621  0.00  0.00    -0.034 C 
BRANCH  20  21
ATOM     21  C   UNL     1      45.535 -18.288 -35.047  0.00  0.00    +0.048 C 
BRANCH  21  22
ATOM     22  C   UNL     1      44.867 -18.575 -33.720  0.00  0.00    +0.307 C 
ATOM     23  O   UNL     1      45.253 -18.031 -32.688  0.00  0.00    -0.251 OA
BRANCH  22  24
ATOM     24  O   UNL     1      43.872 -19.490 -33.669  0.00  0.00    -0.463 OA
BRANCH  24  25
ATOM     25  C   UNL     1      42.655 -19.336 -32.909  0.00  0.00    +0.105 C 
BRANCH  25  26
ATOM     26  C   UNL     1      41.434 -19.417 -33.838  0.00  0.00    +0.033 C 
BRANCH  26  27
ATOM     27  N   UNL     1      40.671 -20.668 -33.698  0.00  0.00    -0.295 N 
ATOM     28  C   UNL     1      41.320 -21.623 -32.772  0.00  0.00    +0.023 C 
ATOM     29  C   UNL     1      40.558 -22.957 -32.712  0.00  0.00    +0.060 C 
ATOM     30  O   UNL     1      40.455 -23.554 -34.011  0.00  0.00    -0.377 OA
ATOM     31  C   UNL     1      39.777 -22.662 -34.904  0.00  0.00    +0.060 C 
ATOM     32  C   UNL     1      40.521 -21.323 -35.019  0.00  0.00    +0.023 C 
ATOM     33  H   UNL     1      39.760 -20.416 -33.314  0.00  0.00    +0.000 HD
ENDBRANCH  26  27
ENDBRANCH  25  26
ENDBRANCH  24  25
ENDBRANCH  22  24
ENDBRANCH  21  22
ENDBRANCH  20  21
ENDBRANCH  18  20
ENDBRANCH   1  18
TORSDOF 11
ENDMDL
MODEL 11
REMARK VINA RESULT:    -5.846      1.818      2.495
REMARK INTER + INTRA:         -11.376
REMARK INTER:                  -9.435
REMARK INTRA:                  -1.941
REMARK UNBOUND:                -1.941
REMARK  Name = cpd287.pdb
REMARK  15 active torsions:
REMARK  status: ('A' for Active; 'I' for Inactive)
REMARK    1  A    between atoms: C_1  and  C_2
REMARK    2  A    between atoms: C_2  and  C_3
REMARK    3  A    between atoms: C_2  and  C_20
REMARK    4  A    between atoms: C_3  and  C_4
REMARK    5  A    between atoms: C_4  and  C_5
REMARK    6  A    between atoms: C_6  and  C_7
REMARK    7  A    between atoms: C_7  and  O_8
REMARK    8  A    between atoms: C_12  and  C_13
REMARK    9  A    between atoms: C_12  and  C_14
REMARK   10  A    between atoms: C_18  and  C_19
REMARK   11  A    between atoms: C_20  and  C_21
REMARK   12  A    between atoms: C_21  and  O_23
REMARK   13  A    between atoms: O_23  and  C_24
REMARK   14  A    between atoms: C_24  and  C_25
REMARK   15  A    between atoms: C_25  and  N_26
REMARK                            x       y       z     vdW  Elec       q    Type
REMARK                         _______ _______ _______ _____ _____    ______ ____
ROOT
ATOM      1  C   UNL     1      46.850 -16.677 -37.705  0.00  0.00    -0.046 C 
ENDROOT
BRANCH   1   2
ATOM      2  C   UNL     1      45.776 -17.783 -37.986  0.00  0.00    -0.012 C 
ATOM      3  C   UNL     1      44.384 -17.187 -38.252  0.00  0.00    -0.045 C 
ATOM      4  C   UNL     1      43.596 -17.677 -39.223  0.00  0.00    -0.082 C 
ATOM      5  C   UNL     1      43.928 -18.830 -40.104  0.00  0.00    -0.031 C 
ATOM      6  C   UNL     1      45.091 -19.721 -39.605  0.00  0.00    -0.027 C 
ATOM      7  C   UNL     1      45.508 -20.811 -40.684  0.00  0.00    -0.031 C 
ATOM      8  C   UNL     1      45.822 -22.158 -39.986  0.00  0.00    -0.060 C 
ATOM      9  C   UNL     1      44.365 -21.143 -41.679  0.00  0.00    -0.060 C 
ATOM     10  C   UNL     1      46.745 -20.369 -41.508  0.00  0.00    -0.048 C 
ATOM     11  C   UNL     1      46.861 -18.858 -41.653  0.00  0.00    -0.052 C 
ATOM     12  C   UNL     1      46.919 -18.099 -40.321  0.00  0.00    -0.047 C 
ATOM     13  C   UNL     1      46.277 -18.822 -39.100  0.00  0.00    -0.022 C 
ATOM     14  C   UNL     1      47.358 -19.691 -38.397  0.00  0.00    -0.059 C 
BRANCH   3  15
ATOM     15  C   UNL     1      43.898 -16.093 -37.319  0.00  0.00    +0.066 C 
BRANCH  15  16
ATOM     16  O   UNL     1      43.098 -16.597 -36.257  0.00  0.00    -0.391 OA
ATOM     17  H   UNL     1      43.596 -17.274 -35.771  0.00  0.00    +0.000 HD
ENDBRANCH  15  16
ENDBRANCH   3  15
ENDBRANCH   1   2
BRANCH   1  18
ATOM     18  C   UNL     1      47.369 -16.628 -36.254  0.00  0.00    -0.049 C 
BRANCH  18  20
ATOM     19  C   UNL     1      48.510 -18.436 -34.866  0.00  0.00    -0.062 C 
ATOM     20  C   UNL     1      47.185 -17.934 -35.448  0.00  0.00    -0.034 C 
BRANCH  20  21
ATOM     21  C   UNL     1      46.118 -17.774 -34.343  0.00  0.00    +0.048 C 
BRANCH  21  22
ATOM     22  C   UNL     1      45.152 -18.934 -34.243  0.00  0.00    +0.307 C 
ATOM     23  O   UNL     1      45.498 -20.002 -33.746  0.00  0.00    -0.251 OA
BRANCH  22  24
ATOM     24  O   UNL     1      43.912 -18.803 -34.766  0.00  0.00    -0.463 OA
BRANCH  24  25
ATOM     25  C   UNL     1      42.739 -19.484 -34.273  0.00  0.00    +0.105 C 
BRANCH  25  26
ATOM     26  C   UNL     1      42.384 -20.664 -35.191  0.00  0.00    +0.033 C 
BRANCH  26  27
ATOM     27  N   UNL     1      41.517 -21.667 -34.553  0.00  0.00    -0.295 N 
ATOM     28  C   UNL     1      40.356 -22.026 -35.398  0.00  0.00    +0.023 C 
ATOM     29  C   UNL     1      39.414 -23.003 -34.675  0.00  0.00    +0.060 C 
ATOM     30  O   UNL     1      38.945 -22.451 -33.438  0.00  0.00    -0.377 OA
ATOM     31  C   UNL     1      40.057 -22.151 -32.586  0.00  0.00    +0.060 C 
ATOM     32  C   UNL     1      41.013 -21.153 -33.257  0.00  0.00    +0.023 C 
ATOM     33  H   UNL     1      42.085 -22.502 -34.414  0.00  0.00    +0.000 HD
ENDBRANCH  26  27
ENDBRANCH  25  26
ENDBRANCH  24  25
ENDBRANCH  22  24
ENDBRANCH  21  22
ENDBRANCH  20  21
ENDBRANCH  18  20
ENDBRANCH   1  18
TORSDOF 11
ENDMDL
MODEL 12
REMARK VINA RESULT:    -5.826      1.610      2.813
REMARK INTER + INTRA:         -11.343
REMARK INTER:                 -10.212
REMARK INTRA:                  -1.131
REMARK UNBOUND:                -1.941
REMARK  Name = cpd287.pdb
REMARK  15 active torsions:
REMARK  status: ('A' for Active; 'I' for Inactive)
REMARK    1  A    between atoms: C_1  and  C_2
REMARK    2  A    between atoms: C_2  and  C_3
REMARK    3  A    between atoms: C_2  and  C_20
REMARK    4  A    between atoms: C_3  and  C_4
REMARK    5  A    between atoms: C_4  and  C_5
REMARK    6  A    between atoms: C_6  and  C_7
REMARK    7  A    between atoms: C_7  and  O_8
REMARK    8  A    between atoms: C_12  and  C_13
REMARK    9  A    between atoms: C_12  and  C_14
REMARK   10  A    between atoms: C_18  and  C_19
REMARK   11  A    between atoms: C_20  and  C_21
REMARK   12  A    between atoms: C_21  and  O_23
REMARK   13  A    between atoms: O_23  and  C_24
REMARK   14  A    between atoms: C_24  and  C_25
REMARK   15  A    between atoms: C_25  and  N_26
REMARK                            x       y       z     vdW  Elec       q    Type
REMARK                         _______ _______ _______ _____ _____    ______ ____
ROOT
ATOM      1  C   UNL     1      43.869 -19.352 -36.710  0.00  0.00    -0.046 C 
ENDROOT
BRANCH   1   2
ATOM      2  C   UNL     1      44.839 -19.446 -37.937  0.00  0.00    -0.012 C 
ATOM      3  C   UNL     1      46.099 -20.267 -37.621  0.00  0.00    -0.045 C 
ATOM      4  C   UNL     1      46.599 -21.138 -38.514  0.00  0.00    -0.082 C 
ATOM      5  C   UNL     1      46.053 -21.386 -39.875  0.00  0.00    -0.031 C 
ATOM      6  C   UNL     1      45.080 -20.303 -40.398  0.00  0.00    -0.027 C 
ATOM      7  C   UNL     1      44.397 -20.730 -41.769  0.00  0.00    -0.031 C 
ATOM      8  C   UNL     1      44.298 -19.509 -42.718  0.00  0.00    -0.060 C 
ATOM      9  C   UNL     1      45.230 -21.774 -42.558  0.00  0.00    -0.060 C 
ATOM     10  C   UNL     1      42.977 -21.317 -41.552  0.00  0.00    -0.048 C 
ATOM     11  C   UNL     1      42.810 -22.001 -40.203  0.00  0.00    -0.052 C 
ATOM     12  C   UNL     1      43.108 -21.101 -38.998  0.00  0.00    -0.047 C 
ATOM     13  C   UNL     1      44.065 -19.903 -39.266  0.00  0.00    -0.022 C 
ATOM     14  C   UNL     1      43.225 -18.667 -39.699  0.00  0.00    -0.059 C 
BRANCH   3  15
ATOM     15  C   UNL     1      46.809 -19.988 -36.309  0.00  0.00    +0.066 C 
BRANCH  15  16
ATOM     16  O   UNL     1      48.149 -19.546 -36.496  0.00  0.00    -0.391 OA
ATOM     17  H   UNL     1      48.581 -19.453 -35.633  0.00  0.00    +0.000 HD
ENDBRANCH  15  16
ENDBRANCH   3  15
ENDBRANCH   1   2
BRANCH   1  18
ATOM     18  C   UNL     1      43.696 -17.937 -36.124  0.00  0.00    -0.049 C 
BRANCH  18  20
ATOM     19  C   UNL     1      45.226 -15.911 -35.891  0.00  0.00    -0.062 C 
ATOM     20  C   UNL     1      44.954 -17.351 -35.444  0.00  0.00    -0.034 C 
BRANCH  20  21
ATOM     21  C   UNL     1      44.866 -17.447 -33.906  0.00  0.00    +0.048 C 
BRANCH  21  22
ATOM     22  C   UNL     1      43.479 -17.752 -33.383  0.00  0.00    +0.307 C 
ATOM     23  O   UNL     1      42.594 -16.900 -33.407  0.00  0.00    -0.251 OA
BRANCH  22  24
ATOM     24  O   UNL     1      43.237 -18.961 -32.828  0.00  0.00    -0.463 OA
BRANCH  24  25
ATOM     25  C   UNL     1      41.938 -19.585 -32.759  0.00  0.00    +0.105 C 
BRANCH  25  26
ATOM     26  C   UNL     1      41.556 -20.169 -34.128  0.00  0.00    +0.033 C 
BRANCH  26  27
ATOM     27  N   UNL     1      41.055 -21.552 -34.059  0.00  0.00    -0.295 N 
ATOM     28  C   UNL     1      39.590 -21.629 -34.261  0.00  0.00    +0.023 C 
ATOM     29  C   UNL     1      39.074 -23.068 -34.093  0.00  0.00    +0.060 C 
ATOM     30  O   UNL     1      39.400 -23.588 -32.798  0.00  0.00    -0.377 OA
ATOM     31  C   UNL     1      40.821 -23.571 -32.610  0.00  0.00    +0.060 C 
ATOM     32  C   UNL     1      41.379 -22.145 -32.741  0.00  0.00    +0.023 C 
ATOM     33  H   UNL     1      41.512 -22.068 -34.811  0.00  0.00    +0.000 HD
ENDBRANCH  26  27
ENDBRANCH  25  26
ENDBRANCH  24  25
ENDBRANCH  22  24
ENDBRANCH  21  22
ENDBRANCH  20  21
ENDBRANCH  18  20
ENDBRANCH   1  18
TORSDOF 11
ENDMDL
MODEL 13
REMARK VINA RESULT:    -5.779     18.325     21.037
REMARK INTER + INTRA:         -11.268
REMARK INTER:                  -9.600
REMARK INTRA:                  -1.668
REMARK UNBOUND:                -1.941
REMARK  Name = cpd287.pdb
REMARK  15 active torsions:
REMARK  status: ('A' for Active; 'I' for Inactive)
REMARK    1  A    between atoms: C_1  and  C_2
REMARK    2  A    between atoms: C_2  and  C_3
REMARK    3  A    between atoms: C_2  and  C_20
REMARK    4  A    between atoms: C_3  and  C_4
REMARK    5  A    between atoms: C_4  and  C_5
REMARK    6  A    between atoms: C_6  and  C_7
REMARK    7  A    between atoms: C_7  and  O_8
REMARK    8  A    between atoms: C_12  and  C_13
REMARK    9  A    between atoms: C_12  and  C_14
REMARK   10  A    between atoms: C_18  and  C_19
REMARK   11  A    between atoms: C_20  and  C_21
REMARK   12  A    between atoms: C_21  and  O_23
REMARK   13  A    between atoms: O_23  and  C_24
REMARK   14  A    between atoms: C_24  and  C_25
REMARK   15  A    between atoms: C_25  and  N_26
REMARK                            x       y       z     vdW  Elec       q    Type
REMARK                         _______ _______ _______ _____ _____    ______ ____
ROOT
ATOM      1  C   UNL     1      34.784 -35.902 -29.283  0.00  0.00    -0.046 C 
ENDROOT
BRANCH   1   2
ATOM      2  C   UNL     1      33.828 -35.208 -30.311  0.00  0.00    -0.012 C 
ATOM      3  C   UNL     1      32.905 -36.214 -31.018  0.00  0.00    -0.045 C 
ATOM      4  C   UNL     1      31.611 -35.930 -31.238  0.00  0.00    -0.082 C 
ATOM      5  C   UNL     1      30.936 -34.653 -30.880  0.00  0.00    -0.031 C 
ATOM      6  C   UNL     1      31.888 -33.471 -30.577  0.00  0.00    -0.027 C 
ATOM      7  C   UNL     1      31.104 -32.204 -30.023  0.00  0.00    -0.031 C 
ATOM      8  C   UNL     1      31.696 -30.906 -30.626  0.00  0.00    -0.060 C 
ATOM      9  C   UNL     1      29.611 -32.187 -30.444  0.00  0.00    -0.060 C 
ATOM     10  C   UNL     1      31.164 -32.115 -28.475  0.00  0.00    -0.048 C 
ATOM     11  C   UNL     1      31.286 -33.473 -27.799  0.00  0.00    -0.052 C 
ATOM     12  C   UNL     1      32.503 -34.294 -28.246  0.00  0.00    -0.047 C 
ATOM     13  C   UNL     1      33.067 -33.957 -29.657  0.00  0.00    -0.022 C 
ATOM     14  C   UNL     1      34.146 -32.844 -29.522  0.00  0.00    -0.059 C 
BRANCH   3  15
ATOM     15  C   UNL     1      33.530 -37.494 -31.542  0.00  0.00    +0.066 C 
BRANCH  15  16
ATOM     16  O   UNL     1      34.388 -37.267 -32.654  0.00  0.00    -0.391 OA
ATOM     17  H   UNL     1      35.023 -37.997 -32.726  0.00  0.00    +0.000 HD
ENDBRANCH  15  16
ENDBRANCH   3  15
ENDBRANCH   1   2
BRANCH   1  18
ATOM     18  C   UNL     1      36.286 -35.787 -29.611  0.00  0.00    -0.049 C 
BRANCH  18  20
ATOM     19  C   UNL     1      38.398 -36.940 -30.452  0.00  0.00    -0.062 C 
ATOM     20  C   UNL     1      37.016 -37.133 -29.820  0.00  0.00    -0.034 C 
BRANCH  20  21
ATOM     21  C   UNL     1      37.114 -37.936 -28.506  0.00  0.00    +0.048 C 
BRANCH  21  22
ATOM     22  C   UNL     1      36.055 -39.007 -28.353  0.00  0.00    +0.307 C 
ATOM     23  O   UNL     1      35.727 -39.709 -29.306  0.00  0.00    -0.251 OA
BRANCH  22  24
ATOM     24  O   UNL     1      35.425 -39.143 -27.165  0.00  0.00    -0.463 OA
BRANCH  24  25
ATOM     25  C   UNL     1      33.992 -39.194 -26.998  0.00  0.00    +0.105 C 
BRANCH  25  26
ATOM     26  C   UNL     1      33.636 -39.384 -25.516  0.00  0.00    +0.033 C 
BRANCH  26  27
ATOM     27  N   UNL     1      32.779 -38.316 -24.976  0.00  0.00    -0.295 N 
ATOM     28  C   UNL     1      31.875 -37.747 -26.001  0.00  0.00    +0.023 C 
ATOM     29  C   UNL     1      31.056 -36.573 -25.440  0.00  0.00    +0.060 C 
ATOM     30  O   UNL     1      31.911 -35.538 -24.938  0.00  0.00    -0.377 OA
ATOM     31  C   UNL     1      32.753 -36.062 -23.903  0.00  0.00    +0.060 C 
ATOM     32  C   UNL     1      33.614 -37.222 -24.427  0.00  0.00    +0.023 C 
ATOM     33  H   UNL     1      32.209 -38.739 -24.242  0.00  0.00    +0.000 HD
ENDBRANCH  26  27
ENDBRANCH  25  26
ENDBRANCH  24  25
ENDBRANCH  22  24
ENDBRANCH  21  22
ENDBRANCH  20  21
ENDBRANCH  18  20
ENDBRANCH   1  18
TORSDOF 11
ENDMDL
MODEL 14
REMARK VINA RESULT:    -5.658     17.684     22.140
REMARK INTER + INTRA:         -11.073
REMARK INTER:                  -9.794
REMARK INTRA:                  -1.279
REMARK UNBOUND:                -1.941
REMARK  Name = cpd287.pdb
REMARK  15 active torsions:
REMARK  status: ('A' for Active; 'I' for Inactive)
REMARK    1  A    between atoms: C_1  and  C_2
REMARK    2  A    between atoms: C_2  and  C_3
REMARK    3  A    between atoms: C_2  and  C_20
REMARK    4  A    between atoms: C_3  and  C_4
REMARK    5  A    between atoms: C_4  and  C_5
REMARK    6  A    between atoms: C_6  and  C_7
REMARK    7  A    between atoms: C_7  and  O_8
REMARK    8  A    between atoms: C_12  and  C_13
REMARK    9  A    between atoms: C_12  and  C_14
REMARK   10  A    between atoms: C_18  and  C_19
REMARK   11  A    between atoms: C_20  and  C_21
REMARK   12  A    between atoms: C_21  and  O_23
REMARK   13  A    between atoms: O_23  and  C_24
REMARK   14  A    between atoms: C_24  and  C_25
REMARK   15  A    between atoms: C_25  and  N_26
REMARK                            x       y       z     vdW  Elec       q    Type
REMARK                         _______ _______ _______ _____ _____    ______ ____
ROOT
ATOM      1  C   UNL     1      35.946 -37.872 -30.819  0.00  0.00    -0.046 C 
ENDROOT
BRANCH   1   2
ATOM      2  C   UNL     1      35.770 -36.506 -30.073  0.00  0.00    -0.012 C 
ATOM      3  C   UNL     1      36.632 -35.391 -30.689  0.00  0.00    -0.045 C 
ATOM      4  C   UNL     1      36.145 -34.150 -30.850  0.00  0.00    -0.082 C 
ATOM      5  C   UNL     1      34.788 -33.696 -30.440  0.00  0.00    -0.031 C 
ATOM      6  C   UNL     1      34.058 -34.629 -29.445  0.00  0.00    -0.027 C 
ATOM      7  C   UNL     1      32.553 -34.179 -29.204  0.00  0.00    -0.031 C 
ATOM      8  C   UNL     1      32.180 -34.344 -27.709  0.00  0.00    -0.060 C 
ATOM      9  C   UNL     1      32.319 -32.674 -29.502  0.00  0.00    -0.060 C 
ATOM     10  C   UNL     1      31.557 -34.997 -30.066  0.00  0.00    -0.048 C 
ATOM     11  C   UNL     1      32.158 -35.488 -31.376  0.00  0.00    -0.052 C 
ATOM     12  C   UNL     1      33.416 -36.351 -31.208  0.00  0.00    -0.047 C 
ATOM     13  C   UNL     1      34.222 -36.126 -29.895  0.00  0.00    -0.022 C 
ATOM     14  C   UNL     1      33.686 -37.087 -28.796  0.00  0.00    -0.059 C 
BRANCH   3  15
ATOM     15  C   UNL     1      38.077 -35.720 -31.017  0.00  0.00    +0.066 C 
BRANCH  15  16
ATOM     16  O   UNL     1      38.452 -35.289 -32.320  0.00  0.00    -0.391 OA
ATOM     17  H   UNL     1      38.073 -34.413 -32.492  0.00  0.00    +0.000 HD
ENDBRANCH  15  16
ENDBRANCH   3  15
ENDBRANCH   1   2
BRANCH   1  18
ATOM     18  C   UNL     1      36.536 -39.010 -29.963  0.00  0.00    -0.049 C 
BRANCH  18  20
ATOM     19  C   UNL     1      35.660 -40.905 -31.426  0.00  0.00    -0.062 C 
ATOM     20  C   UNL     1      35.747 -40.338 -30.006  0.00  0.00    -0.034 C 
BRANCH  20  21
ATOM     21  C   UNL     1      36.332 -41.379 -29.027  0.00  0.00    +0.048 C 
BRANCH  21  22
ATOM     22  C   UNL     1      35.294 -42.091 -28.186  0.00  0.00    +0.307 C 
ATOM     23  O   UNL     1      34.618 -43.002 -28.657  0.00  0.00    -0.251 OA
BRANCH  22  24
ATOM     24  O   UNL     1      35.074 -41.671 -26.920  0.00  0.00    -0.463 OA
BRANCH  24  25
ATOM     25  C   UNL     1      33.782 -41.645 -26.278  0.00  0.00    +0.105 C 
BRANCH  25  26
ATOM     26  C   UNL     1      33.308 -40.196 -26.094  0.00  0.00    +0.033 C 
BRANCH  26  27
ATOM     27  N   UNL     1      33.773 -39.579 -24.841  0.00  0.00    -0.295 N 
ATOM     28  C   UNL     1      33.363 -40.352 -23.648  0.00  0.00    +0.023 C 
ATOM     29  C   UNL     1      33.777 -39.643 -22.347  0.00  0.00    +0.060 C 
ATOM     30  O   UNL     1      33.214 -38.327 -22.274  0.00  0.00    -0.377 OA
ATOM     31  C   UNL     1      33.649 -37.547 -23.395  0.00  0.00    +0.060 C 
ATOM     32  C   UNL     1      33.231 -38.205 -24.719  0.00  0.00    +0.023 C 
ATOM     33  H   UNL     1      34.792 -39.563 -24.881  0.00  0.00    +0.000 HD
ENDBRANCH  26  27
ENDBRANCH  25  26
ENDBRANCH  24  25
ENDBRANCH  22  24
ENDBRANCH  21  22
ENDBRANCH  20  21
ENDBRANCH  18  20
ENDBRANCH   1  18
TORSDOF 11
ENDMDL
MODEL 15
REMARK VINA RESULT:    -5.617      2.944      4.760
REMARK INTER + INTRA:         -11.006
REMARK INTER:                  -9.874
REMARK INTRA:                  -1.132
REMARK UNBOUND:                -1.941
REMARK  Name = cpd287.pdb
REMARK  15 active torsions:
REMARK  status: ('A' for Active; 'I' for Inactive)
REMARK    1  A    between atoms: C_1  and  C_2
REMARK    2  A    between atoms: C_2  and  C_3
REMARK    3  A    between atoms: C_2  and  C_20
REMARK    4  A    between atoms: C_3  and  C_4
REMARK    5  A    between atoms: C_4  and  C_5
REMARK    6  A    between atoms: C_6  and  C_7
REMARK    7  A    between atoms: C_7  and  O_8
REMARK    8  A    between atoms: C_12  and  C_13
REMARK    9  A    between atoms: C_12  and  C_14
REMARK   10  A    between atoms: C_18  and  C_19
REMARK   11  A    between atoms: C_20  and  C_21
REMARK   12  A    between atoms: C_21  and  O_23
REMARK   13  A    between atoms: O_23  and  C_24
REMARK   14  A    between atoms: C_24  and  C_25
REMARK   15  A    between atoms: C_25  and  N_26
REMARK                            x       y       z     vdW  Elec       q    Type
REMARK                         _______ _______ _______ _____ _____    ______ ____
ROOT
ATOM      1  C   UNL     1      41.784 -19.226 -38.407  0.00  0.00    -0.046 C 
ENDROOT
BRANCH   1   2
ATOM      2  C   UNL     1      42.573 -19.085 -39.753  0.00  0.00    -0.012 C 
ATOM      3  C   UNL     1      43.123 -17.664 -39.958  0.00  0.00    -0.045 C 
ATOM      4  C   UNL     1      44.358 -17.464 -40.447  0.00  0.00    -0.082 C 
ATOM      5  C   UNL     1      45.301 -18.533 -40.872  0.00  0.00    -0.031 C 
ATOM      6  C   UNL     1      44.657 -19.923 -41.096  0.00  0.00    -0.027 C 
ATOM      7  C   UNL     1      45.749 -21.047 -41.361  0.00  0.00    -0.031 C 
ATOM      8  C   UNL     1      45.256 -22.020 -42.461  0.00  0.00    -0.060 C 
ATOM      9  C   UNL     1      47.082 -20.475 -41.911  0.00  0.00    -0.060 C 
ATOM     10  C   UNL     1      46.071 -21.858 -40.078  0.00  0.00    -0.048 C 
ATOM     11  C   UNL     1      45.888 -21.055 -38.798  0.00  0.00    -0.052 C 
ATOM     12  C   UNL     1      44.481 -20.472 -38.615  0.00  0.00    -0.047 C 
ATOM     13  C   UNL     1      43.664 -20.248 -39.921  0.00  0.00    -0.022 C 
ATOM     14  C   UNL     1      42.848 -21.534 -40.238  0.00  0.00    -0.059 C 
BRANCH   3  15
ATOM     15  C   UNL     1      42.187 -16.501 -39.680  0.00  0.00    +0.066 C 
BRANCH  15  16
ATOM     16  O   UNL     1      42.767 -15.244 -40.008  0.00  0.00    -0.391 OA
ATOM     17  H   UNL     1      43.718 -15.357 -40.162  0.00  0.00    +0.000 HD
ENDBRANCH  15  16
ENDBRANCH   3  15
ENDBRANCH   1   2
BRANCH   1  18
ATOM     18  C   UNL     1      40.342 -19.752 -38.550  0.00  0.00    -0.049 C 
BRANCH  18  20
ATOM     19  C   UNL     1      38.619 -19.493 -36.689  0.00  0.00    -0.062 C 
ATOM     20  C   UNL     1      39.738 -20.365 -37.267  0.00  0.00    -0.034 C 
BRANCH  20  21
ATOM     21  C   UNL     1      39.248 -21.810 -37.504  0.00  0.00    +0.048 C 
BRANCH  21  22
ATOM     22  C   UNL     1      39.536 -22.758 -36.359  0.00  0.00    +0.307 C 
ATOM     23  O   UNL     1      39.142 -23.921 -36.389  0.00  0.00    -0.251 OA
BRANCH  22  24
ATOM     24  O   UNL     1      40.182 -22.291 -35.267  0.00  0.00    -0.463 OA
BRANCH  24  25
ATOM     25  C   UNL     1      40.359 -23.031 -34.041  0.00  0.00    +0.105 C 
BRANCH  25  26
ATOM     26  C   UNL     1      39.327 -22.583 -32.995  0.00  0.00    +0.033 C 
BRANCH  26  27
ATOM     27  N   UNL     1      38.693 -21.292 -33.309  0.00  0.00    -0.295 N 
ATOM     28  C   UNL     1      39.288 -20.173 -32.543  0.00  0.00    +0.023 C 
ATOM     29  C   UNL     1      38.552 -18.851 -32.814  0.00  0.00    +0.060 C 
ATOM     30  O   UNL     1      37.159 -18.957 -32.491  0.00  0.00    -0.377 OA
ATOM     31  C   UNL     1      36.557 -20.000 -33.268  0.00  0.00    +0.060 C 
ATOM     32  C   UNL     1      37.244 -21.349 -33.007  0.00  0.00    +0.023 C 
ATOM     33  H   UNL     1      38.849 -21.121 -34.302  0.00  0.00    +0.000 HD
ENDBRANCH  26  27
ENDBRANCH  25  26
ENDBRANCH  24  25
ENDBRANCH  22  24
ENDBRANCH  21  22
ENDBRANCH  20  21
ENDBRANCH  18  20
ENDBRANCH   1  18
TORSDOF 11
ENDMDL
MODEL 16
REMARK VINA RESULT:    -5.573      2.935      7.753
REMARK INTER + INTRA:         -10.934
REMARK INTER:                  -9.590
REMARK INTRA:                  -1.344
REMARK UNBOUND:                -1.941
REMARK  Name = cpd287.pdb
REMARK  15 active torsions:
REMARK  status: ('A' for Active; 'I' for Inactive)
REMARK    1  A    between atoms: C_1  and  C_2
REMARK    2  A    between atoms: C_2  and  C_3
REMARK    3  A    between atoms: C_2  and  C_20
REMARK    4  A    between atoms: C_3  and  C_4
REMARK    5  A    between atoms: C_4  and  C_5
REMARK    6  A    between atoms: C_6  and  C_7
REMARK    7  A    between atoms: C_7  and  O_8
REMARK    8  A    between atoms: C_12  and  C_13
REMARK    9  A    between atoms: C_12  and  C_14
REMARK   10  A    between atoms: C_18  and  C_19
REMARK   11  A    between atoms: C_20  and  C_21
REMARK   12  A    between atoms: C_21  and  O_23
REMARK   13  A    between atoms: O_23  and  C_24
REMARK   14  A    between atoms: C_24  and  C_25
REMARK   15  A    between atoms: C_25  and  N_26
REMARK                            x       y       z     vdW  Elec       q    Type
REMARK                         _______ _______ _______ _____ _____    ______ ____
ROOT
ATOM      1  C   UNL     1      43.641 -19.357 -36.015  0.00  0.00    -0.046 C 
ENDROOT
BRANCH   1   2
ATOM      2  C   UNL     1      42.999 -20.020 -34.749  0.00  0.00    -0.012 C 
ATOM      3  C   UNL     1      43.172 -19.157 -33.490  0.00  0.00    -0.045 C 
ATOM      4  C   UNL     1      42.169 -19.009 -32.609  0.00  0.00    -0.082 C 
ATOM      5  C   UNL     1      40.833 -19.658 -32.706  0.00  0.00    -0.031 C 
ATOM      6  C   UNL     1      40.756 -20.851 -33.689  0.00  0.00    -0.027 C 
ATOM      7  C   UNL     1      39.264 -21.368 -33.878  0.00  0.00    -0.031 C 
ATOM      8  C   UNL     1      39.241 -22.915 -33.946  0.00  0.00    -0.060 C 
ATOM      9  C   UNL     1      38.347 -21.014 -32.678  0.00  0.00    -0.060 C 
ATOM     10  C   UNL     1      38.610 -20.796 -35.164  0.00  0.00    -0.048 C 
ATOM     11  C   UNL     1      39.155 -19.430 -35.558  0.00  0.00    -0.052 C 
ATOM     12  C   UNL     1      40.673 -19.395 -35.776  0.00  0.00    -0.047 C 
ATOM     13  C   UNL     1      41.491 -20.489 -35.030  0.00  0.00    -0.022 C 
ATOM     14  C   UNL     1      41.613 -21.744 -35.940  0.00  0.00    -0.059 C 
BRANCH   3  15
ATOM     15  C   UNL     1      44.543 -18.558 -33.230  0.00  0.00    +0.066 C 
BRANCH  15  16
ATOM     16  O   UNL     1      44.755 -18.255 -31.857  0.00  0.00    -0.391 OA
ATOM     17  H   UNL     1      45.363 -17.503 -31.782  0.00  0.00    +0.000 HD
ENDBRANCH  15  16
ENDBRANCH   3  15
ENDBRANCH   1   2
BRANCH   1  18
ATOM     18  C   UNL     1      44.862 -20.101 -36.591  0.00  0.00    -0.049 C 
BRANCH  18  20
ATOM     19  C   UNL     1      47.007 -20.215 -35.218  0.00  0.00    -0.062 C 
ATOM     20  C   UNL     1      46.229 -19.446 -36.290  0.00  0.00    -0.034 C 
BRANCH  20  21
ATOM     21  C   UNL     1      47.073 -19.277 -37.573  0.00  0.00    +0.048 C 
BRANCH  21  22
ATOM     22  C   UNL     1      47.067 -17.873 -38.137  0.00  0.00    +0.307 C 
ATOM     23  O   UNL     1      47.229 -16.899 -37.407  0.00  0.00    -0.251 OA
BRANCH  22  24
ATOM     24  O   UNL     1      46.819 -17.695 -39.455  0.00  0.00    -0.463 OA
BRANCH  24  25
ATOM     25  C   UNL     1      45.502 -17.684 -40.046  0.00  0.00    +0.105 C 
BRANCH  25  26
ATOM     26  C   UNL     1      45.451 -18.637 -41.249  0.00  0.00    +0.033 C 
BRANCH  26  27
ATOM     27  N   UNL     1      46.120 -19.926 -41.007  0.00  0.00    -0.295 N 
ATOM     28  C   UNL     1      46.585 -20.562 -42.261  0.00  0.00    +0.023 C 
ATOM     29  C   UNL     1      47.196 -21.948 -41.996  0.00  0.00    +0.060 C 
ATOM     30  O   UNL     1      46.256 -22.814 -41.349  0.00  0.00    -0.377 OA
ATOM     31  C   UNL     1      45.839 -22.237 -40.105  0.00  0.00    +0.060 C 
ATOM     32  C   UNL     1      45.194 -20.859 -40.323  0.00  0.00    +0.023 C 
ATOM     33  H   UNL     1      46.933 -19.731 -40.423  0.00  0.00    +0.000 HD
ENDBRANCH  26  27
ENDBRANCH  25  26
ENDBRANCH  24  25
ENDBRANCH  22  24
ENDBRANCH  21  22
ENDBRANCH  20  21
ENDBRANCH  18  20
ENDBRANCH   1  18
TORSDOF 11
ENDMDL
MODEL 17
REMARK VINA RESULT:    -5.560      2.015      4.575
REMARK INTER + INTRA:         -10.914
REMARK INTER:                  -9.152
REMARK INTRA:                  -1.762
REMARK UNBOUND:                -1.941
REMARK  Name = cpd287.pdb
REMARK  15 active torsions:
REMARK  status: ('A' for Active; 'I' for Inactive)
REMARK    1  A    between atoms: C_1  and  C_2
REMARK    2  A    between atoms: C_2  and  C_3
REMARK    3  A    between atoms: C_2  and  C_20
REMARK    4  A    between atoms: C_3  and  C_4
REMARK    5  A    between atoms: C_4  and  C_5
REMARK    6  A    between atoms: C_6  and  C_7
REMARK    7  A    between atoms: C_7  and  O_8
REMARK    8  A    between atoms: C_12  and  C_13
REMARK    9  A    between atoms: C_12  and  C_14
REMARK   10  A    between atoms: C_18  and  C_19
REMARK   11  A    between atoms: C_20  and  C_21
REMARK   12  A    between atoms: C_21  and  O_23
REMARK   13  A    between atoms: O_23  and  C_24
REMARK   14  A    between atoms: C_24  and  C_25
REMARK   15  A    between atoms: C_25  and  N_26
REMARK                            x       y       z     vdW  Elec       q    Type
REMARK                         _______ _______ _______ _____ _____    ______ ____
ROOT
ATOM      1  C   UNL     1      42.183 -19.824 -37.287  0.00  0.00    -0.046 C 
ENDROOT
BRANCH   1   2
ATOM      2  C   UNL     1      42.647 -20.979 -38.239  0.00  0.00    -0.012 C 
ATOM      3  C   UNL     1      41.469 -21.625 -38.986  0.00  0.00    -0.045 C 
ATOM      4  C   UNL     1      41.570 -21.952 -40.285  0.00  0.00    -0.082 C 
ATOM      5  C   UNL     1      42.785 -21.779 -41.126  0.00  0.00    -0.031 C 
ATOM      6  C   UNL     1      44.098 -21.551 -40.340  0.00  0.00    -0.027 C 
ATOM      7  C   UNL     1      45.311 -21.189 -41.302  0.00  0.00    -0.031 C 
ATOM      8  C   UNL     1      46.603 -21.895 -40.820  0.00  0.00    -0.060 C 
ATOM      9  C   UNL     1      45.103 -21.700 -42.752  0.00  0.00    -0.060 C 
ATOM     10  C   UNL     1      45.565 -19.660 -41.366  0.00  0.00    -0.048 C 
ATOM     11  C   UNL     1      44.308 -18.832 -41.140  0.00  0.00    -0.052 C 
ATOM     12  C   UNL     1      43.600 -19.111 -39.808  0.00  0.00    -0.047 C 
ATOM     13  C   UNL     1      43.857 -20.514 -39.183  0.00  0.00    -0.022 C 
ATOM     14  C   UNL     1      45.100 -20.437 -38.252  0.00  0.00    -0.059 C 
BRANCH   3  15
ATOM     15  C   UNL     1      40.227 -21.965 -38.182  0.00  0.00    +0.066 C 
BRANCH  15  16
ATOM     16  O   UNL     1      40.475 -22.950 -37.186  0.00  0.00    -0.391 OA
ATOM     17  H   UNL     1      39.785 -22.903 -36.506  0.00  0.00    +0.000 HD
ENDBRANCH  15  16
ENDBRANCH   3  15
ENDBRANCH   1   2
BRANCH   1  18
ATOM     18  C   UNL     1      42.480 -20.054 -35.792  0.00  0.00    -0.049 C 
BRANCH  18  20
ATOM     19  C   UNL     1      40.066 -20.118 -34.976  0.00  0.00    -0.062 C 
ATOM     20  C   UNL     1      41.439 -19.458 -34.818  0.00  0.00    -0.034 C 
BRANCH  20  21
ATOM     21  C   UNL     1      41.924 -19.530 -33.354  0.00  0.00    +0.048 C 
BRANCH  21  22
ATOM     22  C   UNL     1      42.898 -18.437 -32.969  0.00  0.00    +0.307 C 
ATOM     23  O   UNL     1      42.507 -17.293 -32.752  0.00  0.00    -0.251 OA
BRANCH  22  24
ATOM     24  O   UNL     1      44.219 -18.720 -32.927  0.00  0.00    -0.463 OA
BRANCH  24  25
ATOM     25  C   UNL     1      45.244 -17.944 -33.582  0.00  0.00    +0.105 C 
BRANCH  25  26
ATOM     26  C   UNL     1      45.846 -18.738 -34.752  0.00  0.00    +0.033 C 
BRANCH  26  27
ATOM     27  N   UNL     1      45.971 -17.956 -35.992  0.00  0.00    -0.295 N 
ATOM     28  C   UNL     1      47.179 -17.101 -35.998  0.00  0.00    +0.023 C 
ATOM     29  C   UNL     1      47.242 -16.223 -37.259  0.00  0.00    +0.060 C 
ATOM     30  O   UNL     1      46.077 -15.396 -37.374  0.00  0.00    -0.377 OA
ATOM     31  C   UNL     1      44.902 -16.214 -37.427  0.00  0.00    +0.060 C 
ATOM     32  C   UNL     1      44.782 -17.089 -36.169  0.00  0.00    +0.023 C 
ATOM     33  H   UNL     1      46.047 -18.627 -36.757  0.00  0.00    +0.000 HD
ENDBRANCH  26  27
ENDBRANCH  25  26
ENDBRANCH  24  25
ENDBRANCH  22  24
ENDBRANCH  21  22
ENDBRANCH  20  21
ENDBRANCH  18  20
ENDBRANCH   1  18
TORSDOF 11
ENDMDL
MODEL 18
REMARK VINA RESULT:    -5.456      2.874      7.585
REMARK INTER + INTRA:         -10.746
REMARK INTER:                  -9.737
REMARK INTRA:                  -1.010
REMARK UNBOUND:                -1.941
REMARK  Name = cpd287.pdb
REMARK  15 active torsions:
REMARK  status: ('A' for Active; 'I' for Inactive)
REMARK    1  A    between atoms: C_1  and  C_2
REMARK    2  A    between atoms: C_2  and  C_3
REMARK    3  A    between atoms: C_2  and  C_20
REMARK    4  A    between atoms: C_3  and  C_4
REMARK    5  A    between atoms: C_4  and  C_5
REMARK    6  A    between atoms: C_6  and  C_7
REMARK    7  A    between atoms: C_7  and  O_8
REMARK    8  A    between atoms: C_12  and  C_13
REMARK    9  A    between atoms: C_12  and  C_14
REMARK   10  A    between atoms: C_18  and  C_19
REMARK   11  A    between atoms: C_20  and  C_21
REMARK   12  A    between atoms: C_21  and  O_23
REMARK   13  A    between atoms: O_23  and  C_24
REMARK   14  A    between atoms: C_24  and  C_25
REMARK   15  A    between atoms: C_25  and  N_26
REMARK                            x       y       z     vdW  Elec       q    Type
REMARK                         _______ _______ _______ _____ _____    ______ ____
ROOT
ATOM      1  C   UNL     1      41.887 -18.726 -36.335  0.00  0.00    -0.046 C 
ENDROOT
BRANCH   1   2
ATOM      2  C   UNL     1      40.765 -19.811 -36.472  0.00  0.00    -0.012 C 
ATOM      3  C   UNL     1      41.151 -20.926 -37.457  0.00  0.00    -0.045 C 
ATOM      4  C   UNL     1      40.882 -22.213 -37.185  0.00  0.00    -0.082 C 
ATOM      5  C   UNL     1      40.173 -22.709 -35.974  0.00  0.00    -0.031 C 
ATOM      6  C   UNL     1      39.394 -21.630 -35.184  0.00  0.00    -0.027 C 
ATOM      7  C   UNL     1      38.825 -22.194 -33.811  0.00  0.00    -0.031 C 
ATOM      8  C   UNL     1      37.404 -21.635 -33.553  0.00  0.00    -0.060 C 
ATOM      9  C   UNL     1      38.646 -23.734 -33.820  0.00  0.00    -0.060 C 
ATOM     10  C   UNL     1      39.737 -21.826 -32.611  0.00  0.00    -0.048 C 
ATOM     11  C   UNL     1      41.203 -21.677 -32.994  0.00  0.00    -0.052 C 
ATOM     12  C   UNL     1      41.466 -20.635 -34.088  0.00  0.00    -0.047 C 
ATOM     13  C   UNL     1      40.271 -20.333 -35.039  0.00  0.00    -0.022 C 
ATOM     14  C   UNL     1      39.428 -19.169 -34.444  0.00  0.00    -0.059 C 
BRANCH   3  15
ATOM     15  C   UNL     1      41.759 -20.512 -38.785  0.00  0.00    +0.066 C 
BRANCH  15  16
ATOM     16  O   UNL     1      40.971 -20.920 -39.897  0.00  0.00    -0.391 OA
ATOM     17  H   UNL     1      41.192 -21.834 -40.132  0.00  0.00    +0.000 HD
ENDBRANCH  15  16
ENDBRANCH   3  15
ENDBRANCH   1   2
BRANCH   1  18
ATOM     18  C   UNL     1      43.327 -19.259 -36.478  0.00  0.00    -0.049 C 
BRANCH  18  20
ATOM     19  C   UNL     1      43.967 -17.837 -34.462  0.00  0.00    -0.062 C 
ATOM     20  C   UNL     1      44.417 -18.384 -35.820  0.00  0.00    -0.034 C 
BRANCH  20  21
ATOM     21  C   UNL     1      45.756 -19.143 -35.696  0.00  0.00    +0.048 C 
BRANCH  21  22
ATOM     22  C   UNL     1      46.771 -18.788 -36.762  0.00  0.00    +0.307 C 
ATOM     23  O   UNL     1      47.201 -17.642 -36.865  0.00  0.00    -0.251 OA
BRANCH  22  24
ATOM     24  O   UNL     1      47.155 -19.737 -37.645  0.00  0.00    -0.463 OA
BRANCH  24  25
ATOM     25  C   UNL     1      46.262 -20.677 -38.277  0.00  0.00    +0.105 C 
BRANCH  25  26
ATOM     26  C   UNL     1      45.610 -20.041 -39.515  0.00  0.00    +0.033 C 
BRANCH  26  27
ATOM     27  N   UNL     1      45.961 -20.713 -40.776  0.00  0.00    -0.295 N 
ATOM     28  C   UNL     1      44.795 -21.372 -41.406  0.00  0.00    +0.023 C 
ATOM     29  C   UNL     1      45.200 -22.146 -42.671  0.00  0.00    +0.060 C 
ATOM     30  O   UNL     1      46.198 -23.132 -42.378  0.00  0.00    -0.377 OA
ATOM     31  C   UNL     1      47.357 -22.501 -41.820  0.00  0.00    +0.060 C 
ATOM     32  C   UNL     1      47.004 -21.737 -40.534  0.00  0.00    +0.023 C 
ATOM     33  H   UNL     1      46.304 -19.991 -41.409  0.00  0.00    +0.000 HD
ENDBRANCH  26  27
ENDBRANCH  25  26
ENDBRANCH  24  25
ENDBRANCH  22  24
ENDBRANCH  21  22
ENDBRANCH  20  21
ENDBRANCH  18  20
ENDBRANCH   1  18
TORSDOF 11
ENDMDL
MODEL 19
REMARK VINA RESULT:    -5.357      2.411      5.060
REMARK INTER + INTRA:         -10.586
REMARK INTER:                  -9.146
REMARK INTRA:                  -1.440
REMARK UNBOUND:                -1.941
REMARK  Name = cpd287.pdb
REMARK  15 active torsions:
REMARK  status: ('A' for Active; 'I' for Inactive)
REMARK    1  A    between atoms: C_1  and  C_2
REMARK    2  A    between atoms: C_2  and  C_3
REMARK    3  A    between atoms: C_2  and  C_20
REMARK    4  A    between atoms: C_3  and  C_4
REMARK    5  A    between atoms: C_4  and  C_5
REMARK    6  A    between atoms: C_6  and  C_7
REMARK    7  A    between atoms: C_7  and  O_8
REMARK    8  A    between atoms: C_12  and  C_13
REMARK    9  A    between atoms: C_12  and  C_14
REMARK   10  A    between atoms: C_18  and  C_19
REMARK   11  A    between atoms: C_20  and  C_21
REMARK   12  A    between atoms: C_21  and  O_23
REMARK   13  A    between atoms: O_23  and  C_24
REMARK   14  A    between atoms: C_24  and  C_25
REMARK   15  A    between atoms: C_25  and  N_26
REMARK                            x       y       z     vdW  Elec       q    Type
REMARK                         _______ _______ _______ _____ _____    ______ ____
ROOT
ATOM      1  C   UNL     1      42.389 -21.108 -36.289  0.00  0.00    -0.046 C 
ENDROOT
BRANCH   1   2
ATOM      2  C   UNL     1      43.340 -19.914 -36.642  0.00  0.00    -0.012 C 
ATOM      3  C   UNL     1      44.639 -19.943 -35.821  0.00  0.00    -0.045 C 
ATOM      4  C   UNL     1      45.823 -19.663 -36.389  0.00  0.00    -0.082 C 
ATOM      5  C   UNL     1      46.026 -19.269 -37.810  0.00  0.00    -0.031 C 
ATOM      6  C   UNL     1      44.747 -18.807 -38.550  0.00  0.00    -0.027 C 
ATOM      7  C   UNL     1      45.008 -18.585 -40.102  0.00  0.00    -0.031 C 
ATOM      8  C   UNL     1      44.250 -17.327 -40.595  0.00  0.00    -0.060 C 
ATOM      9  C   UNL     1      46.497 -18.299 -40.429  0.00  0.00    -0.060 C 
ATOM     10  C   UNL     1      44.560 -19.807 -40.946  0.00  0.00    -0.048 C 
ATOM     11  C   UNL     1      44.651 -21.125 -40.190  0.00  0.00    -0.052 C 
ATOM     12  C   UNL     1      43.841 -21.163 -38.888  0.00  0.00    -0.047 C 
ATOM     13  C   UNL     1      43.559 -19.783 -38.225  0.00  0.00    -0.022 C 
ATOM     14  C   UNL     1      42.221 -19.215 -38.780  0.00  0.00    -0.059 C 
BRANCH   3  15
ATOM     15  C   UNL     1      44.523 -20.205 -34.330  0.00  0.00    +0.066 C 
BRANCH  15  16
ATOM     16  O   UNL     1      45.457 -21.175 -33.872  0.00  0.00    -0.391 OA
ATOM     17  H   UNL     1      45.894 -21.588 -34.633  0.00  0.00    +0.000 HD
ENDBRANCH  15  16
ENDBRANCH   3  15
ENDBRANCH   1   2
BRANCH   1  18
ATOM     18  C   UNL     1      41.044 -20.703 -35.653  0.00  0.00    -0.049 C 
BRANCH  18  20
ATOM     19  C   UNL     1      39.674 -21.489 -37.653  0.00  0.00    -0.062 C 
ATOM     20  C   UNL     1      39.822 -21.520 -36.129  0.00  0.00    -0.034 C 
BRANCH  20  21
ATOM     21  C   UNL     1      39.869 -22.971 -35.605  0.00  0.00    +0.048 C 
BRANCH  21  22
ATOM     22  C   UNL     1      39.674 -23.097 -34.110  0.00  0.00    +0.307 C 
ATOM     23  O   UNL     1      40.538 -23.608 -33.401  0.00  0.00    -0.251 OA
BRANCH  22  24
ATOM     24  O   UNL     1      38.504 -22.693 -33.564  0.00  0.00    -0.463 OA
BRANCH  24  25
ATOM     25  C   UNL     1      38.353 -21.538 -32.713  0.00  0.00    +0.105 C 
BRANCH  25  26
ATOM     26  C   UNL     1      36.916 -21.000 -32.796  0.00  0.00    +0.033 C 
BRANCH  26  27
ATOM     27  N   UNL     1      36.814 -19.694 -33.467  0.00  0.00    -0.295 N 
ATOM     28  C   UNL     1      38.131 -19.036 -33.619  0.00  0.00    +0.023 C 
ATOM     29  C   UNL     1      37.993 -17.635 -34.237  0.00  0.00    +0.060 C 
ATOM     30  O   UNL     1      37.137 -16.802 -33.444  0.00  0.00    -0.377 OA
ATOM     31  C   UNL     1      35.839 -17.400 -33.336  0.00  0.00    +0.060 C 
ATOM     32  C   UNL     1      35.926 -18.794 -32.696  0.00  0.00    +0.023 C 
ATOM     33  H   UNL     1      36.432 -19.870 -34.397  0.00  0.00    +0.000 HD
ENDBRANCH  26  27
ENDBRANCH  25  26
ENDBRANCH  24  25
ENDBRANCH  22  24
ENDBRANCH  21  22
ENDBRANCH  20  21
ENDBRANCH  18  20
ENDBRANCH   1  18
TORSDOF 11
ENDMDL
MODEL 20
REMARK VINA RESULT:    -5.306      2.991      7.595
REMARK INTER + INTRA:         -10.504
REMARK INTER:                  -9.223
REMARK INTRA:                  -1.281
REMARK UNBOUND:                -1.941
REMARK  Name = cpd287.pdb
REMARK  15 active torsions:
REMARK  status: ('A' for Active; 'I' for Inactive)
REMARK    1  A    between atoms: C_1  and  C_2
REMARK    2  A    between atoms: C_2  and  C_3
REMARK    3  A    between atoms: C_2  and  C_20
REMARK    4  A    between atoms: C_3  and  C_4
REMARK    5  A    between atoms: C_4  and  C_5
REMARK    6  A    between atoms: C_6  and  C_7
REMARK    7  A    between atoms: C_7  and  O_8
REMARK    8  A    between atoms: C_12  and  C_13
REMARK    9  A    between atoms: C_12  and  C_14
REMARK   10  A    between atoms: C_18  and  C_19
REMARK   11  A    between atoms: C_20  and  C_21
REMARK   12  A    between atoms: C_21  and  O_23
REMARK   13  A    between atoms: O_23  and  C_24
REMARK   14  A    between atoms: C_24  and  C_25
REMARK   15  A    between atoms: C_25  and  N_26
REMARK                            x       y       z     vdW  Elec       q    Type
REMARK                         _______ _______ _______ _____ _____    ______ ____
ROOT
ATOM      1  C   UNL     1      40.327 -20.074 -38.829  0.00  0.00    -0.046 C 
ENDROOT
BRANCH   1   2
ATOM      2  C   UNL     1      39.889 -19.621 -37.395  0.00  0.00    -0.012 C 
ATOM      3  C   UNL     1      38.493 -18.977 -37.390  0.00  0.00    -0.045 C 
ATOM      4  C   UNL     1      37.609 -19.250 -36.416  0.00  0.00    -0.082 C 
ATOM      5  C   UNL     1      37.860 -20.136 -35.247  0.00  0.00    -0.031 C 
ATOM      6  C   UNL     1      39.350 -20.451 -34.973  0.00  0.00    -0.027 C 
ATOM      7  C   UNL     1      39.524 -21.547 -33.834  0.00  0.00    -0.031 C 
ATOM      8  C   UNL     1      40.719 -21.178 -32.919  0.00  0.00    -0.060 C 
ATOM      9  C   UNL     1      38.306 -21.621 -32.877  0.00  0.00    -0.060 C 
ATOM     10  C   UNL     1      39.757 -22.963 -34.421  0.00  0.00    -0.048 C 
ATOM     11  C   UNL     1      39.102 -23.165 -35.781  0.00  0.00    -0.052 C 
ATOM     12  C   UNL     1      39.549 -22.160 -36.851  0.00  0.00    -0.047 C 
ATOM     13  C   UNL     1      40.081 -20.796 -36.321  0.00  0.00    -0.022 C 
ATOM     14  C   UNL     1      41.617 -20.901 -36.096  0.00  0.00    -0.059 C 
BRANCH   3  15
ATOM     15  C   UNL     1      38.186 -17.954 -38.469  0.00  0.00    +0.066 C 
BRANCH  15  16
ATOM     16  O   UNL     1      36.924 -18.174 -39.087  0.00  0.00    -0.391 OA
ATOM     17  H   UNL     1      36.969 -18.971 -39.638  0.00  0.00    +0.000 HD
ENDBRANCH  15  16
ENDBRANCH   3  15
ENDBRANCH   1   2
BRANCH   1  18
ATOM     18  C   UNL     1      41.729 -19.598 -39.262  0.00  0.00    -0.049 C 
BRANCH  18  20
ATOM     19  C   UNL     1      42.063 -22.092 -39.668  0.00  0.00    -0.062 C 
ATOM     20  C   UNL     1      42.746 -20.727 -39.544  0.00  0.00    -0.034 C 
BRANCH  20  21
ATOM     21  C   UNL     1      43.604 -20.420 -40.790  0.00  0.00    +0.048 C 
BRANCH  21  22
ATOM     22  C   UNL     1      44.425 -19.153 -40.680  0.00  0.00    +0.307 C 
ATOM     23  O   UNL     1      44.182 -18.181 -41.390  0.00  0.00    -0.251 OA
BRANCH  22  24
ATOM     24  O   UNL     1      45.475 -19.122 -39.829  0.00  0.00    -0.463 OA
BRANCH  24  25
ATOM     25  C   UNL     1      46.050 -20.284 -39.195  0.00  0.00    +0.105 C 
BRANCH  25  26
ATOM     26  C   UNL     1      47.386 -19.921 -38.531  0.00  0.00    +0.033 C 
BRANCH  26  27
ATOM     27  N   UNL     1      47.360 -20.016 -37.062  0.00  0.00    -0.295 N 
ATOM     28  C   UNL     1      46.030 -20.414 -36.549  0.00  0.00    +0.023 C 
ATOM     29  C   UNL     1      45.998 -20.417 -35.011  0.00  0.00    +0.060 C 
ATOM     30  O   UNL     1      46.342 -19.129 -34.484  0.00  0.00    -0.377 OA
ATOM     31  C   UNL     1      47.652 -18.756 -34.927  0.00  0.00    +0.060 C 
ATOM     32  C   UNL     1      47.724 -18.711 -36.461  0.00  0.00    +0.023 C 
ATOM     33  H   UNL     1      48.035 -20.735 -36.801  0.00  0.00    +0.000 HD
ENDBRANCH  26  27
ENDBRANCH  25  26
ENDBRANCH  24  25
ENDBRANCH  22  24
ENDBRANCH  21  22
ENDBRANCH  20  21
ENDBRANCH  18  20
ENDBRANCH   1  18
TORSDOF 11
ENDMDL
