REMARK  Name = cpd287.pdb
REMARK  15 active torsions:
REMARK  status: ('A' for Active; 'I' for Inactive)
REMARK    1  A    between atoms: C_1  and  C_2
REMARK    2  A    between atoms: C_2  and  C_3
REMARK    3  A    between atoms: C_2  and  C_20
REMARK    4  A    between atoms: C_3  and  C_4
REMARK    5  A    between atoms: C_4  and  C_5
REMARK    6  A    between atoms: C_6  and  C_7
REMARK    7  A    between atoms: C_7  and  O_8
REMARK    8  A    between atoms: C_12  and  C_13
REMARK    9  A    between atoms: C_12  and  C_14
REMARK   10  A    between atoms: C_18  and  C_19
REMARK   11  A    between atoms: C_20  and  C_21
REMARK   12  A    between atoms: C_21  and  O_23
REMARK   13  A    between atoms: O_23  and  C_24
REMARK   14  A    between atoms: C_24  and  C_25
REMARK   15  A    between atoms: C_25  and  N_26
REMARK                            x       y       z     vdW  Elec       q    Type
REMARK                         _______ _______ _______ _____ _____    ______ ____
ROOT
ATOM      1  C   UNL     1      -7.125  -1.743   1.800  0.00  0.00    -0.046 C 
ENDROOT
BRANCH   1   2
ATOM      2  C   UNL     1      -7.924  -2.087   0.497  0.00  0.00    -0.012 C 
ATOM      3  C   UNL     1      -8.359  -3.561   0.454  0.00  0.00    -0.045 C 
ATOM      4  C   UNL     1      -9.582  -3.909   0.021  0.00  0.00    -0.082 C 
ATOM      5  C   UNL     1     -10.617  -2.968  -0.487  0.00  0.00    -0.031 C 
ATOM      6  C   UNL     1     -10.093  -1.563  -0.870  0.00  0.00    -0.027 C 
ATOM      7  C   UNL     1     -11.278  -0.563  -1.221  0.00  0.00    -0.031 C 
ATOM      8  C   UNL     1     -10.886   0.324  -2.429  0.00  0.00    -0.060 C 
ATOM      9  C   UNL     1     -12.569  -1.294  -1.674  0.00  0.00    -0.060 C 
ATOM     10  C   UNL     1     -11.642   0.350  -0.021  0.00  0.00    -0.048 C 
ATOM     11  C   UNL     1     -11.371  -0.297   1.330  0.00  0.00    -0.052 C 
ATOM     12  C   UNL     1      -9.918  -0.744   1.535  0.00  0.00    -0.047 C 
ATOM     13  C   UNL     1      -9.109  -1.038   0.238  0.00  0.00    -0.022 C 
ATOM     14  C   UNL     1      -8.407   0.268  -0.232  0.00  0.00    -0.059 C 
BRANCH   3  15
ATOM     15  C   UNL     1      -7.327  -4.610   0.826  0.00  0.00    +0.066 C 
BRANCH  15  16
ATOM     16  O   UNL     1      -7.846  -5.933   0.763  0.00  0.00    -0.391 OA
ATOM     17  H   UNL     1      -8.576  -6.024   1.395  0.00  0.00    +0.000 HD
ENDBRANCH  15  16
ENDBRANCH   3  15
ENDBRANCH   1   2
BRANCH   1  18
ATOM     18  C   UNL     1      -5.598  -1.929   1.695  0.00  0.00    -0.049 C 
BRANCH  18  20
ATOM     19  C   UNL     1      -4.783   0.486   1.700  0.00  0.00    -0.062 C 
ATOM     20  C   UNL     1      -4.856  -0.824   0.910  0.00  0.00    -0.034 C 
BRANCH  20  21
ATOM     21  C   UNL     1      -3.450  -1.286   0.470  0.00  0.00    +0.048 C 
BRANCH  21  22
ATOM     22  C   UNL     1      -2.548  -1.700   1.613  0.00  0.00    +0.307 C 
ATOM     23  O   UNL     1      -2.670  -2.800   2.146  0.00  0.00    -0.251 OA
BRANCH  22  24
ATOM     24  O   UNL     1      -1.640  -0.817   2.086  0.00  0.00    -0.463 OA
BRANCH  24  25
ATOM     25  C   UNL     1      -1.149   0.325   1.353  0.00  0.00    +0.105 C 
BRANCH  25  26
ATOM     26  C   UNL     1      -0.122  -0.120   0.301  0.00  0.00    +0.033 C 
BRANCH  26  27
ATOM     27  N   UNL     1       0.520   1.000  -0.406  0.00  0.00    -0.295 N 
ATOM     28  C   UNL     1      -0.405   1.679  -1.341  0.00  0.00    +0.023 C 
ATOM     29  C   UNL     1       0.309   2.784  -2.137  0.00  0.00    +0.060 C 
ATOM     30  O   UNL     1       1.421   2.257  -2.872  0.00  0.00    -0.377 OA
ATOM     31  C   UNL     1       2.354   1.646  -1.972  0.00  0.00    +0.060 C 
ATOM     32  C   UNL     1       1.690   0.513  -1.174  0.00  0.00    +0.023 C 
ATOM     33  H   UNL     1       0.809   1.671   0.306  0.00  0.00    +0.000 HD
ENDBRANCH  26  27
ENDBRANCH  25  26
ENDBRANCH  24  25
ENDBRANCH  22  24
ENDBRANCH  21  22
ENDBRANCH  20  21
ENDBRANCH  18  20
ENDBRANCH   1  18
TORSDOF 11
