MODEL 1
REMARK VINA RESULT:    -7.831      0.000      0.000
REMARK INTER + INTRA:         -11.516
REMARK INTER:                  -9.662
REMARK INTRA:                  -1.854
REMARK UNBOUND:                -1.854
REMARK  Name = cpd346.pdb
REMARK  4 active torsions:
REMARK  status: ('A' for Active; 'I' for Inactive)
REMARK    1  A    between atoms: C_6  and  C_7
REMARK    2  A    between atoms: C_7  and  N_8
REMARK    3  A    between atoms: C_12  and  C_13
REMARK    4  A    between atoms: C_13  and  N_14
REMARK                            x       y       z     vdW  Elec       q    Type
REMARK                         _______ _______ _______ _____ _____    ______ ____
ROOT
ATOM      1  N   UNL A   1      32.607 -36.830 -32.231  0.00  0.00    -0.349 N 
ATOM      2  C   UNL A   1      31.586 -36.070 -32.691  0.00  0.00    +0.005 A 
ATOM      3  C   UNL A   1      31.643 -34.687 -32.613  0.00  0.00    -0.045 A 
ATOM      4  C   UNL A   1      32.755 -34.084 -32.038  0.00  0.00    -0.054 A 
ATOM      5  C   UNL A   1      33.798 -34.868 -31.541  0.00  0.00    -0.012 A 
ATOM      6  C   UNL A   1      33.696 -36.255 -31.664  0.00  0.00    +0.010 A 
ENDROOT
BRANCH   1   7
ATOM      7  C   UNL A   1      32.509 -38.311 -32.311  0.00  0.00    +0.048 C 
BRANCH   7  13
ATOM      8 CL   UNL A   1      36.219 -40.850 -29.670  0.00  0.00    -0.084 Cl
ATOM      9  C   UNL A   1      34.649 -40.159 -29.757  0.00  0.00    +0.041 A 
ATOM     10  C   UNL A   1      33.804 -40.208 -28.653  0.00  0.00    -0.043 A 
ATOM     11  C   UNL A   1      32.530 -39.648 -28.731  0.00  0.00    -0.060 A 
ATOM     12  C   UNL A   1      32.103 -39.035 -29.912  0.00  0.00    -0.057 A 
ATOM     13  C   UNL A   1      32.953 -38.968 -31.028  0.00  0.00    -0.026 A 
ATOM     14  C   UNL A   1      34.230 -39.547 -30.941  0.00  0.00    -0.039 A 
ENDBRANCH   7  13
ENDBRANCH   1   7
BRANCH   5  15
ATOM     15  C   UNL A   1      35.009 -34.245 -30.881  0.00  0.00    +0.050 C 
BRANCH  15  16
ATOM     16  N   UNL A   1      35.847 -35.250 -30.237  0.00  0.00    -0.339 N 
ATOM     17  C   UNL A   1      37.098 -35.638 -30.657  0.00  0.00    +0.023 A 
ATOM     18  C   UNL A   1      37.547 -36.628 -29.803  0.00  0.00    -0.019 A 
ATOM     19  C   UNL A   1      36.548 -36.838 -28.817  0.00  0.00    +0.003 A 
ATOM     20  C   UNL A   1      36.445 -37.697 -27.704  0.00  0.00    -0.052 A 
ATOM     21  C   UNL A   1      35.313 -37.642 -26.889  0.00  0.00    -0.061 A 
ATOM     22  C   UNL A   1      34.288 -36.744 -27.165  0.00  0.00    -0.060 A 
ATOM     23  C   UNL A   1      34.363 -35.884 -28.265  0.00  0.00    -0.038 A 
ATOM     24  C   UNL A   1      35.502 -35.949 -29.089  0.00  0.00    +0.050 A 
ATOM     25  C   UNL A   1      38.872 -37.300 -29.962  0.00  0.00    -0.025 C 
ATOM     26  C   UNL A   1      39.802 -36.485 -30.878  0.00  0.00    -0.049 C 
ATOM     27  C   UNL A   1      39.071 -35.984 -32.135  0.00  0.00    -0.047 C 
ATOM     28  C   UNL A   1      37.884 -35.067 -31.791  0.00  0.00    -0.012 C 
ENDBRANCH  15  16
ENDBRANCH   5  15
TORSDOF 4
ENDMDL
MODEL 2
REMARK VINA RESULT:    -7.814      1.451      3.566
REMARK INTER + INTRA:         -11.495
REMARK INTER:                  -9.568
REMARK INTRA:                  -1.926
REMARK UNBOUND:                -1.854
REMARK  Name = cpd346.pdb
REMARK  4 active torsions:
REMARK  status: ('A' for Active; 'I' for Inactive)
REMARK    1  A    between atoms: C_6  and  C_7
REMARK    2  A    between atoms: C_7  and  N_8
REMARK    3  A    between atoms: C_12  and  C_13
REMARK    4  A    between atoms: C_13  and  N_14
REMARK                            x       y       z     vdW  Elec       q    Type
REMARK                         _______ _______ _______ _____ _____    ______ ____
ROOT
ATOM      1  N   UNL A   1      33.485 -37.995 -32.573  0.00  0.00    -0.349 N 
ATOM      2  C   UNL A   1      32.712 -37.344 -33.474  0.00  0.00    +0.005 A 
ATOM      3  C   UNL A   1      32.716 -35.959 -33.539  0.00  0.00    -0.045 A 
ATOM      4  C   UNL A   1      33.511 -35.240 -32.656  0.00  0.00    -0.054 A 
ATOM      5  C   UNL A   1      34.290 -35.910 -31.709  0.00  0.00    -0.012 A 
ATOM      6  C   UNL A   1      34.261 -37.306 -31.701  0.00  0.00    +0.010 A 
ENDROOT
BRANCH   1   7
ATOM      7  C   UNL A   1      33.444 -39.479 -32.513  0.00  0.00    +0.048 C 
BRANCH   7  13
ATOM      8 CL   UNL A   1      33.740 -40.750 -27.465  0.00  0.00    -0.084 Cl
ATOM      9  C   UNL A   1      34.458 -40.615 -29.020  0.00  0.00    +0.041 A 
ATOM     10  C   UNL A   1      35.781 -40.998 -29.212  0.00  0.00    -0.043 A 
ATOM     11  C   UNL A   1      36.357 -40.883 -30.477  0.00  0.00    -0.060 A 
ATOM     12  C   UNL A   1      35.609 -40.391 -31.548  0.00  0.00    -0.057 A 
ATOM     13  C   UNL A   1      34.268 -40.013 -31.368  0.00  0.00    -0.026 A 
ATOM     14  C   UNL A   1      33.702 -40.122 -30.087  0.00  0.00    -0.039 A 
ENDBRANCH   7  13
ENDBRANCH   1   7
BRANCH   5  15
ATOM     15  C   UNL A   1      35.142 -35.156 -30.711  0.00  0.00    +0.050 C 
BRANCH  15  16
ATOM     16  N   UNL A   1      35.530 -36.002 -29.588  0.00  0.00    -0.339 N 
ATOM     17  C   UNL A   1      34.759 -36.263 -28.479  0.00  0.00    +0.023 A 
ATOM     18  C   UNL A   1      35.487 -37.079 -27.636  0.00  0.00    -0.019 A 
ATOM     19  C   UNL A   1      36.736 -37.344 -28.257  0.00  0.00    +0.003 A 
ATOM     20  C   UNL A   1      37.865 -38.102 -27.887  0.00  0.00    -0.052 A 
ATOM     21  C   UNL A   1      38.956 -38.188 -28.755  0.00  0.00    -0.061 A 
ATOM     22  C   UNL A   1      38.934 -37.536 -29.982  0.00  0.00    -0.060 A 
ATOM     23  C   UNL A   1      37.828 -36.774 -30.371  0.00  0.00    -0.038 A 
ATOM     24  C   UNL A   1      36.735 -36.682 -29.490  0.00  0.00    +0.050 A 
ATOM     25  C   UNL A   1      34.968 -37.559 -26.319  0.00  0.00    -0.025 C 
ATOM     26  C   UNL A   1      33.440 -37.400 -26.233  0.00  0.00    -0.049 C 
ATOM     27  C   UNL A   1      32.979 -36.029 -26.755  0.00  0.00    -0.047 C 
ATOM     28  C   UNL A   1      33.357 -35.811 -28.231  0.00  0.00    -0.012 C 
ENDBRANCH  15  16
ENDBRANCH   5  15
TORSDOF 4
ENDMDL
MODEL 3
REMARK VINA RESULT:    -7.615     17.121     20.636
REMARK INTER + INTRA:         -11.249
REMARK INTER:                  -9.793
REMARK INTRA:                  -1.457
REMARK UNBOUND:                -1.854
REMARK  Name = cpd346.pdb
REMARK  4 active torsions:
REMARK  status: ('A' for Active; 'I' for Inactive)
REMARK    1  A    between atoms: C_6  and  C_7
REMARK    2  A    between atoms: C_7  and  N_8
REMARK    3  A    between atoms: C_12  and  C_13
REMARK    4  A    between atoms: C_13  and  N_14
REMARK                            x       y       z     vdW  Elec       q    Type
REMARK                         _______ _______ _______ _____ _____    ______ ____
ROOT
ATOM      1  N   UNL A   1      46.073 -19.737 -37.248  0.00  0.00    -0.349 N 
ATOM      2  C   UNL A   1      46.596 -20.189 -36.084  0.00  0.00    +0.005 A 
ATOM      3  C   UNL A   1      45.787 -20.385 -34.974  0.00  0.00    -0.045 A 
ATOM      4  C   UNL A   1      44.432 -20.095 -35.062  0.00  0.00    -0.054 A 
ATOM      5  C   UNL A   1      43.895 -19.605 -36.255  0.00  0.00    -0.012 A 
ATOM      6  C   UNL A   1      44.753 -19.445 -37.346  0.00  0.00    +0.010 A 
ENDROOT
BRANCH   1   7
ATOM      7  C   UNL A   1      46.967 -19.519 -38.414  0.00  0.00    +0.048 C 
BRANCH   7  13
ATOM      8 CL   UNL A   1      44.654 -20.143 -43.045  0.00  0.00    -0.084 Cl
ATOM      9  C   UNL A   1      45.548 -20.773 -41.720  0.00  0.00    +0.041 A 
ATOM     10  C   UNL A   1      45.940 -22.108 -41.717  0.00  0.00    -0.043 A 
ATOM     11  C   UNL A   1      46.663 -22.612 -40.637  0.00  0.00    -0.060 A 
ATOM     12  C   UNL A   1      46.996 -21.782 -39.564  0.00  0.00    -0.057 A 
ATOM     13  C   UNL A   1      46.616 -20.430 -39.564  0.00  0.00    -0.026 A 
ATOM     14  C   UNL A   1      45.878 -19.936 -40.651  0.00  0.00    -0.039 A 
ENDBRANCH   7  13
ENDBRANCH   1   7
BRANCH   5  15
ATOM     15  C   UNL A   1      42.429 -19.249 -36.375  0.00  0.00    +0.050 C 
BRANCH  15  16
ATOM     16  N   UNL A   1      41.629 -20.399 -36.780  0.00  0.00    -0.339 N 
ATOM     17  C   UNL A   1      40.784 -21.114 -35.964  0.00  0.00    +0.023 A 
ATOM     18  C   UNL A   1      40.234 -22.138 -36.710  0.00  0.00    -0.019 A 
ATOM     19  C   UNL A   1      40.743 -22.035 -38.031  0.00  0.00    +0.003 A 
ATOM     20  C   UNL A   1      40.544 -22.780 -39.211  0.00  0.00    -0.052 A 
ATOM     21  C   UNL A   1      41.187 -22.396 -40.390  0.00  0.00    -0.061 A 
ATOM     22  C   UNL A   1      42.020 -21.283 -40.409  0.00  0.00    -0.060 A 
ATOM     23  C   UNL A   1      42.238 -20.530 -39.251  0.00  0.00    -0.038 A 
ATOM     24  C   UNL A   1      41.595 -20.925 -38.064  0.00  0.00    +0.050 A 
ATOM     25  C   UNL A   1      39.273 -23.133 -36.144  0.00  0.00    -0.025 C 
ATOM     26  C   UNL A   1      38.669 -22.630 -34.821  0.00  0.00    -0.049 C 
ATOM     27  C   UNL A   1      39.740 -22.027 -33.897  0.00  0.00    -0.047 C 
ATOM     28  C   UNL A   1      40.450 -20.821 -34.538  0.00  0.00    -0.012 C 
ENDBRANCH  15  16
ENDBRANCH   5  15
TORSDOF 4
ENDMDL
MODEL 4
REMARK VINA RESULT:    -7.545      2.116      6.129
REMARK INTER + INTRA:         -11.163
REMARK INTER:                 -10.178
REMARK INTRA:                  -0.985
REMARK UNBOUND:                -1.854
REMARK  Name = cpd346.pdb
REMARK  4 active torsions:
REMARK  status: ('A' for Active; 'I' for Inactive)
REMARK    1  A    between atoms: C_6  and  C_7
REMARK    2  A    between atoms: C_7  and  N_8
REMARK    3  A    between atoms: C_12  and  C_13
REMARK    4  A    between atoms: C_13  and  N_14
REMARK                            x       y       z     vdW  Elec       q    Type
REMARK                         _______ _______ _______ _____ _____    ______ ____
ROOT
ATOM      1  N   UNL A   1      37.023 -38.592 -28.775  0.00  0.00    -0.349 N 
ATOM      2  C   UNL A   1      36.878 -39.920 -28.996  0.00  0.00    +0.005 A 
ATOM      3  C   UNL A   1      35.632 -40.458 -29.281  0.00  0.00    -0.045 A 
ATOM      4  C   UNL A   1      34.525 -39.620 -29.321  0.00  0.00    -0.054 A 
ATOM      5  C   UNL A   1      34.669 -38.254 -29.069  0.00  0.00    -0.012 A 
ATOM      6  C   UNL A   1      35.950 -37.765 -28.807  0.00  0.00    +0.010 A 
ENDROOT
BRANCH   1   7
ATOM      7  C   UNL A   1      38.368 -38.048 -28.453  0.00  0.00    +0.048 C 
BRANCH   7  13
ATOM      8 CL   UNL A   1      42.618 -37.453 -31.413  0.00  0.00    -0.084 Cl
ATOM      9  C   UNL A   1      40.973 -37.102 -31.068  0.00  0.00    +0.041 A 
ATOM     10  C   UNL A   1      40.255 -36.246 -31.896  0.00  0.00    -0.043 A 
ATOM     11  C   UNL A   1      38.920 -35.963 -31.608  0.00  0.00    -0.060 A 
ATOM     12  C   UNL A   1      38.304 -36.540 -30.495  0.00  0.00    -0.057 A 
ATOM     13  C   UNL A   1      39.017 -37.416 -29.659  0.00  0.00    -0.026 A 
ATOM     14  C   UNL A   1      40.364 -37.683 -29.953  0.00  0.00    -0.039 A 
ENDBRANCH   7  13
ENDBRANCH   1   7
BRANCH   5  15
ATOM     15  C   UNL A   1      33.478 -37.319 -29.074  0.00  0.00    +0.050 C 
BRANCH  15  16
ATOM     16  N   UNL A   1      33.472 -36.464 -30.256  0.00  0.00    -0.339 N 
ATOM     17  C   UNL A   1      33.094 -36.850 -31.521  0.00  0.00    +0.023 A 
ATOM     18  C   UNL A   1      33.255 -35.766 -32.363  0.00  0.00    -0.019 A 
ATOM     19  C   UNL A   1      33.727 -34.677 -31.585  0.00  0.00    +0.003 A 
ATOM     20  C   UNL A   1      34.060 -33.340 -31.884  0.00  0.00    -0.052 A 
ATOM     21  C   UNL A   1      34.479 -32.485 -30.862  0.00  0.00    -0.061 A 
ATOM     22  C   UNL A   1      34.566 -32.942 -29.552  0.00  0.00    -0.060 A 
ATOM     23  C   UNL A   1      34.245 -34.264 -29.229  0.00  0.00    -0.038 A 
ATOM     24  C   UNL A   1      33.832 -35.124 -30.263  0.00  0.00    +0.050 A 
ATOM     25  C   UNL A   1      32.953 -35.821 -33.826  0.00  0.00    -0.025 C 
ATOM     26  C   UNL A   1      32.071 -37.034 -34.166  0.00  0.00    -0.049 C 
ATOM     27  C   UNL A   1      32.561 -38.312 -33.464  0.00  0.00    -0.047 C 
ATOM     28  C   UNL A   1      32.544 -38.176 -31.931  0.00  0.00    -0.012 C 
ENDBRANCH  15  16
ENDBRANCH   5  15
TORSDOF 4
ENDMDL
MODEL 5
REMARK VINA RESULT:    -7.539      2.361      4.486
REMARK INTER + INTRA:         -11.156
REMARK INTER:                  -9.322
REMARK INTRA:                  -1.834
REMARK UNBOUND:                -1.854
REMARK  Name = cpd346.pdb
REMARK  4 active torsions:
REMARK  status: ('A' for Active; 'I' for Inactive)
REMARK    1  A    between atoms: C_6  and  C_7
REMARK    2  A    between atoms: C_7  and  N_8
REMARK    3  A    between atoms: C_12  and  C_13
REMARK    4  A    between atoms: C_13  and  N_14
REMARK                            x       y       z     vdW  Elec       q    Type
REMARK                         _______ _______ _______ _____ _____    ______ ____
ROOT
ATOM      1  N   UNL A   1      33.917 -39.282 -31.513  0.00  0.00    -0.349 N 
ATOM      2  C   UNL A   1      34.459 -40.502 -31.737  0.00  0.00    +0.005 A 
ATOM      3  C   UNL A   1      35.642 -40.875 -31.116  0.00  0.00    -0.045 A 
ATOM      4  C   UNL A   1      36.278 -39.976 -30.270  0.00  0.00    -0.054 A 
ATOM      5  C   UNL A   1      35.732 -38.708 -30.056  0.00  0.00    -0.012 A 
ATOM      6  C   UNL A   1      34.530 -38.393 -30.693  0.00  0.00    +0.010 A 
ENDROOT
BRANCH   1   7
ATOM      7  C   UNL A   1      32.660 -38.902 -32.208  0.00  0.00    +0.048 C 
BRANCH   7  13
ATOM      8 CL   UNL A   1      30.117 -34.447 -31.278  0.00  0.00    -0.084 Cl
ATOM      9  C   UNL A   1      31.410 -35.308 -32.009  0.00  0.00    +0.041 A 
ATOM     10  C   UNL A   1      32.353 -34.630 -32.775  0.00  0.00    -0.043 A 
ATOM     11  C   UNL A   1      33.399 -35.337 -33.368  0.00  0.00    -0.060 A 
ATOM     12  C   UNL A   1      33.503 -36.718 -33.191  0.00  0.00    -0.057 A 
ATOM     13  C   UNL A   1      32.563 -37.411 -32.409  0.00  0.00    -0.026 A 
ATOM     14  C   UNL A   1      31.508 -36.690 -31.827  0.00  0.00    -0.039 A 
ENDBRANCH   7  13
ENDBRANCH   1   7
BRANCH   5  15
ATOM     15  C   UNL A   1      36.416 -37.693 -29.166  0.00  0.00    +0.050 C 
BRANCH  15  16
ATOM     16  N   UNL A   1      36.691 -36.451 -29.879  0.00  0.00    -0.339 N 
ATOM     17  C   UNL A   1      37.826 -36.182 -30.609  0.00  0.00    +0.023 A 
ATOM     18  C   UNL A   1      37.720 -34.896 -31.103  0.00  0.00    -0.019 A 
ATOM     19  C   UNL A   1      36.472 -34.368 -30.680  0.00  0.00    +0.003 A 
ATOM     20  C   UNL A   1      35.821 -33.133 -30.876  0.00  0.00    -0.052 A 
ATOM     21  C   UNL A   1      34.549 -32.927 -30.336  0.00  0.00    -0.061 A 
ATOM     22  C   UNL A   1      33.920 -33.932 -29.611  0.00  0.00    -0.060 A 
ATOM     23  C   UNL A   1      34.545 -35.165 -29.399  0.00  0.00    -0.038 A 
ATOM     24  C   UNL A   1      35.830 -35.365 -29.936  0.00  0.00    +0.050 A 
ATOM     25  C   UNL A   1      38.782 -34.254 -31.937  0.00  0.00    -0.025 C 
ATOM     26  C   UNL A   1      39.748 -35.305 -32.510  0.00  0.00    -0.049 C 
ATOM     27  C   UNL A   1      40.164 -36.338 -31.449  0.00  0.00    -0.047 C 
ATOM     28  C   UNL A   1      38.958 -37.114 -30.889  0.00  0.00    -0.012 C 
ENDBRANCH  15  16
ENDBRANCH   5  15
TORSDOF 4
ENDMDL
MODEL 6
REMARK VINA RESULT:    -7.433      2.122      5.432
REMARK INTER + INTRA:         -11.025
REMARK INTER:                  -9.072
REMARK INTRA:                  -1.953
REMARK UNBOUND:                -1.854
REMARK  Name = cpd346.pdb
REMARK  4 active torsions:
REMARK  status: ('A' for Active; 'I' for Inactive)
REMARK    1  A    between atoms: C_6  and  C_7
REMARK    2  A    between atoms: C_7  and  N_8
REMARK    3  A    between atoms: C_12  and  C_13
REMARK    4  A    between atoms: C_13  and  N_14
REMARK                            x       y       z     vdW  Elec       q    Type
REMARK                         _______ _______ _______ _____ _____    ______ ____
ROOT
ATOM      1  N   UNL A   1      38.007 -35.989 -30.785  0.00  0.00    -0.349 N 
ATOM      2  C   UNL A   1      39.346 -35.961 -30.978  0.00  0.00    +0.005 A 
ATOM      3  C   UNL A   1      40.164 -36.921 -30.400  0.00  0.00    -0.045 A 
ATOM      4  C   UNL A   1      39.595 -37.907 -29.603  0.00  0.00    -0.054 A 
ATOM      5  C   UNL A   1      38.215 -37.922 -29.384  0.00  0.00    -0.012 A 
ATOM      6  C   UNL A   1      37.439 -36.942 -30.006  0.00  0.00    +0.010 A 
ENDROOT
BRANCH   1   7
ATOM      7  C   UNL A   1      37.159 -34.935 -31.401  0.00  0.00    +0.048 C 
BRANCH   7  13
ATOM      8 CL   UNL A   1      32.449 -37.053 -32.123  0.00  0.00    -0.084 Cl
ATOM      9  C   UNL A   1      33.505 -36.007 -31.262  0.00  0.00    +0.041 A 
ATOM     10  C   UNL A   1      33.031 -35.281 -30.174  0.00  0.00    -0.043 A 
ATOM     11  C   UNL A   1      33.893 -34.433 -29.481  0.00  0.00    -0.060 A 
ATOM     12  C   UNL A   1      35.228 -34.313 -29.874  0.00  0.00    -0.057 A 
ATOM     13  C   UNL A   1      35.720 -35.051 -30.963  0.00  0.00    -0.026 A 
ATOM     14  C   UNL A   1      34.839 -35.894 -31.661  0.00  0.00    -0.039 A 
ENDBRANCH   7  13
ENDBRANCH   1   7
BRANCH   5  15
ATOM     15  C   UNL A   1      37.568 -38.962 -28.496  0.00  0.00    +0.050 C 
BRANCH  15  16
ATOM     16  N   UNL A   1      36.132 -39.054 -28.735  0.00  0.00    -0.339 N 
ATOM     17  C   UNL A   1      35.531 -39.795 -29.726  0.00  0.00    +0.023 A 
ATOM     18  C   UNL A   1      34.166 -39.597 -29.638  0.00  0.00    -0.019 A 
ATOM     19  C   UNL A   1      33.922 -38.722 -28.547  0.00  0.00    +0.003 A 
ATOM     20  C   UNL A   1      32.753 -38.177 -27.981  0.00  0.00    -0.052 A 
ATOM     21  C   UNL A   1      32.847 -37.347 -26.860  0.00  0.00    -0.061 A 
ATOM     22  C   UNL A   1      34.086 -37.060 -26.298  0.00  0.00    -0.060 A 
ATOM     23  C   UNL A   1      35.261 -37.586 -26.843  0.00  0.00    -0.038 A 
ATOM     24  C   UNL A   1      35.163 -38.413 -27.977  0.00  0.00    +0.050 A 
ATOM     25  C   UNL A   1      33.189 -40.238 -30.570  0.00  0.00    -0.025 C 
ATOM     26  C   UNL A   1      33.827 -41.426 -31.312  0.00  0.00    -0.049 C 
ATOM     27  C   UNL A   1      35.233 -41.084 -31.834  0.00  0.00    -0.047 C 
ATOM     28  C   UNL A   1      36.200 -40.710 -30.697  0.00  0.00    -0.012 C 
ENDBRANCH  15  16
ENDBRANCH   5  15
TORSDOF 4
ENDMDL
MODEL 7
REMARK VINA RESULT:    -7.397      2.131      5.881
REMARK INTER + INTRA:         -10.980
REMARK INTER:                  -9.110
REMARK INTRA:                  -1.870
REMARK UNBOUND:                -1.854
REMARK  Name = cpd346.pdb
REMARK  4 active torsions:
REMARK  status: ('A' for Active; 'I' for Inactive)
REMARK    1  A    between atoms: C_6  and  C_7
REMARK    2  A    between atoms: C_7  and  N_8
REMARK    3  A    between atoms: C_12  and  C_13
REMARK    4  A    between atoms: C_13  and  N_14
REMARK                            x       y       z     vdW  Elec       q    Type
REMARK                         _______ _______ _______ _____ _____    ______ ____
ROOT
ATOM      1  N   UNL A   1      38.053 -35.935 -30.783  0.00  0.00    -0.349 N 
ATOM      2  C   UNL A   1      39.392 -35.896 -30.977  0.00  0.00    +0.005 A 
ATOM      3  C   UNL A   1      40.218 -36.849 -30.400  0.00  0.00    -0.045 A 
ATOM      4  C   UNL A   1      39.658 -37.840 -29.604  0.00  0.00    -0.054 A 
ATOM      5  C   UNL A   1      38.279 -37.867 -29.383  0.00  0.00    -0.012 A 
ATOM      6  C   UNL A   1      37.494 -36.893 -30.004  0.00  0.00    +0.010 A 
ENDROOT
BRANCH   1   7
ATOM      7  C   UNL A   1      37.195 -34.888 -31.398  0.00  0.00    +0.048 C 
BRANCH   7  13
ATOM      8 CL   UNL A   1      32.533 -37.121 -32.075  0.00  0.00    -0.084 Cl
ATOM      9  C   UNL A   1      33.563 -36.029 -31.241  0.00  0.00    +0.041 A 
ATOM     10  C   UNL A   1      33.070 -35.280 -30.178  0.00  0.00    -0.043 A 
ATOM     11  C   UNL A   1      33.911 -34.393 -29.508  0.00  0.00    -0.060 A 
ATOM     12  C   UNL A   1      35.246 -34.259 -29.898  0.00  0.00    -0.057 A 
ATOM     13  C   UNL A   1      35.757 -35.020 -30.963  0.00  0.00    -0.026 A 
ATOM     14  C   UNL A   1      34.897 -35.901 -31.638  0.00  0.00    -0.039 A 
ENDBRANCH   7  13
ENDBRANCH   1   7
BRANCH   5  15
ATOM     15  C   UNL A   1      37.641 -38.913 -28.496  0.00  0.00    +0.050 C 
BRANCH  15  16
ATOM     16  N   UNL A   1      36.205 -39.011 -28.727  0.00  0.00    -0.339 N 
ATOM     17  C   UNL A   1      35.228 -38.416 -27.962  0.00  0.00    +0.023 A 
ATOM     18  C   UNL A   1      34.000 -38.770 -28.487  0.00  0.00    -0.019 A 
ATOM     19  C   UNL A   1      34.232 -39.590 -29.622  0.00  0.00    +0.003 A 
ATOM     20  C   UNL A   1      33.385 -40.232 -30.547  0.00  0.00    -0.052 A 
ATOM     21  C   UNL A   1      33.937 -40.965 -31.600  0.00  0.00    -0.061 A 
ATOM     22  C   UNL A   1      35.317 -41.063 -31.743  0.00  0.00    -0.060 A 
ATOM     23  C   UNL A   1      36.179 -40.439 -30.837  0.00  0.00    -0.038 A 
ATOM     24  C   UNL A   1      35.619 -39.709 -29.773  0.00  0.00    +0.050 A 
ATOM     25  C   UNL A   1      32.703 -38.315 -27.900  0.00  0.00    -0.025 C 
ATOM     26  C   UNL A   1      32.909 -37.113 -26.962  0.00  0.00    -0.049 C 
ATOM     27  C   UNL A   1      34.112 -37.319 -26.026  0.00  0.00    -0.047 C 
ATOM     28  C   UNL A   1      35.429 -37.496 -26.803  0.00  0.00    -0.012 C 
ENDBRANCH  15  16
ENDBRANCH   5  15
TORSDOF 4
ENDMDL
MODEL 8
REMARK VINA RESULT:    -7.185     17.142     20.450
REMARK INTER + INTRA:         -10.719
REMARK INTER:                  -9.308
REMARK INTRA:                  -1.411
REMARK UNBOUND:                -1.854
REMARK  Name = cpd346.pdb
REMARK  4 active torsions:
REMARK  status: ('A' for Active; 'I' for Inactive)
REMARK    1  A    between atoms: C_6  and  C_7
REMARK    2  A    between atoms: C_7  and  N_8
REMARK    3  A    between atoms: C_12  and  C_13
REMARK    4  A    between atoms: C_13  and  N_14
REMARK                            x       y       z     vdW  Elec       q    Type
REMARK                         _______ _______ _______ _____ _____    ______ ____
ROOT
ATOM      1  N   UNL A   1      46.353 -19.535 -37.276  0.00  0.00    -0.349 N 
ATOM      2  C   UNL A   1      47.037 -19.934 -36.178  0.00  0.00    +0.005 A 
ATOM      3  C   UNL A   1      46.388 -20.107 -34.964  0.00  0.00    -0.045 A 
ATOM      4  C   UNL A   1      45.026 -19.849 -34.880  0.00  0.00    -0.054 A 
ATOM      5  C   UNL A   1      44.324 -19.413 -36.007  0.00  0.00    -0.012 A 
ATOM      6  C   UNL A   1      45.025 -19.275 -37.206  0.00  0.00    +0.010 A 
ENDROOT
BRANCH   1   7
ATOM      7  C   UNL A   1      47.079 -19.339 -38.557  0.00  0.00    +0.048 C 
BRANCH   7  13
ATOM      8 CL   UNL A   1      44.263 -20.007 -42.893  0.00  0.00    -0.084 Cl
ATOM      9  C   UNL A   1      45.269 -20.633 -41.650  0.00  0.00    +0.041 A 
ATOM     10  C   UNL A   1      45.609 -21.982 -41.642  0.00  0.00    -0.043 A 
ATOM     11  C   UNL A   1      46.424 -22.483 -40.629  0.00  0.00    -0.060 A 
ATOM     12  C   UNL A   1      46.901 -21.636 -39.626  0.00  0.00    -0.057 A 
ATOM     13  C   UNL A   1      46.574 -20.269 -39.631  0.00  0.00    -0.026 A 
ATOM     14  C   UNL A   1      45.742 -19.778 -40.651  0.00  0.00    -0.039 A 
ENDBRANCH   7  13
ENDBRANCH   1   7
BRANCH   5  15
ATOM     15  C   UNL A   1      42.846 -19.093 -35.942  0.00  0.00    +0.050 C 
BRANCH  15  16
ATOM     16  N   UNL A   1      42.029 -20.289 -36.116  0.00  0.00    -0.339 N 
ATOM     17  C   UNL A   1      41.657 -20.835 -37.322  0.00  0.00    +0.023 A 
ATOM     18  C   UNL A   1      40.867 -21.939 -37.064  0.00  0.00    -0.019 A 
ATOM     19  C   UNL A   1      40.770 -22.086 -35.656  0.00  0.00    +0.003 A 
ATOM     20  C   UNL A   1      40.118 -23.012 -34.817  0.00  0.00    -0.052 A 
ATOM     21  C   UNL A   1      40.241 -22.898 -33.430  0.00  0.00    -0.061 A 
ATOM     22  C   UNL A   1      41.006 -21.880 -32.872  0.00  0.00    -0.060 A 
ATOM     23  C   UNL A   1      41.660 -20.946 -33.682  0.00  0.00    -0.038 A 
ATOM     24  C   UNL A   1      41.525 -21.059 -35.077  0.00  0.00    +0.050 A 
ATOM     25  C   UNL A   1      40.267 -22.780 -38.144  0.00  0.00    -0.025 C 
ATOM     26  C   UNL A   1      40.966 -22.534 -39.493  0.00  0.00    -0.049 C 
ATOM     27  C   UNL A   1      41.185 -21.035 -39.758  0.00  0.00    -0.047 C 
ATOM     28  C   UNL A   1      42.068 -20.377 -38.682  0.00  0.00    -0.012 C 
ENDBRANCH  15  16
ENDBRANCH   5  15
TORSDOF 4
ENDMDL
MODEL 9
REMARK VINA RESULT:    -7.150      2.057      6.130
REMARK INTER + INTRA:         -10.676
REMARK INTER:                  -9.615
REMARK INTRA:                  -1.061
REMARK UNBOUND:                -1.854
REMARK  Name = cpd346.pdb
REMARK  4 active torsions:
REMARK  status: ('A' for Active; 'I' for Inactive)
REMARK    1  A    between atoms: C_6  and  C_7
REMARK    2  A    between atoms: C_7  and  N_8
REMARK    3  A    between atoms: C_12  and  C_13
REMARK    4  A    between atoms: C_13  and  N_14
REMARK                            x       y       z     vdW  Elec       q    Type
REMARK                         _______ _______ _______ _____ _____    ______ ____
ROOT
ATOM      1  N   UNL A   1      37.075 -38.822 -28.817  0.00  0.00    -0.349 N 
ATOM      2  C   UNL A   1      37.064 -40.175 -28.772  0.00  0.00    +0.005 A 
ATOM      3  C   UNL A   1      35.867 -40.874 -28.816  0.00  0.00    -0.045 A 
ATOM      4  C   UNL A   1      34.672 -40.170 -28.889  0.00  0.00    -0.054 A 
ATOM      5  C   UNL A   1      34.680 -38.773 -28.910  0.00  0.00    -0.012 A 
ATOM      6  C   UNL A   1      35.916 -38.122 -28.882  0.00  0.00    +0.010 A 
ENDROOT
BRANCH   1   7
ATOM      7  C   UNL A   1      38.372 -38.100 -28.748  0.00  0.00    +0.048 C 
BRANCH   7  13
ATOM      8 CL   UNL A   1      41.295 -36.395 -32.714  0.00  0.00    -0.084 Cl
ATOM      9  C   UNL A   1      39.868 -36.312 -31.762  0.00  0.00    +0.041 A 
ATOM     10  C   UNL A   1      38.884 -35.375 -32.062  0.00  0.00    -0.043 A 
ATOM     11  C   UNL A   1      37.730 -35.312 -31.283  0.00  0.00    -0.060 A 
ATOM     12  C   UNL A   1      37.558 -36.188 -30.208  0.00  0.00    -0.057 A 
ATOM     13  C   UNL A   1      38.540 -37.146 -29.905  0.00  0.00    -0.026 A 
ATOM     14  C   UNL A   1      39.704 -37.192 -30.689  0.00  0.00    -0.039 A 
ENDBRANCH   7  13
ENDBRANCH   1   7
BRANCH   5  15
ATOM     15  C   UNL A   1      33.395 -37.975 -28.957  0.00  0.00    +0.050 C 
BRANCH  15  16
ATOM     16  N   UNL A   1      33.311 -37.164 -30.165  0.00  0.00    -0.339 N 
ATOM     17  C   UNL A   1      33.674 -35.841 -30.268  0.00  0.00    +0.023 A 
ATOM     18  C   UNL A   1      33.418 -35.427 -31.561  0.00  0.00    -0.019 A 
ATOM     19  C   UNL A   1      32.900 -36.537 -32.279  0.00  0.00    +0.003 A 
ATOM     20  C   UNL A   1      32.472 -36.721 -33.609  0.00  0.00    -0.052 A 
ATOM     21  C   UNL A   1      32.029 -37.978 -34.027  0.00  0.00    -0.061 A 
ATOM     22  C   UNL A   1      32.011 -39.049 -33.141  0.00  0.00    -0.060 A 
ATOM     23  C   UNL A   1      32.427 -38.893 -31.815  0.00  0.00    -0.038 A 
ATOM     24  C   UNL A   1      32.864 -37.623 -31.396  0.00  0.00    +0.050 A 
ATOM     25  C   UNL A   1      33.679 -34.034 -32.037  0.00  0.00    -0.025 C 
ATOM     26  C   UNL A   1      34.627 -33.290 -31.081  0.00  0.00    -0.049 C 
ATOM     27  C   UNL A   1      34.242 -33.509 -29.608  0.00  0.00    -0.047 C 
ATOM     28  C   UNL A   1      34.297 -34.994 -29.208  0.00  0.00    -0.012 C 
ENDBRANCH  15  16
ENDBRANCH   5  15
TORSDOF 4
ENDMDL
MODEL 10
REMARK VINA RESULT:    -7.051      2.552      6.638
REMARK INTER + INTRA:         -10.554
REMARK INTER:                  -9.478
REMARK INTRA:                  -1.076
REMARK UNBOUND:                -1.854
REMARK  Name = cpd346.pdb
REMARK  4 active torsions:
REMARK  status: ('A' for Active; 'I' for Inactive)
REMARK    1  A    between atoms: C_6  and  C_7
REMARK    2  A    between atoms: C_7  and  N_8
REMARK    3  A    between atoms: C_12  and  C_13
REMARK    4  A    between atoms: C_13  and  N_14
REMARK                            x       y       z     vdW  Elec       q    Type
REMARK                         _______ _______ _______ _____ _____    ______ ____
ROOT
ATOM      1  N   UNL A   1      36.800 -38.010 -29.107  0.00  0.00    -0.349 N 
ATOM      2  C   UNL A   1      36.233 -39.006 -29.828  0.00  0.00    +0.005 A 
ATOM      3  C   UNL A   1      34.859 -39.055 -30.006  0.00  0.00    -0.045 A 
ATOM      4  C   UNL A   1      34.063 -38.078 -29.421  0.00  0.00    -0.054 A 
ATOM      5  C   UNL A   1      34.645 -37.064 -28.656  0.00  0.00    -0.012 A 
ATOM      6  C   UNL A   1      36.035 -37.054 -28.526  0.00  0.00    +0.010 A 
ENDROOT
BRANCH   1   7
ATOM      7  C   UNL A   1      38.274 -37.995 -28.917  0.00  0.00    +0.048 C 
BRANCH   7  13
ATOM      8 CL   UNL A   1      42.718 -36.495 -31.196  0.00  0.00    -0.084 Cl
ATOM      9  C   UNL A   1      41.007 -36.424 -31.058  0.00  0.00    +0.041 A 
ATOM     10  C   UNL A   1      40.273 -35.605 -31.910  0.00  0.00    -0.043 A 
ATOM     11  C   UNL A   1      38.885 -35.551 -31.790  0.00  0.00    -0.060 A 
ATOM     12  C   UNL A   1      38.232 -36.318 -30.823  0.00  0.00    -0.057 A 
ATOM     13  C   UNL A   1      38.962 -37.159 -29.967  0.00  0.00    -0.026 A 
ATOM     14  C   UNL A   1      40.361 -37.196 -30.088  0.00  0.00    -0.039 A 
ENDBRANCH   7  13
ENDBRANCH   1   7
BRANCH   5  15
ATOM     15  C   UNL A   1      33.804 -36.004 -27.979  0.00  0.00    +0.050 C 
BRANCH  15  16
ATOM     16  N   UNL A   1      33.126 -35.155 -28.952  0.00  0.00    -0.339 N 
ATOM     17  C   UNL A   1      31.773 -35.146 -29.200  0.00  0.00    +0.023 A 
ATOM     18  C   UNL A   1      31.529 -34.229 -30.205  0.00  0.00    -0.019 A 
ATOM     19  C   UNL A   1      32.770 -33.643 -30.570  0.00  0.00    +0.003 A 
ATOM     20  C   UNL A   1      33.143 -32.663 -31.510  0.00  0.00    -0.052 A 
ATOM     21  C   UNL A   1      34.481 -32.272 -31.611  0.00  0.00    -0.061 A 
ATOM     22  C   UNL A   1      35.445 -32.842 -30.787  0.00  0.00    -0.060 A 
ATOM     23  C   UNL A   1      35.102 -33.819 -29.848  0.00  0.00    -0.038 A 
ATOM     24  C   UNL A   1      33.755 -34.216 -29.757  0.00  0.00    +0.050 A 
ATOM     25  C   UNL A   1      30.163 -33.960 -30.748  0.00  0.00    -0.025 C 
ATOM     26  C   UNL A   1      29.074 -34.480 -29.793  0.00  0.00    -0.049 C 
ATOM     27  C   UNL A   1      29.398 -35.890 -29.270  0.00  0.00    -0.047 C 
ATOM     28  C   UNL A   1      30.721 -35.928 -28.485  0.00  0.00    -0.012 C 
ENDBRANCH  15  16
ENDBRANCH   5  15
TORSDOF 4
ENDMDL
MODEL 11
REMARK VINA RESULT:    -7.039     17.566     20.981
REMARK INTER + INTRA:         -10.539
REMARK INTER:                  -9.225
REMARK INTRA:                  -1.314
REMARK UNBOUND:                -1.854
REMARK  Name = cpd346.pdb
REMARK  4 active torsions:
REMARK  status: ('A' for Active; 'I' for Inactive)
REMARK    1  A    between atoms: C_6  and  C_7
REMARK    2  A    between atoms: C_7  and  N_8
REMARK    3  A    between atoms: C_12  and  C_13
REMARK    4  A    between atoms: C_13  and  N_14
REMARK                            x       y       z     vdW  Elec       q    Type
REMARK                         _______ _______ _______ _____ _____    ______ ____
ROOT
ATOM      1  N   UNL A   1      45.972 -18.950 -38.338  0.00  0.00    -0.349 N 
ATOM      2  C   UNL A   1      46.840 -19.642 -37.562  0.00  0.00    +0.005 A 
ATOM      3  C   UNL A   1      46.451 -20.120 -36.320  0.00  0.00    -0.045 A 
ATOM      4  C   UNL A   1      45.162 -19.868 -35.869  0.00  0.00    -0.054 A 
ATOM      5  C   UNL A   1      44.273 -19.134 -36.657  0.00  0.00    -0.012 A 
ATOM      6  C   UNL A   1      44.713 -18.693 -37.907  0.00  0.00    +0.010 A 
ENDROOT
BRANCH   1   7
ATOM      7  C   UNL A   1      46.423 -18.433 -39.656  0.00  0.00    +0.048 C 
BRANCH   7  13
ATOM      8 CL   UNL A   1      46.652 -22.853 -42.412  0.00  0.00    -0.084 Cl
ATOM      9  C   UNL A   1      45.962 -21.309 -42.112  0.00  0.00    +0.041 A 
ATOM     10  C   UNL A   1      44.925 -20.843 -42.913  0.00  0.00    -0.043 A 
ATOM     11  C   UNL A   1      44.372 -19.587 -42.666  0.00  0.00    -0.060 A 
ATOM     12  C   UNL A   1      44.853 -18.801 -41.617  0.00  0.00    -0.057 A 
ATOM     13  C   UNL A   1      45.891 -19.268 -40.794  0.00  0.00    -0.026 A 
ATOM     14  C   UNL A   1      46.449 -20.529 -41.060  0.00  0.00    -0.039 A 
ENDBRANCH   7  13
ENDBRANCH   1   7
BRANCH   5  15
ATOM     15  C   UNL A   1      42.873 -18.815 -36.182  0.00  0.00    +0.050 C 
BRANCH  15  16
ATOM     16  N   UNL A   1      42.030 -20.005 -36.155  0.00  0.00    -0.339 N 
ATOM     17  C   UNL A   1      41.606 -20.660 -35.022  0.00  0.00    +0.023 A 
ATOM     18  C   UNL A   1      40.855 -21.751 -35.416  0.00  0.00    -0.019 A 
ATOM     19  C   UNL A   1      40.800 -21.752 -36.834  0.00  0.00    +0.003 A 
ATOM     20  C   UNL A   1      40.188 -22.596 -37.783  0.00  0.00    -0.052 A 
ATOM     21  C   UNL A   1      40.300 -22.304 -39.145  0.00  0.00    -0.061 A 
ATOM     22  C   UNL A   1      41.008 -21.185 -39.570  0.00  0.00    -0.060 A 
ATOM     23  C   UNL A   1      41.628 -20.335 -38.649  0.00  0.00    -0.038 A 
ATOM     24  C   UNL A   1      41.520 -20.637 -37.280  0.00  0.00    +0.050 A 
ATOM     25  C   UNL A   1      40.238 -22.707 -34.447  0.00  0.00    -0.025 C 
ATOM     26  C   UNL A   1      40.179 -22.103 -33.033  0.00  0.00    -0.049 C 
ATOM     27  C   UNL A   1      41.498 -21.411 -32.651  0.00  0.00    -0.047 C 
ATOM     28  C   UNL A   1      41.845 -20.254 -33.605  0.00  0.00    -0.012 C 
ENDBRANCH  15  16
ENDBRANCH   5  15
TORSDOF 4
ENDMDL
MODEL 12
REMARK VINA RESULT:    -7.023     19.414     22.633
REMARK INTER + INTRA:         -10.520
REMARK INTER:                  -8.582
REMARK INTRA:                  -1.938
REMARK UNBOUND:                -1.854
REMARK  Name = cpd346.pdb
REMARK  4 active torsions:
REMARK  status: ('A' for Active; 'I' for Inactive)
REMARK    1  A    between atoms: C_6  and  C_7
REMARK    2  A    between atoms: C_7  and  N_8
REMARK    3  A    between atoms: C_12  and  C_13
REMARK    4  A    between atoms: C_13  and  N_14
REMARK                            x       y       z     vdW  Elec       q    Type
REMARK                         _______ _______ _______ _____ _____    ______ ____
ROOT
ATOM      1  N   UNL A   1      42.966 -20.764 -37.686  0.00  0.00    -0.349 N 
ATOM      2  C   UNL A   1      41.638 -20.945 -37.492  0.00  0.00    +0.005 A 
ATOM      3  C   UNL A   1      40.789 -21.153 -38.569  0.00  0.00    -0.045 A 
ATOM      4  C   UNL A   1      41.312 -21.157 -39.856  0.00  0.00    -0.054 A 
ATOM      5  C   UNL A   1      42.678 -20.947 -40.058  0.00  0.00    -0.012 A 
ATOM      6  C   UNL A   1      43.488 -20.762 -38.936  0.00  0.00    +0.010 A 
ENDROOT
BRANCH   1   7
ATOM      7  C   UNL A   1      43.848 -20.524 -36.515  0.00  0.00    +0.048 C 
BRANCH   7  13
ATOM      8 CL   UNL A   1      45.463 -15.626 -37.275  0.00  0.00    -0.084 Cl
ATOM      9  C   UNL A   1      45.775 -17.314 -37.220  0.00  0.00    +0.041 A 
ATOM     10  C   UNL A   1      47.054 -17.795 -37.482  0.00  0.00    -0.043 A 
ATOM     11  C   UNL A   1      47.298 -19.166 -37.439  0.00  0.00    -0.060 A 
ATOM     12  C   UNL A   1      46.267 -20.055 -37.129  0.00  0.00    -0.057 A 
ATOM     13  C   UNL A   1      44.975 -19.579 -36.850  0.00  0.00    -0.026 A 
ATOM     14  C   UNL A   1      44.737 -18.196 -36.909  0.00  0.00    -0.039 A 
ENDBRANCH   7  13
ENDBRANCH   1   7
BRANCH   5  15
ATOM     15  C   UNL A   1      43.275 -20.914 -41.448  0.00  0.00    +0.050 C 
BRANCH  15  16
ATOM     16  N   UNL A   1      44.629 -20.374 -41.439  0.00  0.00    -0.339 N 
ATOM     17  C   UNL A   1      45.782 -21.100 -41.622  0.00  0.00    +0.023 A 
ATOM     18  C   UNL A   1      46.854 -20.235 -41.515  0.00  0.00    -0.019 A 
ATOM     19  C   UNL A   1      46.340 -18.933 -41.279  0.00  0.00    +0.003 A 
ATOM     20  C   UNL A   1      46.937 -17.670 -41.094  0.00  0.00    -0.052 A 
ATOM     21  C   UNL A   1      46.133 -16.544 -40.905  0.00  0.00    -0.061 A 
ATOM     22  C   UNL A   1      44.748 -16.659 -40.902  0.00  0.00    -0.060 A 
ATOM     23  C   UNL A   1      44.130 -17.901 -41.079  0.00  0.00    -0.038 A 
ATOM     24  C   UNL A   1      44.944 -19.034 -41.260  0.00  0.00    +0.050 A 
ATOM     25  C   UNL A   1      48.275 -20.679 -41.646  0.00  0.00    -0.025 C 
ATOM     26  C   UNL A   1      48.366 -22.059 -42.318  0.00  0.00    -0.049 C 
ATOM     27  C   UNL A   1      47.333 -23.044 -41.743  0.00  0.00    -0.047 C 
ATOM     28  C   UNL A   1      45.888 -22.554 -41.945  0.00  0.00    -0.012 C 
ENDBRANCH  15  16
ENDBRANCH   5  15
TORSDOF 4
ENDMDL
MODEL 13
REMARK VINA RESULT:    -7.017      2.311      5.135
REMARK INTER + INTRA:         -10.512
REMARK INTER:                  -9.166
REMARK INTRA:                  -1.346
REMARK UNBOUND:                -1.854
REMARK  Name = cpd346.pdb
REMARK  4 active torsions:
REMARK  status: ('A' for Active; 'I' for Inactive)
REMARK    1  A    between atoms: C_6  and  C_7
REMARK    2  A    between atoms: C_7  and  N_8
REMARK    3  A    between atoms: C_12  and  C_13
REMARK    4  A    between atoms: C_13  and  N_14
REMARK                            x       y       z     vdW  Elec       q    Type
REMARK                         _______ _______ _______ _____ _____    ______ ____
ROOT
ATOM      1  N   UNL A   1      33.331 -39.685 -31.158  0.00  0.00    -0.349 N 
ATOM      2  C   UNL A   1      34.074 -40.643 -31.760  0.00  0.00    +0.005 A 
ATOM      3  C   UNL A   1      35.431 -40.756 -31.494  0.00  0.00    -0.045 A 
ATOM      4  C   UNL A   1      36.027 -39.862 -30.615  0.00  0.00    -0.054 A 
ATOM      5  C   UNL A   1      35.266 -38.857 -30.013  0.00  0.00    -0.012 A 
ATOM      6  C   UNL A   1      33.901 -38.803 -30.302  0.00  0.00    +0.010 A 
ENDROOT
BRANCH   1   7
ATOM      7  C   UNL A   1      31.883 -39.576 -31.477  0.00  0.00    +0.048 C 
BRANCH   7  13
ATOM      8 CL   UNL A   1      31.086 -38.760 -36.565  0.00  0.00    -0.084 Cl
ATOM      9  C   UNL A   1      31.262 -38.167 -34.962  0.00  0.00    +0.041 A 
ATOM     10  C   UNL A   1      31.171 -36.802 -34.711  0.00  0.00    -0.043 A 
ATOM     11  C   UNL A   1      31.318 -36.328 -33.409  0.00  0.00    -0.060 A 
ATOM     12  C   UNL A   1      31.551 -37.218 -32.358  0.00  0.00    -0.057 A 
ATOM     13  C   UNL A   1      31.632 -38.600 -32.599  0.00  0.00    -0.026 A 
ATOM     14  C   UNL A   1      31.495 -39.065 -33.917  0.00  0.00    -0.039 A 
ENDBRANCH   7  13
ENDBRANCH   1   7
BRANCH   5  15
ATOM     15  C   UNL A   1      35.891 -37.848 -29.075  0.00  0.00    +0.050 C 
BRANCH  15  16
ATOM     16  N   UNL A   1      36.218 -36.604 -29.764  0.00  0.00    -0.339 N 
ATOM     17  C   UNL A   1      35.416 -35.489 -29.824  0.00  0.00    +0.023 A 
ATOM     18  C   UNL A   1      36.064 -34.538 -30.589  0.00  0.00    -0.019 A 
ATOM     19  C   UNL A   1      37.312 -35.081 -30.992  0.00  0.00    +0.003 A 
ATOM     20  C   UNL A   1      38.384 -34.588 -31.764  0.00  0.00    -0.052 A 
ATOM     21  C   UNL A   1      39.517 -35.380 -31.962  0.00  0.00    -0.061 A 
ATOM     22  C   UNL A   1      39.597 -36.650 -31.400  0.00  0.00    -0.060 A 
ATOM     23  C   UNL A   1      38.546 -37.164 -30.634  0.00  0.00    -0.038 A 
ATOM     24  C   UNL A   1      37.403 -36.366 -30.445  0.00  0.00    +0.050 A 
ATOM     25  C   UNL A   1      35.480 -33.194 -30.883  0.00  0.00    -0.025 C 
ATOM     26  C   UNL A   1      34.333 -32.862 -29.914  0.00  0.00    -0.049 C 
ATOM     27  C   UNL A   1      33.382 -34.056 -29.724  0.00  0.00    -0.047 C 
ATOM     28  C   UNL A   1      34.102 -35.286 -29.144  0.00  0.00    -0.012 C 
ENDBRANCH  15  16
ENDBRANCH   5  15
TORSDOF 4
ENDMDL
MODEL 14
REMARK VINA RESULT:    -6.879     17.173     20.408
REMARK INTER + INTRA:         -10.342
REMARK INTER:                  -9.310
REMARK INTRA:                  -1.032
REMARK UNBOUND:                -1.854
REMARK  Name = cpd346.pdb
REMARK  4 active torsions:
REMARK  status: ('A' for Active; 'I' for Inactive)
REMARK    1  A    between atoms: C_6  and  C_7
REMARK    2  A    between atoms: C_7  and  N_8
REMARK    3  A    between atoms: C_12  and  C_13
REMARK    4  A    between atoms: C_13  and  N_14
REMARK                            x       y       z     vdW  Elec       q    Type
REMARK                         _______ _______ _______ _____ _____    ______ ____
ROOT
ATOM      1  N   UNL A   1      44.094 -20.354 -39.641  0.00  0.00    -0.349 N 
ATOM      2  C   UNL A   1      44.669 -20.071 -38.448  0.00  0.00    +0.005 A 
ATOM      3  C   UNL A   1      44.036 -20.407 -37.261  0.00  0.00    -0.045 A 
ATOM      4  C   UNL A   1      42.793 -21.026 -37.305  0.00  0.00    -0.054 A 
ATOM      5  C   UNL A   1      42.188 -21.297 -38.535  0.00  0.00    -0.012 A 
ATOM      6  C   UNL A   1      42.880 -20.953 -39.698  0.00  0.00    +0.010 A 
ENDROOT
BRANCH   1   7
ATOM      7  C   UNL A   1      44.787 -19.964 -40.896  0.00  0.00    +0.048 C 
BRANCH   7  13
ATOM      8 CL   UNL A   1      49.382 -22.403 -40.547  0.00  0.00    -0.084 Cl
ATOM      9  C   UNL A   1      47.834 -22.221 -41.268  0.00  0.00    +0.041 A 
ATOM     10  C   UNL A   1      47.438 -23.076 -42.292  0.00  0.00    -0.043 A 
ATOM     11  C   UNL A   1      46.181 -22.921 -42.875  0.00  0.00    -0.060 A 
ATOM     12  C   UNL A   1      45.319 -21.916 -42.431  0.00  0.00    -0.057 A 
ATOM     13  C   UNL A   1      45.704 -21.055 -41.389  0.00  0.00    -0.026 A 
ATOM     14  C   UNL A   1      46.977 -21.213 -40.818  0.00  0.00    -0.039 A 
ENDBRANCH   7  13
ENDBRANCH   1   7
BRANCH   5  15
ATOM     15  C   UNL A   1      40.821 -21.940 -38.618  0.00  0.00    +0.050 C 
BRANCH  15  16
ATOM     16  N   UNL A   1      39.845 -21.236 -37.794  0.00  0.00    -0.339 N 
ATOM     17  C   UNL A   1      39.220 -20.057 -38.126  0.00  0.00    +0.023 A 
ATOM     18  C   UNL A   1      38.393 -19.702 -37.077  0.00  0.00    -0.019 A 
ATOM     19  C   UNL A   1      38.500 -20.707 -36.080  0.00  0.00    +0.003 A 
ATOM     20  C   UNL A   1      37.903 -20.891 -34.816  0.00  0.00    -0.052 A 
ATOM     21  C   UNL A   1      38.203 -22.032 -34.068  0.00  0.00    -0.061 A 
ATOM     22  C   UNL A   1      39.083 -22.988 -34.561  0.00  0.00    -0.060 A 
ATOM     23  C   UNL A   1      39.691 -22.828 -35.810  0.00  0.00    -0.038 A 
ATOM     24  C   UNL A   1      39.394 -21.673 -36.557  0.00  0.00    +0.050 A 
ATOM     25  C   UNL A   1      37.561 -18.461 -37.080  0.00  0.00    -0.025 C 
ATOM     26  C   UNL A   1      37.414 -17.895 -38.503  0.00  0.00    -0.049 C 
ATOM     27  C   UNL A   1      38.755 -17.889 -39.257  0.00  0.00    -0.047 C 
ATOM     28  C   UNL A   1      39.343 -19.303 -39.409  0.00  0.00    -0.012 C 
ENDBRANCH  15  16
ENDBRANCH   5  15
TORSDOF 4
ENDMDL
MODEL 15
REMARK VINA RESULT:    -6.831     17.279     20.355
REMARK INTER + INTRA:         -10.282
REMARK INTER:                  -8.843
REMARK INTRA:                  -1.438
REMARK UNBOUND:                -1.854
REMARK  Name = cpd346.pdb
REMARK  4 active torsions:
REMARK  status: ('A' for Active; 'I' for Inactive)
REMARK    1  A    between atoms: C_6  and  C_7
REMARK    2  A    between atoms: C_7  and  N_8
REMARK    3  A    between atoms: C_12  and  C_13
REMARK    4  A    between atoms: C_13  and  N_14
REMARK                            x       y       z     vdW  Elec       q    Type
REMARK                         _______ _______ _______ _____ _____    ______ ____
ROOT
ATOM      1  N   UNL A   1      43.931 -19.022 -34.210  0.00  0.00    -0.349 N 
ATOM      2  C   UNL A   1      45.125 -19.658 -34.270  0.00  0.00    +0.005 A 
ATOM      3  C   UNL A   1      45.750 -19.874 -35.490  0.00  0.00    -0.045 A 
ATOM      4  C   UNL A   1      45.129 -19.446 -36.656  0.00  0.00    -0.054 A 
ATOM      5  C   UNL A   1      43.885 -18.812 -36.597  0.00  0.00    -0.012 A 
ATOM      6  C   UNL A   1      43.312 -18.604 -35.341  0.00  0.00    +0.010 A 
ENDROOT
BRANCH   1   7
ATOM      7  C   UNL A   1      43.277 -18.822 -32.891  0.00  0.00    +0.048 C 
BRANCH   7  13
ATOM      8 CL   UNL A   1      40.490 -23.194 -33.446  0.00  0.00    -0.084 Cl
ATOM      9  C   UNL A   1      40.592 -21.520 -33.075  0.00  0.00    +0.041 A 
ATOM     10  C   UNL A   1      39.448 -20.815 -32.717  0.00  0.00    -0.043 A 
ATOM     11  C   UNL A   1      39.538 -19.456 -32.420  0.00  0.00    -0.060 A 
ATOM     12  C   UNL A   1      40.772 -18.804 -32.476  0.00  0.00    -0.057 A 
ATOM     13  C   UNL A   1      41.936 -19.509 -32.824  0.00  0.00    -0.026 A 
ATOM     14  C   UNL A   1      41.831 -20.875 -33.134  0.00  0.00    -0.039 A 
ENDBRANCH   7  13
ENDBRANCH   1   7
BRANCH   5  15
ATOM     15  C   UNL A   1      43.167 -18.363 -37.851  0.00  0.00    +0.050 C 
BRANCH  15  16
ATOM     16  N   UNL A   1      42.830 -19.491 -38.711  0.00  0.00    -0.339 N 
ATOM     17  C   UNL A   1      41.959 -20.507 -38.394  0.00  0.00    +0.023 A 
ATOM     18  C   UNL A   1      41.933 -21.393 -39.454  0.00  0.00    -0.019 A 
ATOM     19  C   UNL A   1      42.800 -20.893 -40.460  0.00  0.00    +0.003 A 
ATOM     20  C   UNL A   1      43.169 -21.350 -41.742  0.00  0.00    -0.052 A 
ATOM     21  C   UNL A   1      44.048 -20.595 -42.521  0.00  0.00    -0.061 A 
ATOM     22  C   UNL A   1      44.559 -19.393 -42.043  0.00  0.00    -0.060 A 
ATOM     23  C   UNL A   1      44.212 -18.919 -40.774  0.00  0.00    -0.038 A 
ATOM     24  C   UNL A   1      43.333 -19.688 -39.989  0.00  0.00    +0.050 A 
ATOM     25  C   UNL A   1      41.101 -22.635 -39.456  0.00  0.00    -0.025 C 
ATOM     26  C   UNL A   1      40.005 -22.571 -38.379  0.00  0.00    -0.049 C 
ATOM     27  C   UNL A   1      40.551 -22.049 -37.039  0.00  0.00    -0.047 C 
ATOM     28  C   UNL A   1      41.127 -20.627 -37.160  0.00  0.00    -0.012 C 
ENDBRANCH  15  16
ENDBRANCH   5  15
TORSDOF 4
ENDMDL
MODEL 16
REMARK VINA RESULT:    -6.738     16.910     20.250
REMARK INTER + INTRA:         -10.168
REMARK INTER:                  -9.031
REMARK INTRA:                  -1.137
REMARK UNBOUND:                -1.854
REMARK  Name = cpd346.pdb
REMARK  4 active torsions:
REMARK  status: ('A' for Active; 'I' for Inactive)
REMARK    1  A    between atoms: C_6  and  C_7
REMARK    2  A    between atoms: C_7  and  N_8
REMARK    3  A    between atoms: C_12  and  C_13
REMARK    4  A    between atoms: C_13  and  N_14
REMARK                            x       y       z     vdW  Elec       q    Type
REMARK                         _______ _______ _______ _____ _____    ______ ____
ROOT
ATOM      1  N   UNL A   1      44.013 -19.831 -38.799  0.00  0.00    -0.349 N 
ATOM      2  C   UNL A   1      44.548 -19.402 -37.632  0.00  0.00    +0.005 A 
ATOM      3  C   UNL A   1      44.009 -19.800 -36.417  0.00  0.00    -0.045 A 
ATOM      4  C   UNL A   1      42.898 -20.633 -36.409  0.00  0.00    -0.054 A 
ATOM      5  C   UNL A   1      42.330 -21.057 -37.612  0.00  0.00    -0.012 A 
ATOM      6  C   UNL A   1      42.926 -20.641 -38.804  0.00  0.00    +0.010 A 
ENDROOT
BRANCH   1   7
ATOM      7  C   UNL A   1      44.600 -19.372 -40.084  0.00  0.00    +0.048 C 
BRANCH   7  13
ATOM      8 CL   UNL A   1      48.157 -23.144 -40.644  0.00  0.00    -0.084 Cl
ATOM      9  C   UNL A   1      46.772 -22.295 -41.205  0.00  0.00    +0.041 A 
ATOM     10  C   UNL A   1      46.156 -22.676 -42.392  0.00  0.00    -0.043 A 
ATOM     11  C   UNL A   1      45.034 -21.982 -42.842  0.00  0.00    -0.060 A 
ATOM     12  C   UNL A   1      44.527 -20.911 -42.103  0.00  0.00    -0.057 A 
ATOM     13  C   UNL A   1      45.134 -20.526 -40.896  0.00  0.00    -0.026 A 
ATOM     14  C   UNL A   1      46.271 -21.226 -40.459  0.00  0.00    -0.039 A 
ENDBRANCH   7  13
ENDBRANCH   1   7
BRANCH   5  15
ATOM     15  C   UNL A   1      41.101 -21.940 -37.638  0.00  0.00    +0.050 C 
BRANCH  15  16
ATOM     16  N   UNL A   1      39.983 -21.325 -36.931  0.00  0.00    -0.339 N 
ATOM     17  C   UNL A   1      39.490 -21.725 -35.711  0.00  0.00    +0.023 A 
ATOM     18  C   UNL A   1      38.417 -20.913 -35.397  0.00  0.00    -0.019 A 
ATOM     19  C   UNL A   1      38.261 -19.972 -36.449  0.00  0.00    +0.003 A 
ATOM     20  C   UNL A   1      37.362 -18.912 -36.679  0.00  0.00    -0.052 A 
ATOM     21  C   UNL A   1      37.491 -18.131 -37.831  0.00  0.00    -0.061 A 
ATOM     22  C   UNL A   1      38.503 -18.391 -38.748  0.00  0.00    -0.060 A 
ATOM     23  C   UNL A   1      39.406 -19.439 -38.545  0.00  0.00    -0.038 A 
ATOM     24  C   UNL A   1      39.266 -20.228 -37.389  0.00  0.00    +0.050 A 
ATOM     25  C   UNL A   1      37.621 -21.066 -34.142  0.00  0.00    -0.025 C 
ATOM     26  C   UNL A   1      38.381 -21.905 -33.100  0.00  0.00    -0.049 C 
ATOM     27  C   UNL A   1      39.018 -23.156 -33.729  0.00  0.00    -0.047 C 
ATOM     28  C   UNL A   1      40.034 -22.800 -34.829  0.00  0.00    -0.012 C 
ENDBRANCH  15  16
ENDBRANCH   5  15
TORSDOF 4
ENDMDL
MODEL 17
REMARK VINA RESULT:    -6.696     19.269     22.034
REMARK INTER + INTRA:         -10.115
REMARK INTER:                  -8.706
REMARK INTRA:                  -1.409
REMARK UNBOUND:                -1.854
REMARK  Name = cpd346.pdb
REMARK  4 active torsions:
REMARK  status: ('A' for Active; 'I' for Inactive)
REMARK    1  A    between atoms: C_6  and  C_7
REMARK    2  A    between atoms: C_7  and  N_8
REMARK    3  A    between atoms: C_12  and  C_13
REMARK    4  A    between atoms: C_13  and  N_14
REMARK                            x       y       z     vdW  Elec       q    Type
REMARK                         _______ _______ _______ _____ _____    ______ ____
ROOT
ATOM      1  N   UNL A   1      46.865 -17.817 -39.338  0.00  0.00    -0.349 N 
ATOM      2  C   UNL A   1      47.145 -16.700 -38.627  0.00  0.00    +0.005 A 
ATOM      3  C   UNL A   1      47.028 -16.694 -37.245  0.00  0.00    -0.045 A 
ATOM      4  C   UNL A   1      46.601 -17.844 -36.595  0.00  0.00    -0.054 A 
ATOM      5  C   UNL A   1      46.287 -18.990 -37.329  0.00  0.00    -0.012 A 
ATOM      6  C   UNL A   1      46.442 -18.945 -38.716  0.00  0.00    +0.010 A 
ENDROOT
BRANCH   1   7
ATOM      7  C   UNL A   1      46.981 -17.788 -40.819  0.00  0.00    +0.048 C 
BRANCH   7  13
ATOM      8 CL   UNL A   1      46.579 -22.756 -42.349  0.00  0.00    -0.084 Cl
ATOM      9  C   UNL A   1      45.920 -21.177 -42.200  0.00  0.00    +0.041 A 
ATOM     10  C   UNL A   1      44.638 -20.910 -42.670  0.00  0.00    -0.043 A 
ATOM     11  C   UNL A   1      44.111 -19.626 -42.548  0.00  0.00    -0.060 A 
ATOM     12  C   UNL A   1      44.863 -18.610 -41.953  0.00  0.00    -0.057 A 
ATOM     13  C   UNL A   1      46.154 -18.872 -41.464  0.00  0.00    -0.026 A 
ATOM     14  C   UNL A   1      46.679 -20.167 -41.603  0.00  0.00    -0.039 A 
ENDBRANCH   7  13
ENDBRANCH   1   7
BRANCH   5  15
ATOM     15  C   UNL A   1      45.789 -20.250 -36.655  0.00  0.00    +0.050 C 
BRANCH  15  16
ATOM     16  N   UNL A   1      44.344 -20.219 -36.459  0.00  0.00    -0.339 N 
ATOM     17  C   UNL A   1      43.400 -20.540 -37.407  0.00  0.00    +0.023 A 
ATOM     18  C   UNL A   1      42.151 -20.358 -36.845  0.00  0.00    -0.019 A 
ATOM     19  C   UNL A   1      42.335 -19.931 -35.504  0.00  0.00    +0.003 A 
ATOM     20  C   UNL A   1      41.450 -19.602 -34.458  0.00  0.00    -0.052 A 
ATOM     21  C   UNL A   1      41.958 -19.235 -33.210  0.00  0.00    -0.061 A 
ATOM     22  C   UNL A   1      43.331 -19.195 -32.991  0.00  0.00    -0.060 A 
ATOM     23  C   UNL A   1      44.230 -19.514 -34.013  0.00  0.00    -0.038 A 
ATOM     24  C   UNL A   1      43.714 -19.874 -35.271  0.00  0.00    +0.050 A 
ATOM     25  C   UNL A   1      40.880 -20.600 -37.593  0.00  0.00    -0.025 C 
ATOM     26  C   UNL A   1      41.127 -21.453 -38.849  0.00  0.00    -0.049 C 
ATOM     27  C   UNL A   1      42.365 -20.976 -39.628  0.00  0.00    -0.047 C 
ATOM     28  C   UNL A   1      43.650 -21.057 -38.785  0.00  0.00    -0.012 C 
ENDBRANCH  15  16
ENDBRANCH   5  15
TORSDOF 4
ENDMDL
MODEL 18
REMARK VINA RESULT:    -6.682     18.040     21.189
REMARK INTER + INTRA:         -10.099
REMARK INTER:                  -8.962
REMARK INTRA:                  -1.137
REMARK UNBOUND:                -1.854
REMARK  Name = cpd346.pdb
REMARK  4 active torsions:
REMARK  status: ('A' for Active; 'I' for Inactive)
REMARK    1  A    between atoms: C_6  and  C_7
REMARK    2  A    between atoms: C_7  and  N_8
REMARK    3  A    between atoms: C_12  and  C_13
REMARK    4  A    between atoms: C_13  and  N_14
REMARK                            x       y       z     vdW  Elec       q    Type
REMARK                         _______ _______ _______ _____ _____    ______ ____
ROOT
ATOM      1  N   UNL A   1      44.350 -18.953 -39.710  0.00  0.00    -0.349 N 
ATOM      2  C   UNL A   1      43.266 -18.173 -39.930  0.00  0.00    +0.005 A 
ATOM      3  C   UNL A   1      42.174 -18.222 -39.076  0.00  0.00    -0.045 A 
ATOM      4  C   UNL A   1      42.195 -19.096 -37.997  0.00  0.00    -0.054 A 
ATOM      5  C   UNL A   1      43.303 -19.919 -37.782  0.00  0.00    -0.012 A 
ATOM      6  C   UNL A   1      44.382 -19.813 -38.663  0.00  0.00    +0.010 A 
ENDROOT
BRANCH   1   7
ATOM      7  C   UNL A   1      45.497 -18.892 -40.653  0.00  0.00    +0.048 C 
BRANCH   7  13
ATOM      8 CL   UNL A   1      48.660 -22.979 -41.346  0.00  0.00    -0.084 Cl
ATOM      9  C   UNL A   1      47.190 -22.150 -41.670  0.00  0.00    +0.041 A 
ATOM     10  C   UNL A   1      46.249 -22.712 -42.526  0.00  0.00    -0.043 A 
ATOM     11  C   UNL A   1      45.059 -22.032 -42.786  0.00  0.00    -0.060 A 
ATOM     12  C   UNL A   1      44.810 -20.796 -42.186  0.00  0.00    -0.057 A 
ATOM     13  C   UNL A   1      45.749 -20.226 -41.309  0.00  0.00    -0.026 A 
ATOM     14  C   UNL A   1      46.949 -20.914 -41.065  0.00  0.00    -0.039 A 
ENDBRANCH   7  13
ENDBRANCH   1   7
BRANCH   5  15
ATOM     15  C   UNL A   1      43.345 -20.904 -36.634  0.00  0.00    +0.050 C 
BRANCH  15  16
ATOM     16  N   UNL A   1      43.064 -20.255 -35.359  0.00  0.00    -0.339 N 
ATOM     17  C   UNL A   1      41.932 -20.440 -34.599  0.00  0.00    +0.023 A 
ATOM     18  C   UNL A   1      42.030 -19.630 -33.484  0.00  0.00    -0.019 A 
ATOM     19  C   UNL A   1      43.270 -18.943 -33.552  0.00  0.00    +0.003 A 
ATOM     20  C   UNL A   1      43.911 -18.007 -32.716  0.00  0.00    -0.052 A 
ATOM     21  C   UNL A   1      45.177 -17.526 -33.057  0.00  0.00    -0.061 A 
ATOM     22  C   UNL A   1      45.810 -17.965 -34.214  0.00  0.00    -0.060 A 
ATOM     23  C   UNL A   1      45.195 -18.890 -35.063  0.00  0.00    -0.038 A 
ATOM     24  C   UNL A   1      43.916 -19.366 -34.720  0.00  0.00    +0.050 A 
ATOM     25  C   UNL A   1      40.968 -19.559 -32.434  0.00  0.00    -0.025 C 
ATOM     26  C   UNL A   1      40.016 -20.764 -32.526  0.00  0.00    -0.049 C 
ATOM     27  C   UNL A   1      39.602 -21.056 -33.978  0.00  0.00    -0.047 C 
ATOM     28  C   UNL A   1      40.810 -21.387 -34.872  0.00  0.00    -0.012 C 
ENDBRANCH  15  16
ENDBRANCH   5  15
TORSDOF 4
ENDMDL
MODEL 19
REMARK VINA RESULT:    -6.654     17.420     20.376
REMARK INTER + INTRA:         -10.064
REMARK INTER:                  -8.752
REMARK INTRA:                  -1.312
REMARK UNBOUND:                -1.854
REMARK  Name = cpd346.pdb
REMARK  4 active torsions:
REMARK  status: ('A' for Active; 'I' for Inactive)
REMARK    1  A    between atoms: C_6  and  C_7
REMARK    2  A    between atoms: C_7  and  N_8
REMARK    3  A    between atoms: C_12  and  C_13
REMARK    4  A    between atoms: C_13  and  N_14
REMARK                            x       y       z     vdW  Elec       q    Type
REMARK                         _______ _______ _______ _____ _____    ______ ____
ROOT
ATOM      1  N   UNL A   1      43.047 -20.452 -40.553  0.00  0.00    -0.349 N 
ATOM      2  C   UNL A   1      42.372 -21.609 -40.753  0.00  0.00    +0.005 A 
ATOM      3  C   UNL A   1      41.269 -21.928 -39.975  0.00  0.00    -0.045 A 
ATOM      4  C   UNL A   1      40.871 -21.053 -38.971  0.00  0.00    -0.054 A 
ATOM      5  C   UNL A   1      41.581 -19.871 -38.748  0.00  0.00    -0.012 A 
ATOM      6  C   UNL A   1      42.672 -19.593 -39.575  0.00  0.00    +0.010 A 
ENDROOT
BRANCH   1   7
ATOM      7  C   UNL A   1      44.236 -20.147 -41.390  0.00  0.00    +0.048 C 
BRANCH   7  13
ATOM      8 CL   UNL A   1      47.438 -24.090 -42.569  0.00  0.00    -0.084 Cl
ATOM      9  C   UNL A   1      46.935 -22.834 -41.510  0.00  0.00    +0.041 A 
ATOM     10  C   UNL A   1      47.617 -22.613 -40.318  0.00  0.00    -0.043 A 
ATOM     11  C   UNL A   1      47.201 -21.595 -39.462  0.00  0.00    -0.060 A 
ATOM     12  C   UNL A   1      46.108 -20.795 -39.801  0.00  0.00    -0.057 A 
ATOM     13  C   UNL A   1      45.419 -21.001 -41.008  0.00  0.00    -0.026 A 
ATOM     14  C   UNL A   1      45.840 -22.038 -41.856  0.00  0.00    -0.039 A 
ENDBRANCH   7  13
ENDBRANCH   1   7
BRANCH   5  15
ATOM     15  C   UNL A   1      41.193 -18.913 -37.643  0.00  0.00    +0.050 C 
BRANCH  15  16
ATOM     16  N   UNL A   1      41.691 -19.357 -36.347  0.00  0.00    -0.339 N 
ATOM     17  C   UNL A   1      42.933 -19.073 -35.827  0.00  0.00    +0.023 A 
ATOM     18  C   UNL A   1      43.033 -19.695 -34.597  0.00  0.00    -0.019 A 
ATOM     19  C   UNL A   1      41.806 -20.364 -34.347  0.00  0.00    +0.003 A 
ATOM     20  C   UNL A   1      41.325 -21.145 -33.277  0.00  0.00    -0.052 A 
ATOM     21  C   UNL A   1      40.025 -21.654 -33.320  0.00  0.00    -0.061 A 
ATOM     22  C   UNL A   1      39.201 -21.392 -34.409  0.00  0.00    -0.060 A 
ATOM     23  C   UNL A   1      39.655 -20.623 -35.485  0.00  0.00    -0.038 A 
ATOM     24  C   UNL A   1      40.968 -20.120 -35.442  0.00  0.00    +0.050 A 
ATOM     25  C   UNL A   1      44.257 -19.617 -33.743  0.00  0.00    -0.025 C 
ATOM     26  C   UNL A   1      45.167 -18.457 -34.182  0.00  0.00    -0.049 C 
ATOM     27  C   UNL A   1      45.328 -18.405 -35.711  0.00  0.00    -0.047 C 
ATOM     28  C   UNL A   1      43.983 -18.199 -36.430  0.00  0.00    -0.012 C 
ENDBRANCH  15  16
ENDBRANCH   5  15
TORSDOF 4
ENDMDL
MODEL 20
REMARK VINA RESULT:    -6.565     19.036     22.385
REMARK INTER + INTRA:          -9.954
REMARK INTER:                  -8.144
REMARK INTRA:                  -1.810
REMARK UNBOUND:                -1.854
REMARK  Name = cpd346.pdb
REMARK  4 active torsions:
REMARK  status: ('A' for Active; 'I' for Inactive)
REMARK    1  A    between atoms: C_6  and  C_7
REMARK    2  A    between atoms: C_7  and  N_8
REMARK    3  A    between atoms: C_12  and  C_13
REMARK    4  A    between atoms: C_13  and  N_14
REMARK                            x       y       z     vdW  Elec       q    Type
REMARK                         _______ _______ _______ _____ _____    ______ ____
ROOT
ATOM      1  N   UNL A   1      43.251 -20.561 -36.171  0.00  0.00    -0.349 N 
ATOM      2  C   UNL A   1      42.129 -21.067 -35.608  0.00  0.00    +0.005 A 
ATOM      3  C   UNL A   1      41.116 -21.591 -36.397  0.00  0.00    -0.045 A 
ATOM      4  C   UNL A   1      41.255 -21.575 -37.779  0.00  0.00    -0.054 A 
ATOM      5  C   UNL A   1      42.401 -21.030 -38.363  0.00  0.00    -0.012 A 
ATOM      6  C   UNL A   1      43.397 -20.534 -37.519  0.00  0.00    +0.010 A 
ENDROOT
BRANCH   1   7
ATOM      7  C   UNL A   1      44.311 -19.989 -35.301  0.00  0.00    +0.048 C 
BRANCH   7  13
ATOM      8 CL   UNL A   1      46.321 -15.464 -36.935  0.00  0.00    -0.084 Cl
ATOM      9  C   UNL A   1      46.332 -17.182 -36.899  0.00  0.00    +0.041 A 
ATOM     10  C   UNL A   1      47.302 -17.887 -37.603  0.00  0.00    -0.043 A 
ATOM     11  C   UNL A   1      47.303 -19.281 -37.570  0.00  0.00    -0.060 A 
ATOM     12  C   UNL A   1      46.338 -19.968 -36.831  0.00  0.00    -0.057 A 
ATOM     13  C   UNL A   1      45.361 -19.265 -36.105  0.00  0.00    -0.026 A 
ATOM     14  C   UNL A   1      45.363 -17.861 -36.156  0.00  0.00    -0.039 A 
ENDBRANCH   7  13
ENDBRANCH   1   7
BRANCH   5  15
ATOM     15  C   UNL A   1      42.570 -20.968 -39.865  0.00  0.00    +0.050 C 
BRANCH  15  16
ATOM     16  N   UNL A   1      43.773 -20.236 -40.241  0.00  0.00    -0.339 N 
ATOM     17  C   UNL A   1      43.879 -18.868 -40.345  0.00  0.00    +0.023 A 
ATOM     18  C   UNL A   1      45.165 -18.568 -40.751  0.00  0.00    -0.019 A 
ATOM     19  C   UNL A   1      45.876 -19.790 -40.880  0.00  0.00    +0.003 A 
ATOM     20  C   UNL A   1      47.198 -20.112 -41.248  0.00  0.00    -0.052 A 
ATOM     21  C   UNL A   1      47.612 -21.446 -41.251  0.00  0.00    -0.061 A 
ATOM     22  C   UNL A   1      46.729 -22.458 -40.890  0.00  0.00    -0.060 A 
ATOM     23  C   UNL A   1      45.412 -22.167 -40.525  0.00  0.00    -0.038 A 
ATOM     24  C   UNL A   1      44.997 -20.822 -40.532  0.00  0.00    +0.050 A 
ATOM     25  C   UNL A   1      45.641 -17.171 -40.982  0.00  0.00    -0.025 C 
ATOM     26  C   UNL A   1      44.701 -16.148 -40.320  0.00  0.00    -0.049 C 
ATOM     27  C   UNL A   1      43.222 -16.479 -40.580  0.00  0.00    -0.047 C 
ATOM     28  C   UNL A   1      42.828 -17.858 -40.022  0.00  0.00    -0.012 C 
ENDBRANCH  15  16
ENDBRANCH   5  15
TORSDOF 4
ENDMDL
