REMARK  Name = cpd346.pdb
REMARK  4 active torsions:
REMARK  status: ('A' for Active; 'I' for Inactive)
REMARK    1  A    between atoms: C_6  and  C_7
REMARK    2  A    between atoms: C_7  and  N_8
REMARK    3  A    between atoms: C_12  and  C_13
REMARK    4  A    between atoms: C_13  and  N_14
REMARK                            x       y       z     vdW  Elec       q    Type
REMARK                         _______ _______ _______ _____ _____    ______ ____
ROOT
ATOM      1  N   UNL A   1       3.098  -0.038   0.305  0.00  0.00    -0.349 N 
ATOM      2  C   UNL A   1       3.245  -0.769   1.435  0.00  0.00    +0.005 A 
ATOM      3  C   UNL A   1       2.393  -1.829   1.707  0.00  0.00    -0.045 A 
ATOM      4  C   UNL A   1       1.371  -2.125   0.814  0.00  0.00    -0.054 A 
ATOM      5  C   UNL A   1       1.203  -1.356  -0.340  0.00  0.00    -0.012 A 
ATOM      6  C   UNL A   1       2.102  -0.313  -0.572  0.00  0.00    +0.010 A 
ENDROOT
BRANCH   1   7
ATOM      7  C   UNL A   1       4.014   1.104   0.050  0.00  0.00    +0.048 C 
BRANCH   7  13
ATOM      8 CL   UNL A   1       9.004   1.405   1.531  0.00  0.00    -0.084 Cl
ATOM      9  C   UNL A   1       7.779   0.754   0.518  0.00  0.00    +0.041 A 
ATOM     10  C   UNL A   1       8.106  -0.186  -0.454  0.00  0.00    -0.043 A 
ATOM     11  C   UNL A   1       7.107  -0.708  -1.274  0.00  0.00    -0.060 A 
ATOM     12  C   UNL A   1       5.782  -0.294  -1.119  0.00  0.00    -0.057 A 
ATOM     13  C   UNL A   1       5.439   0.645  -0.132  0.00  0.00    -0.026 A 
ATOM     14  C   UNL A   1       6.456   1.173   0.680  0.00  0.00    -0.039 A 
ENDBRANCH   7  13
ENDBRANCH   1   7
BRANCH   5  15
ATOM     15  C   UNL A   1       0.081  -1.632  -1.317  0.00  0.00    +0.050 C 
BRANCH  15  16
ATOM     16  N   UNL A   1      -1.227  -1.451  -0.698  0.00  0.00    -0.339 N 
ATOM     17  C   UNL A   1      -1.871  -0.248  -0.525  0.00  0.00    +0.023 A 
ATOM     18  C   UNL A   1      -3.067  -0.493   0.122  0.00  0.00    -0.019 A 
ATOM     19  C   UNL A   1      -3.168  -1.893   0.334  0.00  0.00    +0.003 A 
ATOM     20  C   UNL A   1      -4.144  -2.719   0.927  0.00  0.00    -0.052 A 
ATOM     21  C   UNL A   1      -3.956  -4.103   0.956  0.00  0.00    -0.061 A 
ATOM     22  C   UNL A   1      -2.815  -4.671   0.401  0.00  0.00    -0.060 A 
ATOM     23  C   UNL A   1      -1.830  -3.874  -0.190  0.00  0.00    -0.038 A 
ATOM     24  C   UNL A   1      -2.019  -2.480  -0.209  0.00  0.00    +0.050 A 
ATOM     25  C   UNL A   1      -4.030   0.589   0.490  0.00  0.00    -0.025 C 
ATOM     26  C   UNL A   1      -3.741   1.880  -0.295  0.00  0.00    -0.049 C 
ATOM     27  C   UNL A   1      -2.238   2.206  -0.325  0.00  0.00    -0.047 C 
ATOM     28  C   UNL A   1      -1.415   1.093  -0.998  0.00  0.00    -0.012 C 
ENDBRANCH  15  16
ENDBRANCH   5  15
TORSDOF 4
