REMARK  Name = cpd1.pdb
REMARK  1 active torsions:
REMARK  status: ('A' for Active; 'I' for Inactive)
REMARK    1  A    between atoms: N_1  and  C_2
REMARK                            x       y       z     vdW  Elec       q    Type
REMARK                         _______ _______ _______ _____ _____    ______ ____
ROOT
ATOM      1  C   UNL A   1       1.874  -0.406  -0.083  0.00  0.00    +0.039 A 
ATOM      2  C   UNL A   1       0.658   0.300   0.018  0.00  0.00    -0.005 A 
ATOM      3  C   UNL A   1       0.715   1.696   0.009  0.00  0.00    +0.047 A 
ATOM      4  N   UNL A   1       1.876   2.390  -0.012  0.00  0.00    -0.251 NA
ATOM      5  C   UNL A   1       3.033   1.717  -0.006  0.00  0.00    +0.073 A 
ATOM      6  C   UNL A   1       4.210   2.454   0.022  0.00  0.00    -0.036 A 
ATOM      7  C   UNL A   1       5.465   1.845   0.053  0.00  0.00    -0.060 A 
ATOM      8  C   UNL A   1       5.552   0.462   0.063  0.00  0.00    -0.061 A 
ATOM      9  C   UNL A   1       4.384  -0.299   0.030  0.00  0.00    -0.051 A 
ATOM     10  C   UNL A   1       3.102   0.309  -0.018  0.00  0.00    +0.021 A 
ATOM     11  C   UNL A   1      -0.529   2.544   0.090  0.00  0.00    -0.010 C 
ATOM     12  C   UNL A   1      -1.794   1.796  -0.309  0.00  0.00    -0.047 C 
ATOM     13  C   UNL A   1      -1.858   0.469   0.431  0.00  0.00    -0.049 C 
ATOM     14  C   UNL A   1      -0.672  -0.416   0.048  0.00  0.00    -0.024 C 
ENDROOT
BRANCH   1  15
ATOM     15  N   UNL A   1       1.864  -1.824  -0.039  0.00  0.00    -0.357 N 
ATOM     16  H   UNL A   1       1.010  -2.312  -0.084  0.00  0.00    +0.000 HD
ATOM     17  H   UNL A   1       2.711  -2.320   0.037  0.00  0.00    +0.000 HD
ENDBRANCH   1  15
TORSDOF 1
