MODEL 1
REMARK VINA RESULT:    -8.419      0.000      0.000
REMARK INTER + INTRA:          -8.665
REMARK INTER:                  -8.665
REMARK INTRA:                   0.000
REMARK UNBOUND:                 0.000
REMARK  Name = cpd1.pdb
REMARK  1 active torsions:
REMARK  status: ('A' for Active; 'I' for Inactive)
REMARK    1  A    between atoms: N_1  and  C_2
REMARK                            x       y       z     vdW  Elec       q    Type
REMARK                         _______ _______ _______ _____ _____    ______ ____
ROOT
ATOM      1  C   UNL A   1      39.848 -38.046 -29.000  0.00  0.00    +0.039 A 
ATOM      2  C   UNL A   1      40.559 -37.665 -30.156  0.00  0.00    -0.005 A 
ATOM      3  C   UNL A   1      39.948 -36.757 -31.025  0.00  0.00    +0.047 A 
ATOM      4  N   UNL A   1      38.689 -36.295 -30.848  0.00  0.00    -0.251 NA
ATOM      5  C   UNL A   1      37.978 -36.737 -29.803  0.00  0.00    +0.073 A 
ATOM      6  C   UNL A   1      36.671 -36.285 -29.672  0.00  0.00    -0.036 A 
ATOM      7  C   UNL A   1      35.843 -36.704 -28.631  0.00  0.00    -0.060 A 
ATOM      8  C   UNL A   1      36.326 -37.605 -27.695  0.00  0.00    -0.061 A 
ATOM      9  C   UNL A   1      37.637 -38.069 -27.803  0.00  0.00    -0.051 A 
ATOM     10  C   UNL A   1      38.494 -37.637 -28.849  0.00  0.00    +0.021 A 
ATOM     11  C   UNL A   1      40.632 -36.269 -32.277  0.00  0.00    -0.010 C 
ATOM     12  C   UNL A   1      42.144 -36.444 -32.243  0.00  0.00    -0.047 C 
ATOM     13  C   UNL A   1      42.485 -37.866 -31.824  0.00  0.00    -0.049 C 
ATOM     14  C   UNL A   1      41.967 -38.147 -30.414  0.00  0.00    -0.024 C 
ENDROOT
BRANCH   1  15
ATOM     15  N   UNL A   1      40.416 -38.995 -28.112  0.00  0.00    -0.357 N 
ATOM     16  H   UNL A   1      39.946 -39.841 -27.928  0.00  0.00    +0.000 HD
ATOM     17  H   UNL A   1      41.281 -38.808 -27.680  0.00  0.00    +0.000 HD
ENDBRANCH   1  15
TORSDOF 1
ENDMDL
MODEL 2
REMARK VINA RESULT:    -8.158      0.969      5.396
REMARK INTER + INTRA:          -8.397
REMARK INTER:                  -8.397
REMARK INTRA:                   0.000
REMARK UNBOUND:                 0.000
REMARK  Name = cpd1.pdb
REMARK  1 active torsions:
REMARK  status: ('A' for Active; 'I' for Inactive)
REMARK    1  A    between atoms: N_1  and  C_2
REMARK                            x       y       z     vdW  Elec       q    Type
REMARK                         _______ _______ _______ _____ _____    ______ ____
ROOT
ATOM      1  C   UNL A   1      38.252 -35.944 -30.989  0.00  0.00    +0.039 A 
ATOM      2  C   UNL A   1      37.581 -36.567 -29.918  0.00  0.00    -0.005 A 
ATOM      3  C   UNL A   1      38.299 -37.487 -29.149  0.00  0.00    +0.047 A 
ATOM      4  N   UNL A   1      39.569 -37.858 -29.433  0.00  0.00    -0.251 NA
ATOM      5  C   UNL A   1      40.169 -37.340 -30.511  0.00  0.00    +0.073 A 
ATOM      6  C   UNL A   1      41.455 -37.776 -30.807  0.00  0.00    -0.036 A 
ATOM      7  C   UNL A   1      42.156 -37.313 -31.921  0.00  0.00    -0.060 A 
ATOM      8  C   UNL A   1      41.558 -36.394 -32.769  0.00  0.00    -0.061 A 
ATOM      9  C   UNL A   1      40.271 -35.938 -32.489  0.00  0.00    -0.051 A 
ATOM     10  C   UNL A   1      39.554 -36.389 -31.350  0.00  0.00    +0.021 A 
ATOM     11  C   UNL A   1      37.681 -38.191 -27.968  0.00  0.00    -0.010 C 
ATOM     12  C   UNL A   1      36.454 -37.478 -27.416  0.00  0.00    -0.047 C 
ATOM     13  C   UNL A   1      35.500 -37.149 -28.554  0.00  0.00    -0.049 C 
ATOM     14  C   UNL A   1      36.163 -36.199 -29.551  0.00  0.00    -0.024 C 
ENDROOT
BRANCH   1  15
ATOM     15  N   UNL A   1      37.548 -35.033 -31.819  0.00  0.00    -0.357 N 
ATOM     16  H   UNL A   1      37.296 -34.146 -31.473  0.00  0.00    +0.000 HD
ATOM     17  H   UNL A   1      37.311 -35.288 -32.740  0.00  0.00    +0.000 HD
ENDBRANCH   1  15
TORSDOF 1
ENDMDL
MODEL 3
REMARK VINA RESULT:    -8.081      1.207      2.845
REMARK INTER + INTRA:          -8.317
REMARK INTER:                  -8.317
REMARK INTRA:                   0.000
REMARK UNBOUND:                 0.000
REMARK  Name = cpd1.pdb
REMARK  1 active torsions:
REMARK  status: ('A' for Active; 'I' for Inactive)
REMARK    1  A    between atoms: N_1  and  C_2
REMARK                            x       y       z     vdW  Elec       q    Type
REMARK                         _______ _______ _______ _____ _____    ______ ____
ROOT
ATOM      1  C   UNL A   1      38.561 -35.834 -31.628  0.00  0.00    +0.039 A 
ATOM      2  C   UNL A   1      39.819 -36.432 -31.409  0.00  0.00    -0.005 A 
ATOM      3  C   UNL A   1      39.955 -37.270 -30.300  0.00  0.00    +0.047 A 
ATOM      4  N   UNL A   1      38.970 -37.468 -29.395  0.00  0.00    -0.251 NA
ATOM      5  C   UNL A   1      37.809 -36.819 -29.549  0.00  0.00    +0.073 A 
ATOM      6  C   UNL A   1      36.832 -37.001 -28.578  0.00  0.00    -0.036 A 
ATOM      7  C   UNL A   1      35.599 -36.352 -28.638  0.00  0.00    -0.060 A 
ATOM      8  C   UNL A   1      35.331 -35.491 -29.690  0.00  0.00    -0.061 A 
ATOM      9  C   UNL A   1      36.294 -35.296 -30.679  0.00  0.00    -0.051 A 
ATOM     10  C   UNL A   1      37.547 -35.964 -30.638  0.00  0.00    +0.021 A 
ATOM     11  C   UNL A   1      41.251 -37.976 -29.990  0.00  0.00    -0.010 C 
ATOM     12  C   UNL A   1      42.177 -38.091 -31.194  0.00  0.00    -0.047 C 
ATOM     13  C   UNL A   1      42.315 -36.732 -31.864  0.00  0.00    -0.049 C 
ATOM     14  C   UNL A   1      40.960 -36.249 -32.382  0.00  0.00    -0.024 C 
ENDROOT
BRANCH   1  15
ATOM     15  N   UNL A   1      38.390 -34.946 -32.721  0.00  0.00    -0.357 N 
ATOM     16  H   UNL A   1      38.034 -35.280 -33.576  0.00  0.00    +0.000 HD
ATOM     17  H   UNL A   1      38.628 -33.995 -32.624  0.00  0.00    +0.000 HD
ENDBRANCH   1  15
TORSDOF 1
ENDMDL
MODEL 4
REMARK VINA RESULT:    -7.621      1.242      4.963
REMARK INTER + INTRA:          -7.844
REMARK INTER:                  -7.844
REMARK INTRA:                   0.000
REMARK UNBOUND:                 0.000
REMARK  Name = cpd1.pdb
REMARK  1 active torsions:
REMARK  status: ('A' for Active; 'I' for Inactive)
REMARK    1  A    between atoms: N_1  and  C_2
REMARK                            x       y       z     vdW  Elec       q    Type
REMARK                         _______ _______ _______ _____ _____    ______ ____
ROOT
ATOM      1  C   UNL A   1      38.595 -37.249 -29.737  0.00  0.00    +0.039 A 
ATOM      2  C   UNL A   1      37.350 -36.589 -29.728  0.00  0.00    -0.005 A 
ATOM      3  C   UNL A   1      37.048 -35.756 -30.808  0.00  0.00    +0.047 A 
ATOM      4  N   UNL A   1      37.919 -35.497 -31.810  0.00  0.00    -0.251 NA
ATOM      5  C   UNL A   1      39.140 -36.045 -31.765  0.00  0.00    +0.073 A 
ATOM      6  C   UNL A   1      40.031 -35.723 -32.780  0.00  0.00    -0.036 A 
ATOM      7  C   UNL A   1      41.333 -36.226 -32.810  0.00  0.00    -0.060 A 
ATOM      8  C   UNL A   1      41.762 -37.068 -31.797  0.00  0.00    -0.061 A 
ATOM      9  C   UNL A   1      40.883 -37.410 -30.770  0.00  0.00    -0.051 A 
ATOM     10  C   UNL A   1      39.552 -36.918 -30.737  0.00  0.00    +0.021 A 
ATOM     11  C   UNL A   1      35.735 -35.022 -30.905  0.00  0.00    -0.010 C 
ATOM     12  C   UNL A   1      34.640 -35.631 -30.038  0.00  0.00    -0.047 C 
ATOM     13  C   UNL A   1      35.166 -35.848 -28.628  0.00  0.00    -0.049 C 
ATOM     14  C   UNL A   1      36.334 -36.834 -28.637  0.00  0.00    -0.024 C 
ENDROOT
BRANCH   1  15
ATOM     15  N   UNL A   1      38.957 -38.074 -28.641  0.00  0.00    -0.357 N 
ATOM     16  H   UNL A   1      39.826 -38.538 -28.640  0.00  0.00    +0.000 HD
ATOM     17  H   UNL A   1      38.340 -38.183 -27.883  0.00  0.00    +0.000 HD
ENDBRANCH   1  15
TORSDOF 1
ENDMDL
MODEL 5
REMARK VINA RESULT:    -7.377      1.474      5.401
REMARK INTER + INTRA:          -7.593
REMARK INTER:                  -7.593
REMARK INTRA:                   0.000
REMARK UNBOUND:                 0.000
REMARK  Name = cpd1.pdb
REMARK  1 active torsions:
REMARK  status: ('A' for Active; 'I' for Inactive)
REMARK    1  A    between atoms: N_1  and  C_2
REMARK                            x       y       z     vdW  Elec       q    Type
REMARK                         _______ _______ _______ _____ _____    ______ ____
ROOT
ATOM      1  C   UNL A   1      37.966 -35.951 -31.171  0.00  0.00    +0.039 A 
ATOM      2  C   UNL A   1      36.762 -35.975 -30.437  0.00  0.00    -0.005 A 
ATOM      3  C   UNL A   1      36.771 -36.615 -29.196  0.00  0.00    +0.047 A 
ATOM      4  N   UNL A   1      37.848 -37.274 -28.709  0.00  0.00    -0.251 NA
ATOM      5  C   UNL A   1      38.959 -37.337 -29.453  0.00  0.00    +0.073 A 
ATOM      6  C   UNL A   1      40.033 -38.061 -28.952  0.00  0.00    -0.036 A 
ATOM      7  C   UNL A   1      41.226 -38.204 -29.661  0.00  0.00    -0.060 A 
ATOM      8  C   UNL A   1      41.352 -37.615 -30.909  0.00  0.00    -0.061 A 
ATOM      9  C   UNL A   1      40.289 -36.879 -31.431  0.00  0.00    -0.051 A 
ATOM     10  C   UNL A   1      39.076 -36.712 -30.712  0.00  0.00    +0.021 A 
ATOM     11  C   UNL A   1      35.543 -36.677 -28.323  0.00  0.00    -0.010 C 
ATOM     12  C   UNL A   1      34.510 -35.611 -28.662  0.00  0.00    -0.047 C 
ATOM     13  C   UNL A   1      34.248 -35.610 -30.160  0.00  0.00    -0.049 C 
ATOM     14  C   UNL A   1      35.524 -35.261 -30.926  0.00  0.00    -0.024 C 
ENDROOT
BRANCH   1  15
ATOM     15  N   UNL A   1      37.990 -35.345 -32.453  0.00  0.00    -0.357 N 
ATOM     16  H   UNL A   1      37.360 -35.640 -33.150  0.00  0.00    +0.000 HD
ATOM     17  H   UNL A   1      38.638 -34.629 -32.646  0.00  0.00    +0.000 HD
ENDBRANCH   1  15
TORSDOF 1
ENDMDL
MODEL 6
REMARK VINA RESULT:    -7.348      1.626      4.878
REMARK INTER + INTRA:          -7.562
REMARK INTER:                  -7.562
REMARK INTRA:                   0.000
REMARK UNBOUND:                 0.000
REMARK  Name = cpd1.pdb
REMARK  1 active torsions:
REMARK  status: ('A' for Active; 'I' for Inactive)
REMARK    1  A    between atoms: N_1  and  C_2
REMARK                            x       y       z     vdW  Elec       q    Type
REMARK                         _______ _______ _______ _____ _____    ______ ____
ROOT
ATOM      1  C   UNL A   1      37.225 -37.363 -28.558  0.00  0.00    +0.039 A 
ATOM      2  C   UNL A   1      36.346 -36.435 -29.152  0.00  0.00    -0.005 A 
ATOM      3  C   UNL A   1      36.759 -35.814 -30.334  0.00  0.00    +0.047 A 
ATOM      4  N   UNL A   1      37.982 -36.003 -30.882  0.00  0.00    -0.251 NA
ATOM      5  C   UNL A   1      38.852 -36.808 -30.261  0.00  0.00    +0.073 A 
ATOM      6  C   UNL A   1      40.117 -36.946 -30.819  0.00  0.00    -0.036 A 
ATOM      7  C   UNL A   1      41.101 -37.744 -30.235  0.00  0.00    -0.060 A 
ATOM      8  C   UNL A   1      40.822 -38.420 -29.058  0.00  0.00    -0.061 A 
ATOM      9  C   UNL A   1      39.557 -38.301 -28.482  0.00  0.00    -0.051 A 
ATOM     10  C   UNL A   1      38.542 -37.505 -29.076  0.00  0.00    +0.021 A 
ATOM     11  C   UNL A   1      35.886 -34.822 -31.059  0.00  0.00    -0.010 C 
ATOM     12  C   UNL A   1      34.412 -34.939 -30.694  0.00  0.00    -0.047 C 
ATOM     13  C   UNL A   1      34.261 -34.959 -29.181  0.00  0.00    -0.049 C 
ATOM     14  C   UNL A   1      34.969 -36.176 -28.588  0.00  0.00    -0.024 C 
ENDROOT
BRANCH   1  15
ATOM     15  N   UNL A   1      36.860 -37.987 -27.338  0.00  0.00    -0.357 N 
ATOM     16  H   UNL A   1      37.549 -38.192 -26.664  0.00  0.00    +0.000 HD
ATOM     17  H   UNL A   1      35.919 -38.216 -27.164  0.00  0.00    +0.000 HD
ENDBRANCH   1  15
TORSDOF 1
ENDMDL
MODEL 7
REMARK VINA RESULT:    -7.306      1.318      3.071
REMARK INTER + INTRA:          -7.519
REMARK INTER:                  -7.519
REMARK INTRA:                   0.000
REMARK UNBOUND:                 0.000
REMARK  Name = cpd1.pdb
REMARK  1 active torsions:
REMARK  status: ('A' for Active; 'I' for Inactive)
REMARK    1  A    between atoms: N_1  and  C_2
REMARK                            x       y       z     vdW  Elec       q    Type
REMARK                         _______ _______ _______ _____ _____    ______ ____
ROOT
ATOM      1  C   UNL A   1      37.690 -36.491 -30.113  0.00  0.00    +0.039 A 
ATOM      2  C   UNL A   1      38.960 -37.048 -29.862  0.00  0.00    -0.005 A 
ATOM      3  C   UNL A   1      39.098 -37.868 -28.739  0.00  0.00    +0.047 A 
ATOM      4  N   UNL A   1      38.100 -38.084 -27.852  0.00  0.00    -0.251 NA
ATOM      5  C   UNL A   1      36.924 -37.473 -28.038  0.00  0.00    +0.073 A 
ATOM      6  C   UNL A   1      35.933 -37.672 -27.086  0.00  0.00    -0.036 A 
ATOM      7  C   UNL A   1      34.682 -37.061 -27.179  0.00  0.00    -0.060 A 
ATOM      8  C   UNL A   1      34.411 -36.222 -28.248  0.00  0.00    -0.061 A 
ATOM      9  C   UNL A   1      35.389 -36.011 -29.219  0.00  0.00    -0.051 A 
ATOM     10  C   UNL A   1      36.660 -36.639 -29.144  0.00  0.00    +0.021 A 
ATOM     11  C   UNL A   1      40.408 -38.530 -28.393  0.00  0.00    -0.010 C 
ATOM     12  C   UNL A   1      41.362 -38.632 -29.576  0.00  0.00    -0.047 C 
ATOM     13  C   UNL A   1      41.474 -37.278 -30.260  0.00  0.00    -0.049 C 
ATOM     14  C   UNL A   1      40.116 -36.843 -30.812  0.00  0.00    -0.024 C 
ENDROOT
BRANCH   1  15
ATOM     15  N   UNL A   1      37.516 -35.622 -31.221  0.00  0.00    -0.357 N 
ATOM     16  H   UNL A   1      37.575 -35.975 -32.138  0.00  0.00    +0.000 HD
ATOM     17  H   UNL A   1      37.336 -34.665 -31.072  0.00  0.00    +0.000 HD
ENDBRANCH   1  15
TORSDOF 1
ENDMDL
MODEL 8
REMARK VINA RESULT:    -6.992      1.466      2.095
REMARK INTER + INTRA:          -7.196
REMARK INTER:                  -7.196
REMARK INTRA:                   0.000
REMARK UNBOUND:                 0.000
REMARK  Name = cpd1.pdb
REMARK  1 active torsions:
REMARK  status: ('A' for Active; 'I' for Inactive)
REMARK    1  A    between atoms: N_1  and  C_2
REMARK                            x       y       z     vdW  Elec       q    Type
REMARK                         _______ _______ _______ _____ _____    ______ ____
ROOT
ATOM      1  C   UNL A   1      37.834 -37.128 -28.926  0.00  0.00    +0.039 A 
ATOM      2  C   UNL A   1      38.984 -37.058 -29.738  0.00  0.00    -0.005 A 
ATOM      3  C   UNL A   1      38.966 -36.166 -30.814  0.00  0.00    +0.047 A 
ATOM      4  N   UNL A   1      37.879 -35.436 -31.153  0.00  0.00    -0.251 NA
ATOM      5  C   UNL A   1      36.754 -35.580 -30.441  0.00  0.00    +0.073 A 
ATOM      6  C   UNL A   1      35.639 -34.856 -30.841  0.00  0.00    -0.036 A 
ATOM      7  C   UNL A   1      34.415 -34.955 -30.178  0.00  0.00    -0.060 A 
ATOM      8  C   UNL A   1      34.295 -35.804 -29.090  0.00  0.00    -0.061 A 
ATOM      9  C   UNL A   1      35.403 -36.537 -28.667  0.00  0.00    -0.051 A 
ATOM     10  C   UNL A   1      36.658 -36.433 -29.323  0.00  0.00    +0.021 A 
ATOM     11  C   UNL A   1      40.153 -35.999 -31.729  0.00  0.00    -0.010 C 
ATOM     12  C   UNL A   1      41.461 -36.476 -31.112  0.00  0.00    -0.047 C 
ATOM     13  C   UNL A   1      41.274 -37.869 -30.531  0.00  0.00    -0.049 C 
ATOM     14  C   UNL A   1      40.230 -37.849 -29.415  0.00  0.00    -0.024 C 
ENDROOT
BRANCH   1  15
ATOM     15  N   UNL A   1      37.796 -38.048 -27.847  0.00  0.00    -0.357 N 
ATOM     16  H   UNL A   1      36.967 -38.166 -27.329  0.00  0.00    +0.000 HD
ATOM     17  H   UNL A   1      38.600 -38.568 -27.615  0.00  0.00    +0.000 HD
ENDBRANCH   1  15
TORSDOF 1
ENDMDL
MODEL 9
REMARK VINA RESULT:    -6.722      3.081      5.434
REMARK INTER + INTRA:          -6.918
REMARK INTER:                  -6.918
REMARK INTRA:                   0.000
REMARK UNBOUND:                 0.000
REMARK  Name = cpd1.pdb
REMARK  1 active torsions:
REMARK  status: ('A' for Active; 'I' for Inactive)
REMARK    1  A    between atoms: N_1  and  C_2
REMARK                            x       y       z     vdW  Elec       q    Type
REMARK                         _______ _______ _______ _____ _____    ______ ____
ROOT
ATOM      1  C   UNL A   1      36.374 -34.882 -30.776  0.00  0.00    +0.039 A 
ATOM      2  C   UNL A   1      36.677 -35.968 -29.930  0.00  0.00    -0.005 A 
ATOM      3  C   UNL A   1      35.789 -36.248 -28.889  0.00  0.00    +0.047 A 
ATOM      4  N   UNL A   1      34.707 -35.485 -28.613  0.00  0.00    -0.251 NA
ATOM      5  C   UNL A   1      34.476 -34.395 -29.356  0.00  0.00    +0.073 A 
ATOM      6  C   UNL A   1      33.387 -33.602 -29.020  0.00  0.00    -0.036 A 
ATOM      7  C   UNL A   1      33.077 -32.434 -29.718  0.00  0.00    -0.060 A 
ATOM      8  C   UNL A   1      33.878 -32.041 -30.779  0.00  0.00    -0.061 A 
ATOM      9  C   UNL A   1      34.974 -32.824 -31.138  0.00  0.00    -0.051 A 
ATOM     10  C   UNL A   1      35.290 -34.023 -30.445  0.00  0.00    +0.021 A 
ATOM     11  C   UNL A   1      36.010 -37.400 -27.942  0.00  0.00    -0.010 C 
ATOM     12  C   UNL A   1      36.946 -38.465 -28.498  0.00  0.00    -0.047 C 
ATOM     13  C   UNL A   1      38.208 -37.807 -29.033  0.00  0.00    -0.049 C 
ATOM     14  C   UNL A   1      37.872 -36.858 -30.183  0.00  0.00    -0.024 C 
ENDROOT
BRANCH   1  15
ATOM     15  N   UNL A   1      37.269 -34.540 -31.822  0.00  0.00    -0.357 N 
ATOM     16  H   UNL A   1      37.280 -33.624 -32.181  0.00  0.00    +0.000 HD
ATOM     17  H   UNL A   1      37.880 -35.220 -32.189  0.00  0.00    +0.000 HD
ENDBRANCH   1  15
TORSDOF 1
ENDMDL
MODEL 10
REMARK VINA RESULT:    -6.580      2.681      6.006
REMARK INTER + INTRA:          -6.772
REMARK INTER:                  -6.772
REMARK INTRA:                   0.000
REMARK UNBOUND:                 0.000
REMARK  Name = cpd1.pdb
REMARK  1 active torsions:
REMARK  status: ('A' for Active; 'I' for Inactive)
REMARK    1  A    between atoms: N_1  and  C_2
REMARK                            x       y       z     vdW  Elec       q    Type
REMARK                         _______ _______ _______ _____ _____    ______ ____
ROOT
ATOM      1  C   UNL A   1      36.723 -34.961 -30.744  0.00  0.00    +0.039 A 
ATOM      2  C   UNL A   1      35.444 -34.463 -30.422  0.00  0.00    -0.005 A 
ATOM      3  C   UNL A   1      34.819 -34.969 -29.280  0.00  0.00    +0.047 A 
ATOM      4  N   UNL A   1      35.346 -35.961 -28.525  0.00  0.00    -0.251 NA
ATOM      5  C   UNL A   1      36.514 -36.502 -28.890  0.00  0.00    +0.073 A 
ATOM      6  C   UNL A   1      37.008 -37.551 -28.126  0.00  0.00    -0.036 A 
ATOM      7  C   UNL A   1      38.205 -38.196 -28.438  0.00  0.00    -0.060 A 
ATOM      8  C   UNL A   1      38.929 -37.790 -29.548  0.00  0.00    -0.061 A 
ATOM      9  C   UNL A   1      38.456 -36.735 -30.327  0.00  0.00    -0.051 A 
ATOM     10  C   UNL A   1      37.247 -36.061 -30.010  0.00  0.00    +0.021 A 
ATOM     11  C   UNL A   1      33.461 -34.488 -28.836  0.00  0.00    -0.010 C 
ATOM     12  C   UNL A   1      33.086 -33.129 -29.412  0.00  0.00    -0.047 C 
ATOM     13  C   UNL A   1      33.321 -33.129 -30.915  0.00  0.00    -0.049 C 
ATOM     14  C   UNL A   1      34.800 -33.358 -31.226  0.00  0.00    -0.024 C 
ENDROOT
BRANCH   1  15
ATOM     15  N   UNL A   1      37.377 -34.501 -31.916  0.00  0.00    -0.357 N 
ATOM     16  H   UNL A   1      36.849 -34.252 -32.709  0.00  0.00    +0.000 HD
ATOM     17  H   UNL A   1      38.359 -34.431 -31.936  0.00  0.00    +0.000 HD
ENDBRANCH   1  15
TORSDOF 1
ENDMDL
MODEL 11
REMARK VINA RESULT:    -6.390      3.228      5.133
REMARK INTER + INTRA:          -6.576
REMARK INTER:                  -6.576
REMARK INTRA:                   0.000
REMARK UNBOUND:                 0.000
REMARK  Name = cpd1.pdb
REMARK  1 active torsions:
REMARK  status: ('A' for Active; 'I' for Inactive)
REMARK    1  A    between atoms: N_1  and  C_2
REMARK                            x       y       z     vdW  Elec       q    Type
REMARK                         _______ _______ _______ _____ _____    ______ ____
ROOT
ATOM      1  C   UNL A   1      34.891 -35.479 -28.893  0.00  0.00    +0.039 A 
ATOM      2  C   UNL A   1      36.012 -36.209 -29.337  0.00  0.00    -0.005 A 
ATOM      3  C   UNL A   1      36.794 -35.648 -30.350  0.00  0.00    +0.047 A 
ATOM      4  N   UNL A   1      36.480 -34.487 -30.971  0.00  0.00    -0.251 NA
ATOM      5  C   UNL A   1      35.360 -33.846 -30.617  0.00  0.00    +0.073 A 
ATOM      6  C   UNL A   1      35.036 -32.683 -31.304  0.00  0.00    -0.036 A 
ATOM      7  C   UNL A   1      33.878 -31.956 -31.025  0.00  0.00    -0.060 A 
ATOM      8  C   UNL A   1      33.014 -32.402 -30.038  0.00  0.00    -0.061 A 
ATOM      9  C   UNL A   1      33.321 -33.564 -29.332  0.00  0.00    -0.051 A 
ATOM     10  C   UNL A   1      34.503 -34.304 -29.595  0.00  0.00    +0.021 A 
ATOM     11  C   UNL A   1      38.026 -36.337 -30.880  0.00  0.00    -0.010 C 
ATOM     12  C   UNL A   1      38.590 -37.379 -29.923  0.00  0.00    -0.047 C 
ATOM     13  C   UNL A   1      37.475 -38.301 -29.455  0.00  0.00    -0.049 C 
ATOM     14  C   UNL A   1      36.414 -37.512 -28.687  0.00  0.00    -0.024 C 
ENDROOT
BRANCH   1  15
ATOM     15  N   UNL A   1      34.050 -36.030 -27.893  0.00  0.00    -0.357 N 
ATOM     16  H   UNL A   1      33.227 -35.559 -27.628  0.00  0.00    +0.000 HD
ATOM     17  H   UNL A   1      34.289 -36.883 -27.464  0.00  0.00    +0.000 HD
ENDBRANCH   1  15
TORSDOF 1
ENDMDL
MODEL 12
REMARK VINA RESULT:    -6.371      3.155      5.228
REMARK INTER + INTRA:          -6.557
REMARK INTER:                  -6.557
REMARK INTRA:                   0.000
REMARK UNBOUND:                 0.000
REMARK  Name = cpd1.pdb
REMARK  1 active torsions:
REMARK  status: ('A' for Active; 'I' for Inactive)
REMARK    1  A    between atoms: N_1  and  C_2
REMARK                            x       y       z     vdW  Elec       q    Type
REMARK                         _______ _______ _______ _____ _____    ______ ____
ROOT
ATOM      1  C   UNL A   1      35.604 -33.820 -30.882  0.00  0.00    +0.039 A 
ATOM      2  C   UNL A   1      36.645 -34.767 -30.801  0.00  0.00    -0.005 A 
ATOM      3  C   UNL A   1      36.459 -35.865 -29.956  0.00  0.00    +0.047 A 
ATOM      4  N   UNL A   1      35.373 -36.015 -29.164  0.00  0.00    -0.251 NA
ATOM      5  C   UNL A   1      34.432 -35.063 -29.168  0.00  0.00    +0.073 A 
ATOM      6  C   UNL A   1      33.352 -35.218 -28.308  0.00  0.00    -0.036 A 
ATOM      7  C   UNL A   1      32.332 -34.269 -28.223  0.00  0.00    -0.060 A 
ATOM      8  C   UNL A   1      32.391 -33.131 -29.010  0.00  0.00    -0.061 A 
ATOM      9  C   UNL A   1      33.463 -32.956 -29.884  0.00  0.00    -0.051 A 
ATOM     10  C   UNL A   1      34.499 -33.921 -29.992  0.00  0.00    +0.021 A 
ATOM     11  C   UNL A   1      37.501 -36.945 -29.814  0.00  0.00    -0.010 C 
ATOM     12  C   UNL A   1      38.480 -36.994 -30.980  0.00  0.00    -0.047 C 
ATOM     13  C   UNL A   1      39.018 -35.598 -31.254  0.00  0.00    -0.049 C 
ATOM     14  C   UNL A   1      37.884 -34.656 -31.657  0.00  0.00    -0.024 C 
ENDROOT
BRANCH   1  15
ATOM     15  N   UNL A   1      35.767 -32.671 -31.699  0.00  0.00    -0.357 N 
ATOM     16  H   UNL A   1      36.325 -31.922 -31.388  0.00  0.00    +0.000 HD
ATOM     17  H   UNL A   1      35.323 -32.624 -32.576  0.00  0.00    +0.000 HD
ENDBRANCH   1  15
TORSDOF 1
ENDMDL
MODEL 13
REMARK VINA RESULT:    -6.265     35.317     36.470
REMARK INTER + INTRA:          -6.448
REMARK INTER:                  -6.448
REMARK INTRA:                   0.000
REMARK UNBOUND:                 0.000
REMARK  Name = cpd1.pdb
REMARK  1 active torsions:
REMARK  status: ('A' for Active; 'I' for Inactive)
REMARK    1  A    between atoms: N_1  and  C_2
REMARK                            x       y       z     vdW  Elec       q    Type
REMARK                         _______ _______ _______ _____ _____    ______ ____
ROOT
ATOM      1  C   UNL A   1      63.458 -25.283  -6.072  0.00  0.00    +0.039 A 
ATOM      2  C   UNL A   1      63.098 -24.934  -7.389  0.00  0.00    -0.005 A 
ATOM      3  C   UNL A   1      63.734 -23.831  -7.966  0.00  0.00    +0.047 A 
ATOM      4  N   UNL A   1      64.610 -23.048  -7.296  0.00  0.00    -0.251 NA
ATOM      5  C   UNL A   1      64.875 -23.322  -6.013  0.00  0.00    +0.073 A 
ATOM      6  C   UNL A   1      65.740 -22.473  -5.335  0.00  0.00    -0.036 A 
ATOM      7  C   UNL A   1      66.061 -22.662  -3.990  0.00  0.00    -0.060 A 
ATOM      8  C   UNL A   1      65.499 -23.722  -3.297  0.00  0.00    -0.061 A 
ATOM      9  C   UNL A   1      64.631 -24.591  -3.958  0.00  0.00    -0.051 A 
ATOM     10  C   UNL A   1      64.310 -24.419  -5.330  0.00  0.00    +0.021 A 
ATOM     11  C   UNL A   1      63.437 -23.388  -9.376  0.00  0.00    -0.010 C 
ATOM     12  C   UNL A   1      62.807 -24.481 -10.230  0.00  0.00    -0.047 C 
ATOM     13  C   UNL A   1      61.640 -25.105  -9.481  0.00  0.00    -0.049 C 
ATOM     14  C   UNL A   1      62.124 -25.766  -8.190  0.00  0.00    -0.024 C 
ENDROOT
BRANCH   1  15
ATOM     15  N   UNL A   1      62.808 -26.372  -5.436  0.00  0.00    -0.357 N 
ATOM     16  H   UNL A   1      63.182 -26.754  -4.609  0.00  0.00    +0.000 HD
ATOM     17  H   UNL A   1      61.984 -26.747  -5.822  0.00  0.00    +0.000 HD
ENDBRANCH   1  15
TORSDOF 1
ENDMDL
MODEL 14
REMARK VINA RESULT:    -6.214     22.892     25.191
REMARK INTER + INTRA:          -6.395
REMARK INTER:                  -6.395
REMARK INTRA:                   0.000
REMARK UNBOUND:                 0.000
REMARK  Name = cpd1.pdb
REMARK  1 active torsions:
REMARK  status: ('A' for Active; 'I' for Inactive)
REMARK    1  A    between atoms: N_1  and  C_2
REMARK                            x       y       z     vdW  Elec       q    Type
REMARK                         _______ _______ _______ _____ _____    ______ ____
ROOT
ATOM      1  C   UNL A   1      54.997 -36.962 -48.009  0.00  0.00    +0.039 A 
ATOM      2  C   UNL A   1      55.467 -37.367 -49.275  0.00  0.00    -0.005 A 
ATOM      3  C   UNL A   1      56.427 -36.567 -49.899  0.00  0.00    +0.047 A 
ATOM      4  N   UNL A   1      56.862 -35.394 -49.383  0.00  0.00    -0.251 NA
ATOM      5  C   UNL A   1      56.340 -34.960 -48.229  0.00  0.00    +0.073 A 
ATOM      6  C   UNL A   1      56.767 -33.730 -47.748  0.00  0.00    -0.036 A 
ATOM      7  C   UNL A   1      56.267 -33.182 -46.566  0.00  0.00    -0.060 A 
ATOM      8  C   UNL A   1      55.308 -33.876 -45.845  0.00  0.00    -0.061 A 
ATOM      9  C   UNL A   1      54.867 -35.116 -46.307  0.00  0.00    -0.051 A 
ATOM     10  C   UNL A   1      55.381 -35.691 -47.499  0.00  0.00    +0.021 A 
ATOM     11  C   UNL A   1      57.010 -36.923 -51.243  0.00  0.00    -0.010 C 
ATOM     12  C   UNL A   1      56.849 -38.395 -51.597  0.00  0.00    -0.047 C 
ATOM     13  C   UNL A   1      55.405 -38.819 -51.377  0.00  0.00    -0.049 C 
ATOM     14  C   UNL A   1      55.019 -38.665 -49.906  0.00  0.00    -0.024 C 
ENDROOT
BRANCH   1  15
ATOM     15  N   UNL A   1      53.994 -37.726 -47.359  0.00  0.00    -0.357 N 
ATOM     16  H   UNL A   1      53.055 -37.433 -47.390  0.00  0.00    +0.000 HD
ATOM     17  H   UNL A   1      54.238 -38.548 -46.876  0.00  0.00    +0.000 HD
ENDBRANCH   1  15
TORSDOF 1
ENDMDL
MODEL 15
REMARK VINA RESULT:    -6.187     20.225     21.617
REMARK INTER + INTRA:          -6.368
REMARK INTER:                  -6.368
REMARK INTRA:                   0.000
REMARK UNBOUND:                 0.000
REMARK  Name = cpd1.pdb
REMARK  1 active torsions:
REMARK  status: ('A' for Active; 'I' for Inactive)
REMARK    1  A    between atoms: N_1  and  C_2
REMARK                            x       y       z     vdW  Elec       q    Type
REMARK                         _______ _______ _______ _____ _____    ______ ____
ROOT
ATOM      1  C   UNL A   1      46.875 -20.464 -39.842  0.00  0.00    +0.039 A 
ATOM      2  C   UNL A   1      45.961 -19.478 -40.266  0.00  0.00    -0.005 A 
ATOM      3  C   UNL A   1      45.213 -19.737 -41.417  0.00  0.00    +0.047 A 
ATOM      4  N   UNL A   1      45.382 -20.844 -42.177  0.00  0.00    -0.251 NA
ATOM      5  C   UNL A   1      46.322 -21.732 -41.828  0.00  0.00    +0.073 A 
ATOM      6  C   UNL A   1      46.508 -22.834 -42.652  0.00  0.00    -0.036 A 
ATOM      7  C   UNL A   1      47.476 -23.803 -42.386  0.00  0.00    -0.060 A 
ATOM      8  C   UNL A   1      48.288 -23.668 -41.271  0.00  0.00    -0.061 A 
ATOM      9  C   UNL A   1      48.116 -22.572 -40.426  0.00  0.00    -0.051 A 
ATOM     10  C   UNL A   1      47.123 -21.588 -40.677  0.00  0.00    +0.021 A 
ATOM     11  C   UNL A   1      44.194 -18.758 -41.942  0.00  0.00    -0.010 C 
ATOM     12  C   UNL A   1      43.720 -17.763 -40.892  0.00  0.00    -0.047 C 
ATOM     13  C   UNL A   1      44.921 -17.145 -40.193  0.00  0.00    -0.049 C 
ATOM     14  C   UNL A   1      45.728 -18.219 -39.464  0.00  0.00    -0.024 C 
ENDROOT
BRANCH   1  15
ATOM     15  N   UNL A   1      47.681 -20.224 -38.700  0.00  0.00    -0.357 N 
ATOM     16  H   UNL A   1      47.270 -19.901 -37.866  0.00  0.00    +0.000 HD
ATOM     17  H   UNL A   1      48.652 -20.381 -38.742  0.00  0.00    +0.000 HD
ENDBRANCH   1  15
TORSDOF 1
ENDMDL
MODEL 16
REMARK VINA RESULT:    -6.082      3.274      7.070
REMARK INTER + INTRA:          -6.260
REMARK INTER:                  -6.260
REMARK INTRA:                   0.000
REMARK UNBOUND:                 0.000
REMARK  Name = cpd1.pdb
REMARK  1 active torsions:
REMARK  status: ('A' for Active; 'I' for Inactive)
REMARK    1  A    between atoms: N_1  and  C_2
REMARK                            x       y       z     vdW  Elec       q    Type
REMARK                         _______ _______ _______ _____ _____    ______ ____
ROOT
ATOM      1  C   UNL A   1      35.310 -33.931 -30.731  0.00  0.00    +0.039 A 
ATOM      2  C   UNL A   1      34.140 -34.093 -29.961  0.00  0.00    -0.005 A 
ATOM      3  C   UNL A   1      34.135 -35.100 -28.992  0.00  0.00    +0.047 A 
ATOM      4  N   UNL A   1      35.160 -35.966 -28.818  0.00  0.00    -0.251 NA
ATOM      5  C   UNL A   1      36.229 -35.874 -29.618  0.00  0.00    +0.073 A 
ATOM      6  C   UNL A   1      37.245 -36.805 -29.451  0.00  0.00    -0.036 A 
ATOM      7  C   UNL A   1      38.389 -36.807 -30.250  0.00  0.00    -0.060 A 
ATOM      8  C   UNL A   1      38.523 -35.857 -31.250  0.00  0.00    -0.061 A 
ATOM      9  C   UNL A   1      37.518 -34.908 -31.434  0.00  0.00    -0.051 A 
ATOM     10  C   UNL A   1      36.357 -34.887 -30.617  0.00  0.00    +0.021 A 
ATOM     11  C   UNL A   1      32.943 -35.342 -28.102  0.00  0.00    -0.010 C 
ATOM     12  C   UNL A   1      32.008 -34.144 -28.009  0.00  0.00    -0.047 C 
ATOM     13  C   UNL A   1      31.688 -33.636 -29.407  0.00  0.00    -0.049 C 
ATOM     14  C   UNL A   1      32.960 -33.162 -30.109  0.00  0.00    -0.024 C 
ENDROOT
BRANCH   1  15
ATOM     15  N   UNL A   1      35.343 -32.945 -31.751  0.00  0.00    -0.357 N 
ATOM     16  H   UNL A   1      34.503 -32.563 -32.094  0.00  0.00    +0.000 HD
ATOM     17  H   UNL A   1      36.206 -32.643 -32.115  0.00  0.00    +0.000 HD
ENDBRANCH   1  15
TORSDOF 1
ENDMDL
MODEL 17
REMARK VINA RESULT:    -6.011      3.060      6.067
REMARK INTER + INTRA:          -6.186
REMARK INTER:                  -6.186
REMARK INTRA:                   0.000
REMARK UNBOUND:                 0.000
REMARK  Name = cpd1.pdb
REMARK  1 active torsions:
REMARK  status: ('A' for Active; 'I' for Inactive)
REMARK    1  A    between atoms: N_1  and  C_2
REMARK                            x       y       z     vdW  Elec       q    Type
REMARK                         _______ _______ _______ _____ _____    ______ ____
ROOT
ATOM      1  C   UNL A   1      35.129 -36.032 -29.272  0.00  0.00    +0.039 A 
ATOM      2  C   UNL A   1      34.509 -34.860 -29.751  0.00  0.00    -0.005 A 
ATOM      3  C   UNL A   1      35.145 -34.165 -30.784  0.00  0.00    +0.047 A 
ATOM      4  N   UNL A   1      36.352 -34.519 -31.281  0.00  0.00    -0.251 NA
ATOM      5  C   UNL A   1      36.986 -35.574 -30.755  0.00  0.00    +0.073 A 
ATOM      6  C   UNL A   1      38.245 -35.886 -31.251  0.00  0.00    -0.036 A 
ATOM      7  C   UNL A   1      38.995 -36.952 -30.752  0.00  0.00    -0.060 A 
ATOM      8  C   UNL A   1      38.479 -37.727 -29.725  0.00  0.00    -0.061 A 
ATOM      9  C   UNL A   1      37.214 -37.436 -29.215  0.00  0.00    -0.051 A 
ATOM     10  C   UNL A   1      36.436 -36.364 -29.725  0.00  0.00    +0.021 A 
ATOM     11  C   UNL A   1      34.555 -32.914 -31.382  0.00  0.00    -0.010 C 
ATOM     12  C   UNL A   1      33.059 -32.774 -31.131  0.00  0.00    -0.047 C 
ATOM     13  C   UNL A   1      32.766 -32.995 -29.655  0.00  0.00    -0.049 C 
ATOM     14  C   UNL A   1      33.163 -34.410 -29.235  0.00  0.00    -0.024 C 
ENDROOT
BRANCH   1  15
ATOM     15  N   UNL A   1      34.537 -36.746 -28.199  0.00  0.00    -0.357 N 
ATOM     16  H   UNL A   1      33.558 -36.744 -28.086  0.00  0.00    +0.000 HD
ATOM     17  H   UNL A   1      35.104 -37.244 -27.566  0.00  0.00    +0.000 HD
ENDBRANCH   1  15
TORSDOF 1
ENDMDL
MODEL 18
REMARK VINA RESULT:    -5.946     22.847     24.868
REMARK INTER + INTRA:          -6.120
REMARK INTER:                  -6.120
REMARK INTRA:                   0.000
REMARK UNBOUND:                 0.000
REMARK  Name = cpd1.pdb
REMARK  1 active torsions:
REMARK  status: ('A' for Active; 'I' for Inactive)
REMARK    1  A    between atoms: N_1  and  C_2
REMARK                            x       y       z     vdW  Elec       q    Type
REMARK                         _______ _______ _______ _____ _____    ______ ____
ROOT
ATOM      1  C   UNL A   1      56.113 -35.928 -49.422  0.00  0.00    +0.039 A 
ATOM      2  C   UNL A   1      55.456 -37.172 -49.498  0.00  0.00    -0.005 A 
ATOM      3  C   UNL A   1      54.565 -37.500 -48.473  0.00  0.00    +0.047 A 
ATOM      4  N   UNL A   1      54.368 -36.720 -47.385  0.00  0.00    -0.251 NA
ATOM      5  C   UNL A   1      55.069 -35.586 -47.266  0.00  0.00    +0.073 A 
ATOM      6  C   UNL A   1      54.884 -34.829 -46.116  0.00  0.00    -0.036 A 
ATOM      7  C   UNL A   1      55.584 -33.643 -45.889  0.00  0.00    -0.060 A 
ATOM      8  C   UNL A   1      56.500 -33.201 -46.830  0.00  0.00    -0.061 A 
ATOM      9  C   UNL A   1      56.699 -33.942 -47.995  0.00  0.00    -0.051 A 
ATOM     10  C   UNL A   1      55.981 -35.141 -48.245  0.00  0.00    +0.021 A 
ATOM     11  C   UNL A   1      53.796 -38.796 -48.471  0.00  0.00    -0.010 C 
ATOM     12  C   UNL A   1      53.696 -39.439 -49.848  0.00  0.00    -0.047 C 
ATOM     13  C   UNL A   1      55.076 -39.499 -50.484  0.00  0.00    -0.049 C 
ATOM     14  C   UNL A   1      55.635 -38.090 -50.685  0.00  0.00    -0.024 C 
ENDROOT
BRANCH   1  15
ATOM     15  N   UNL A   1      57.055 -35.573 -50.422  0.00  0.00    -0.357 N 
ATOM     16  H   UNL A   1      56.745 -35.208 -51.283  0.00  0.00    +0.000 HD
ATOM     17  H   UNL A   1      58.018 -35.692 -50.256  0.00  0.00    +0.000 HD
ENDBRANCH   1  15
TORSDOF 1
ENDMDL
MODEL 19
REMARK VINA RESULT:    -5.870     35.620     36.764
REMARK INTER + INTRA:          -6.042
REMARK INTER:                  -6.042
REMARK INTRA:                   0.000
REMARK UNBOUND:                 0.000
REMARK  Name = cpd1.pdb
REMARK  1 active torsions:
REMARK  status: ('A' for Active; 'I' for Inactive)
REMARK    1  A    between atoms: N_1  and  C_2
REMARK                            x       y       z     vdW  Elec       q    Type
REMARK                         _______ _______ _______ _____ _____    ______ ____
ROOT
ATOM      1  C   UNL A   1      63.419 -24.789  -5.898  0.00  0.00    +0.039 A 
ATOM      2  C   UNL A   1      64.262 -23.916  -5.181  0.00  0.00    -0.005 A 
ATOM      3  C   UNL A   1      64.677 -22.744  -5.818  0.00  0.00    +0.047 A 
ATOM      4  N   UNL A   1      64.374 -22.453  -7.104  0.00  0.00    -0.251 NA
ATOM      5  C   UNL A   1      63.657 -23.331  -7.815  0.00  0.00    +0.073 A 
ATOM      6  C   UNL A   1      63.402 -23.030  -9.147  0.00  0.00    -0.036 A 
ATOM      7  C   UNL A   1      62.684 -23.892  -9.977  0.00  0.00    -0.060 A 
ATOM      8  C   UNL A   1      62.212 -25.092  -9.469  0.00  0.00    -0.061 A 
ATOM      9  C   UNL A   1      62.451 -25.413  -8.134  0.00  0.00    -0.051 A 
ATOM     10  C   UNL A   1      63.166 -24.537  -7.275  0.00  0.00    +0.021 A 
ATOM     11  C   UNL A   1      65.560 -21.734  -5.130  0.00  0.00    -0.010 C 
ATOM     12  C   UNL A   1      65.539 -21.851  -3.612  0.00  0.00    -0.047 C 
ATOM     13  C   UNL A   1      65.763 -23.299  -3.207  0.00  0.00    -0.049 C 
ATOM     14  C   UNL A   1      64.639 -24.186  -3.743  0.00  0.00    -0.024 C 
ENDROOT
BRANCH   1  15
ATOM     15  N   UNL A   1      63.006 -26.009  -5.302  0.00  0.00    -0.357 N 
ATOM     16  H   UNL A   1      62.583 -26.707  -5.852  0.00  0.00    +0.000 HD
ATOM     17  H   UNL A   1      63.143 -26.156  -4.339  0.00  0.00    +0.000 HD
ENDBRANCH   1  15
TORSDOF 1
ENDMDL
MODEL 20
REMARK VINA RESULT:    -5.582     20.440     21.505
REMARK INTER + INTRA:          -5.745
REMARK INTER:                  -5.745
REMARK INTRA:                   0.000
REMARK UNBOUND:                 0.000
REMARK  Name = cpd1.pdb
REMARK  1 active torsions:
REMARK  status: ('A' for Active; 'I' for Inactive)
REMARK    1  A    between atoms: N_1  and  C_2
REMARK                            x       y       z     vdW  Elec       q    Type
REMARK                         _______ _______ _______ _____ _____    ______ ____
ROOT
ATOM      1  C   UNL A   1      45.274 -20.760 -41.697  0.00  0.00    +0.039 A 
ATOM      2  C   UNL A   1      45.210 -19.803 -40.664  0.00  0.00    -0.005 A 
ATOM      3  C   UNL A   1      46.263 -19.765 -39.747  0.00  0.00    +0.047 A 
ATOM      4  N   UNL A   1      47.289 -20.647 -39.760  0.00  0.00    -0.251 NA
ATOM      5  C   UNL A   1      47.296 -21.618 -40.681  0.00  0.00    +0.073 A 
ATOM      6  C   UNL A   1      48.335 -22.540 -40.641  0.00  0.00    -0.036 A 
ATOM      7  C   UNL A   1      48.419 -23.601 -41.543  0.00  0.00    -0.060 A 
ATOM      8  C   UNL A   1      47.437 -23.755 -42.509  0.00  0.00    -0.061 A 
ATOM      9  C   UNL A   1      46.387 -22.839 -42.571  0.00  0.00    -0.051 A 
ATOM     10  C   UNL A   1      46.300 -21.746 -41.670  0.00  0.00    +0.021 A 
ATOM     11  C   UNL A   1      46.301 -18.765 -38.619  0.00  0.00    -0.010 C 
ATOM     12  C   UNL A   1      45.410 -17.554 -38.859  0.00  0.00    -0.047 C 
ATOM     13  C   UNL A   1      44.023 -18.015 -39.277  0.00  0.00    -0.049 C 
ATOM     14  C   UNL A   1      44.090 -18.791 -40.592  0.00  0.00    -0.024 C 
ENDROOT
BRANCH   1  15
ATOM     15  N   UNL A   1      44.207 -20.858 -42.626  0.00  0.00    -0.357 N 
ATOM     16  H   UNL A   1      44.369 -21.227 -43.525  0.00  0.00    +0.000 HD
ATOM     17  H   UNL A   1      43.305 -20.556 -42.373  0.00  0.00    +0.000 HD
ENDBRANCH   1  15
TORSDOF 1
ENDMDL
