@<TRIPOS>MOLECULE
*****
 30 32 0 0 0
SMALL
GASTEIGER

@<TRIPOS>ATOM
      1 C          -4.3776    4.4067    0.0000 C.3     1  UNL1        0.0006
      2 C          -4.3776    3.4067    0.0000 C.3     1  UNL1        0.0111
      3 C          -5.2437    2.9067    0.0000 C.3     1  UNL1        0.0009
      4 C          -6.1097    3.4067    0.0000 C.3     1  UNL1        0.0041
      5 C          -6.9757    2.9067    0.0000 C.3     1  UNL1        0.0205
      6 C          -6.9757    1.9067    0.0000 C.2     1  UNL1       -0.0162
      7 C          -6.1097    1.4067    0.0000 C.3     1  UNL1        0.2041
      8 O          -6.1097    0.4067    0.0000 O.3     1  UNL1       -0.2155
      9 C          -7.8417    1.4067    0.0000 C.2     1  UNL1       -0.0321
     10 C          -8.7078    1.9067    0.0000 C.3     1  UNL1        0.0255
     11 C          -8.7078    2.9067    0.0000 C.3     1  UNL1        0.0046
     12 C          -9.5738    3.4067    0.0000 C.3     1  UNL1        0.0003
     13 C         -10.5738    3.4067    0.0000 C.3     1  UNL1        0.0000
     14 C         -10.0738    2.5407    0.0000 C.3     1  UNL1        0.0000
     15 C          -9.5738    4.4067    0.0000 C.3     1  UNL1        0.0000
     16 C          -8.7078    4.9067    0.0000 C.3     1  UNL1        0.0000
     17 C          -7.8417    4.4067    0.0000 C.3     1  UNL1        0.0003
     18 C          -7.8417    3.4067    0.0000 C.3     1  UNL1        0.0038
     19 C          -6.9757    3.9067    0.0000 C.3     1  UNL1        0.0003
     20 C          -3.5116    2.9067    0.0000 C.3     1  UNL1        0.1096
     21 C          -3.5116    1.9067    0.0000 C.2     1  UNL1        0.3170
     22 O          -4.3776    1.4067    0.0000 O.2     1  UNL1       -0.2501
     23 O          -2.6456    1.4067    0.0000 O.3     1  UNL1       -0.4470
     24 C          -2.6456    0.4067    0.0000 C.3     1  UNL1        0.2257
     25 C          -1.7796   -0.0933    0.0000 C.3     1  UNL1        0.1201
     26 N          -0.9135    0.4067    0.0000 N.3     1  UNL1       -0.2696
     27 C          -0.8090    1.4013    0.0000 C.3     1  UNL1        0.0722
     28 C           0.1691    1.6092    0.0000 C.3     1  UNL1        0.0188
     29 C           0.6691    0.7431    0.0000 C.3     1  UNL1        0.0188
     30 C           0.0000    0.0000    0.0000 C.3     1  UNL1        0.0722
@<TRIPOS>BOND
     1     1     2    1
     2     2     3    1
     3     3     4    1
     4     4     5    1
     5     5     6    1
     6     6     7    1
     7     7     8    1
     8     6     9    2
     9     9    10    1
    10    10    11    1
    11    11    12    1
    12    12    13    1
    13    12    14    1
    14    12    15    1
    15    15    16    1
    16    16    17    1
    17    17    18    1
    18     5    18    1
    19    11    18    1
    20    18    19    1
    21     2    20    1
    22    20    21    1
    23    21    22    2
    24    21    23    1
    25    23    24    1
    26    24    25    1
    27    25    26    1
    28    26    27    1
    29    27    28    1
    30    28    29    1
    31    29    30    1
    32    26    30    1
