REMARK  Name = cpd293.pdb
REMARK  15 active torsions:
REMARK  status: ('A' for Active; 'I' for Inactive)
REMARK    1  A    between atoms: C_1  and  C_2
REMARK    2  A    between atoms: C_2  and  C_3
REMARK    3  A    between atoms: C_2  and  C_20
REMARK    4  A    between atoms: C_3  and  C_4
REMARK    5  A    between atoms: C_4  and  C_5
REMARK    6  A    between atoms: C_6  and  C_7
REMARK    7  A    between atoms: C_7  and  O_8
REMARK    8  A    between atoms: C_12  and  C_13
REMARK    9  A    between atoms: C_12  and  C_14
REMARK   10  A    between atoms: C_18  and  C_19
REMARK   11  A    between atoms: C_20  and  C_21
REMARK   12  A    between atoms: C_21  and  O_23
REMARK   13  A    between atoms: O_23  and  C_24
REMARK   14  A    between atoms: C_24  and  C_25
REMARK   15  A    between atoms: C_25  and  N_26
REMARK                            x       y       z     vdW  Elec       q    Type
REMARK                         _______ _______ _______ _____ _____    ______ ____
ROOT
ATOM      1  C   UNL     1      -6.096   3.904  -0.936  0.00  0.00    -0.046 C 
ENDROOT
BRANCH   1   2
ATOM      2  C   UNL     1      -7.144   3.034  -0.156  0.00  0.00    -0.012 C 
ATOM      3  C   UNL     1      -7.264   1.609  -0.705  0.00  0.00    -0.045 C 
ATOM      4  C   UNL     1      -8.455   1.054  -0.971  0.00  0.00    -0.082 C 
ATOM      5  C   UNL     1      -9.771   1.679  -0.694  0.00  0.00    -0.031 C 
ATOM      6  C   UNL     1      -9.742   2.848   0.324  0.00  0.00    -0.027 C 
ATOM      7  C   UNL     1     -11.178   3.521   0.397  0.00  0.00    -0.031 C 
ATOM      8  C   UNL     1     -11.363   4.387   1.664  0.00  0.00    -0.060 C 
ATOM      9  C   UNL     1     -12.300   2.450   0.486  0.00  0.00    -0.060 C 
ATOM     10  C   UNL     1     -11.437   4.368  -0.871  0.00  0.00    -0.048 C 
ATOM     11  C   UNL     1     -10.293   5.305  -1.240  0.00  0.00    -0.052 C 
ATOM     12  C   UNL     1      -8.927   4.614  -1.299  0.00  0.00    -0.047 C 
ATOM     13  C   UNL     1      -8.548   3.828  -0.010  0.00  0.00    -0.022 C 
ATOM     14  C   UNL     1      -8.315   4.829   1.156  0.00  0.00    -0.059 C 
BRANCH   3  15
ATOM     15  C   UNL     1      -5.995   0.799  -0.862  0.00  0.00    +0.066 C 
BRANCH  15  16
ATOM     16  O   UNL     1      -6.246  -0.603  -0.875  0.00  0.00    -0.391 OA
ATOM     17  H   UNL     1      -6.647  -0.867  -0.032  0.00  0.00    +0.000 HD
ENDBRANCH  15  16
ENDBRANCH   3  15
ENDBRANCH   1   2
BRANCH   1  18
ATOM     18  C   UNL     1      -4.591   3.666  -0.703  0.00  0.00    -0.049 C 
BRANCH  18  20
ATOM     19  C   UNL     1      -4.124   5.311   1.175  0.00  0.00    -0.062 C 
ATOM     20  C   UNL     1      -4.083   3.842   0.744  0.00  0.00    -0.034 C 
BRANCH  20  21
ATOM     21  C   UNL     1      -2.637   3.329   0.874  0.00  0.00    +0.048 C 
BRANCH  21  22
ATOM     22  C   UNL     1      -2.578   1.822   0.839  0.00  0.00    +0.307 C 
ATOM     23  O   UNL     1      -3.046   1.098   1.707  0.00  0.00    -0.251 OA
BRANCH  22  24
ATOM     24  O   UNL     1      -1.964   1.396  -0.296  0.00  0.00    -0.463 OA
BRANCH  24  25
ATOM     25  C   UNL     1      -1.876  -0.031  -0.459  0.00  0.00    +0.105 C 
BRANCH  25  26
ATOM     26  C   UNL     1      -0.719  -0.637   0.355  0.00  0.00    +0.033 C 
BRANCH  26  27
ATOM     27  N   UNL     1       0.604  -0.439  -0.260  0.00  0.00    -0.299 N 
ATOM     28  C   UNL     1       1.030   0.960  -0.314  0.00  0.00    -0.001 C 
ATOM     29  C   UNL     1       2.535   0.874  -0.537  0.00  0.00    -0.039 C 
ATOM     30  C   UNL     1       2.927  -0.532  -0.100  0.00  0.00    -0.039 C 
ATOM     31  C   UNL     1       1.659  -1.125   0.490  0.00  0.00    -0.001 C 
ATOM     32  H   UNL     1       0.485  -0.812  -1.202  0.00  0.00    +0.000 HD
ENDBRANCH  26  27
ENDBRANCH  25  26
ENDBRANCH  24  25
ENDBRANCH  22  24
ENDBRANCH  21  22
ENDBRANCH  20  21
ENDBRANCH  18  20
ENDBRANCH   1  18
TORSDOF 11
