REMARK  Name = cpd59.pdb
REMARK  13 active torsions:
REMARK  status: ('A' for Active; 'I' for Inactive)
REMARK    1  A    between atoms: C_11  and  N_12
REMARK    2  A    between atoms: N_12  and  C_13
REMARK    3  A    between atoms: C_13  and  C_14
REMARK    4  A    between atoms: C_14  and  C_15
REMARK    5  A    between atoms: C_15  and  C_16
REMARK    6  A    between atoms: C_16  and  C_17
REMARK    7  A    between atoms: C_17  and  C_18
REMARK    8  A    between atoms: C_18  and  C_19
REMARK    9  A    between atoms: C_19  and  C_20
REMARK   10  A    between atoms: C_20  and  C_21
REMARK   11  A    between atoms: C_21  and  C_22
REMARK   12  A    between atoms: C_22  and  N_23
REMARK   13  A    between atoms: N_23  and  C_24
REMARK                            x       y       z     vdW  Elec       q    Type
REMARK                         _______ _______ _______ _____ _____    ______ ____
ROOT
ATOM      1  C   UNL     1       4.803  -1.097   0.501  0.00  0.00    -0.053 C 
ENDROOT
BRANCH   1   2
ATOM      2  C   UNL     1       6.082  -1.651   1.131  0.00  0.00    -0.053 C 
BRANCH   2   3
ATOM      3  C   UNL     1       7.319  -0.855   0.709  0.00  0.00    -0.053 C 
BRANCH   3   4
ATOM      4  C   UNL     1       8.553  -1.325   1.482  0.00  0.00    -0.052 C 
BRANCH   4   5
ATOM      5  C   UNL     1       9.869  -0.744   0.954  0.00  0.00    -0.040 C 
BRANCH   5   6
ATOM      6  C   UNL     1      10.292  -1.381  -0.376  0.00  0.00    -0.004 C 
BRANCH   6   7
ATOM      7  N   UNL     1      11.621  -0.941  -0.803  0.00  0.00    -0.309 N 
ATOM      8  H   UNL     1      11.702  -1.098  -1.808  0.00  0.00    +0.000 HD
ATOM      9  H   UNL     1      11.699   0.044  -0.549  0.00  0.00    +0.000 HD
BRANCH   7  20
ATOM     10  O   UNL     1      14.019  -6.814  -0.853  0.00  0.00    -0.273 OA
ATOM     11  C   UNL     1      13.977  -5.610  -1.093  0.00  0.00    +0.240 C 
ATOM     12  C   UNL     1      12.968  -5.051  -2.088  0.00  0.00    +0.045 C 
ATOM     13  C   UNL     1      12.478  -3.707  -1.642  0.00  0.00    -0.069 C 
ATOM     14  C   UNL     1      13.156  -2.950  -0.762  0.00  0.00    -0.015 C 
ATOM     15  C   UNL     1      14.512  -3.490  -0.414  0.00  0.00    +0.038 C 
ATOM     16  N   UNL     1      14.887  -4.720  -0.573  0.00  0.00    -0.185 NA
ATOM     17  C   UNL     1      15.587  -2.512   0.034  0.00  0.00    -0.012 C 
ATOM     18  C   UNL     1      15.056  -1.263   0.712  0.00  0.00    -0.046 C 
ATOM     19  C   UNL     1      13.904  -0.652  -0.077  0.00  0.00    -0.033 C 
ATOM     20  C   UNL     1      12.729  -1.638  -0.137  0.00  0.00    +0.034 C 
ENDBRANCH   7  20
ENDBRANCH   6   7
ENDBRANCH   5   6
ENDBRANCH   4   5
ENDBRANCH   3   4
ENDBRANCH   2   3
ENDBRANCH   1   2
BRANCH   1  21
ATOM     21  C   UNL     1       3.633  -2.062   0.705  0.00  0.00    -0.053 C 
BRANCH  21  22
ATOM     22  C   UNL     1       2.304  -1.445   0.266  0.00  0.00    -0.052 C 
BRANCH  22  23
ATOM     23  C   UNL     1       1.194  -2.502   0.237  0.00  0.00    -0.040 C 
BRANCH  23  24
ATOM     24  C   UNL     1      -0.194  -1.910  -0.036  0.00  0.00    -0.004 C 
BRANCH  24  25
ATOM     25  N   UNL     1      -0.740  -1.288   1.170  0.00  0.00    -0.309 N 
ATOM     26  H   UNL     1      -0.013  -0.699   1.576  0.00  0.00    +0.000 HD
ATOM     27  H   UNL     1      -1.032  -2.057   1.773  0.00  0.00    +0.000 HD
BRANCH  25  28
ATOM     28  C   UNL     1      -1.937  -0.456   0.970  0.00  0.00    +0.034 C 
ATOM     29  C   UNL     1      -3.123  -1.312   0.468  0.00  0.00    -0.033 C 
ATOM     30  C   UNL     1      -4.316  -0.439   0.093  0.00  0.00    -0.046 C 
ATOM     31  C   UNL     1      -3.936   0.529  -1.026  0.00  0.00    -0.012 C 
ATOM     32  C   UNL     1      -2.632   1.235  -0.762  0.00  0.00    +0.024 A 
ATOM     33  N   UNL     1      -2.400   2.387  -1.483  0.00  0.00    -0.326 N 
ATOM     34  C   UNL     1      -1.295   3.186  -1.341  0.00  0.00    +0.249 A 
ATOM     35  O   UNL     1      -1.114   4.199  -2.005  0.00  0.00    -0.268 OA
ATOM     36  C   UNL     1      -0.324   2.758  -0.309  0.00  0.00    +0.003 A 
ATOM     37  C   UNL     1      -0.551   1.639   0.392  0.00  0.00    -0.050 A 
ATOM     38  C   UNL     1      -1.730   0.814   0.151  0.00  0.00    -0.011 A 
ATOM     39  H   UNL     1      -3.076   2.655  -2.147  0.00  0.00    +0.000 HD
ENDBRANCH  25  28
ENDBRANCH  24  25
ENDBRANCH  23  24
ENDBRANCH  22  23
ENDBRANCH  21  22
ENDBRANCH   1  21
TORSDOF 13
