MODEL 1
REMARK VINA RESULT:    -5.439      0.000      0.000
REMARK INTER + INTRA:         -13.988
REMARK INTER:                  -9.572
REMARK INTRA:                  -4.417
REMARK UNBOUND:                -4.417
REMARK  Name = cpd59.pdb
REMARK  13 active torsions:
REMARK  status: ('A' for Active; 'I' for Inactive)
REMARK    1  A    between atoms: C_11  and  N_12
REMARK    2  A    between atoms: N_12  and  C_13
REMARK    3  A    between atoms: C_13  and  C_14
REMARK    4  A    between atoms: C_14  and  C_15
REMARK    5  A    between atoms: C_15  and  C_16
REMARK    6  A    between atoms: C_16  and  C_17
REMARK    7  A    between atoms: C_17  and  C_18
REMARK    8  A    between atoms: C_18  and  C_19
REMARK    9  A    between atoms: C_19  and  C_20
REMARK   10  A    between atoms: C_20  and  C_21
REMARK   11  A    between atoms: C_21  and  C_22
REMARK   12  A    between atoms: C_22  and  N_23
REMARK   13  A    between atoms: N_23  and  C_24
REMARK                            x       y       z     vdW  Elec       q    Type
REMARK                         _______ _______ _______ _____ _____    ______ ____
ROOT
ATOM      1  C   UNL     1      44.487 -17.373 -41.051  0.00  0.00    -0.053 C 
ENDROOT
BRANCH   1   2
ATOM      2  C   UNL     1      44.308 -16.698 -39.690  0.00  0.00    -0.053 C 
BRANCH   2   3
ATOM      3  C   UNL     1      43.390 -17.503 -38.768  0.00  0.00    -0.053 C 
BRANCH   3   4
ATOM      4  C   UNL     1      42.624 -16.574 -37.824  0.00  0.00    -0.052 C 
BRANCH   4   5
ATOM      5  C   UNL     1      41.719 -17.313 -36.833  0.00  0.00    -0.040 C 
BRANCH   5   6
ATOM      6  C   UNL     1      40.231 -17.139 -37.165  0.00  0.00    -0.004 C 
BRANCH   6   7
ATOM      7  N   UNL     1      39.574 -18.415 -37.452  0.00  0.00    -0.309 N 
ATOM      8  H   UNL     1      38.852 -18.568 -36.747  0.00  0.00    +0.000 HD
ATOM      9  H   UNL     1      39.195 -18.344 -38.396  0.00  0.00    +0.000 HD
BRANCH   7  20
ATOM     10  O   UNL     1      40.413 -23.540 -33.808  0.00  0.00    -0.273 OA
ATOM     11  C   UNL     1      40.074 -22.907 -34.805  0.00  0.00    +0.240 C 
ATOM     12  C   UNL     1      38.876 -21.967 -34.759  0.00  0.00    +0.045 C 
ATOM     13  C   UNL     1      39.121 -20.760 -35.612  0.00  0.00    -0.069 C 
ATOM     14  C   UNL     1      40.044 -20.745 -36.589  0.00  0.00    -0.015 C 
ATOM     15  C   UNL     1      40.667 -22.084 -36.857  0.00  0.00    +0.038 C 
ATOM     16  N   UNL     1      40.674 -23.081 -36.030  0.00  0.00    -0.185 NA
ATOM     17  C   UNL     1      41.218 -22.360 -38.248  0.00  0.00    -0.012 C 
ATOM     18  C   UNL     1      41.691 -21.125 -38.992  0.00  0.00    -0.046 C 
ATOM     19  C   UNL     1      40.665 -20.001 -38.907  0.00  0.00    -0.033 C 
ATOM     20  C   UNL     1      40.478 -19.572 -37.444  0.00  0.00    +0.034 C 
ENDBRANCH   7  20
ENDBRANCH   6   7
ENDBRANCH   5   6
ENDBRANCH   4   5
ENDBRANCH   3   4
ENDBRANCH   2   3
ENDBRANCH   1   2
BRANCH   1  21
ATOM     21  C   UNL     1      44.079 -18.847 -40.986  0.00  0.00    -0.053 C 
BRANCH  21  22
ATOM     22  C   UNL     1      45.284 -19.777 -41.141  0.00  0.00    -0.052 C 
BRANCH  22  23
ATOM     23  C   UNL     1      45.290 -20.849 -40.045  0.00  0.00    -0.040 C 
BRANCH  23  24
ATOM     24  C   UNL     1      46.672 -21.057 -39.414  0.00  0.00    -0.004 C 
BRANCH  24  25
ATOM     25  N   UNL     1      46.638 -20.764 -37.981  0.00  0.00    -0.309 N 
ATOM     26  H   UNL     1      47.593 -20.818 -37.627  0.00  0.00    +0.000 HD
ATOM     27  H   UNL     1      46.007 -21.452 -37.570  0.00  0.00    +0.000 HD
BRANCH  25  28
ATOM     28  C   UNL     1      46.094 -19.447 -37.614  0.00  0.00    +0.034 C 
ATOM     29  C   UNL     1      47.213 -18.381 -37.578  0.00  0.00    -0.033 C 
ATOM     30  C   UNL     1      46.695 -17.053 -37.034  0.00  0.00    -0.046 C 
ATOM     31  C   UNL     1      46.175 -17.230 -35.608  0.00  0.00    -0.012 C 
ATOM     32  C   UNL     1      45.269 -18.424 -35.466  0.00  0.00    +0.024 A 
ATOM     33  N   UNL     1      44.450 -18.445 -34.357  0.00  0.00    -0.326 N 
ATOM     34  C   UNL     1      43.527 -19.423 -34.089  0.00  0.00    +0.249 A 
ATOM     35  O   UNL     1      42.821 -19.418 -33.088  0.00  0.00    -0.268 OA
ATOM     36  C   UNL     1      43.418 -20.496 -35.103  0.00  0.00    +0.003 A 
ATOM     37  C   UNL     1      44.213 -20.473 -36.181  0.00  0.00    -0.050 A 
ATOM     38  C   UNL     1      45.206 -19.422 -36.374  0.00  0.00    -0.011 A 
ATOM     39  H   UNL     1      44.533 -17.706 -33.712  0.00  0.00    +0.000 HD
ENDBRANCH  25  28
ENDBRANCH  24  25
ENDBRANCH  23  24
ENDBRANCH  22  23
ENDBRANCH  21  22
ENDBRANCH   1  21
TORSDOF 13
ENDMDL
MODEL 2
REMARK VINA RESULT:    -5.421      2.941      6.937
REMARK INTER + INTRA:         -13.957
REMARK INTER:                 -11.206
REMARK INTRA:                  -2.751
REMARK UNBOUND:                -4.417
REMARK  Name = cpd59.pdb
REMARK  13 active torsions:
REMARK  status: ('A' for Active; 'I' for Inactive)
REMARK    1  A    between atoms: C_11  and  N_12
REMARK    2  A    between atoms: N_12  and  C_13
REMARK    3  A    between atoms: C_13  and  C_14
REMARK    4  A    between atoms: C_14  and  C_15
REMARK    5  A    between atoms: C_15  and  C_16
REMARK    6  A    between atoms: C_16  and  C_17
REMARK    7  A    between atoms: C_17  and  C_18
REMARK    8  A    between atoms: C_18  and  C_19
REMARK    9  A    between atoms: C_19  and  C_20
REMARK   10  A    between atoms: C_20  and  C_21
REMARK   11  A    between atoms: C_21  and  C_22
REMARK   12  A    between atoms: C_22  and  N_23
REMARK   13  A    between atoms: N_23  and  C_24
REMARK                            x       y       z     vdW  Elec       q    Type
REMARK                         _______ _______ _______ _____ _____    ______ ____
ROOT
ATOM      1  C   UNL     1      41.379 -21.924 -39.183  0.00  0.00    -0.053 C 
ENDROOT
BRANCH   1   2
ATOM      2  C   UNL     1      42.385 -20.806 -39.466  0.00  0.00    -0.053 C 
BRANCH   2   3
ATOM      3  C   UNL     1      43.475 -20.733 -38.395  0.00  0.00    -0.053 C 
BRANCH   3   4
ATOM      4  C   UNL     1      43.648 -19.296 -37.898  0.00  0.00    -0.052 C 
BRANCH   4   5
ATOM      5  C   UNL     1      45.037 -18.711 -38.174  0.00  0.00    -0.040 C 
BRANCH   5   6
ATOM      6  C   UNL     1      45.089 -17.943 -39.501  0.00  0.00    -0.004 C 
BRANCH   6   7
ATOM      7  N   UNL     1      46.282 -18.269 -40.284  0.00  0.00    -0.309 N 
ATOM      8  H   UNL     1      46.677 -17.399 -40.642  0.00  0.00    +0.000 HD
ATOM      9  H   UNL     1      46.917 -18.763 -39.657  0.00  0.00    +0.000 HD
BRANCH   7  20
ATOM     10  O   UNL     1      48.056 -24.118 -41.982  0.00  0.00    -0.273 OA
ATOM     11  C   UNL     1      47.294 -23.241 -41.584  0.00  0.00    +0.240 C 
ATOM     12  C   UNL     1      47.478 -22.619 -40.206  0.00  0.00    +0.045 C 
ATOM     13  C   UNL     1      47.130 -21.162 -40.235  0.00  0.00    -0.069 C 
ATOM     14  C   UNL     1      46.363 -20.625 -41.200  0.00  0.00    -0.015 C 
ATOM     15  C   UNL     1      45.753 -21.636 -42.124  0.00  0.00    +0.038 C 
ATOM     16  N   UNL     1      46.185 -22.846 -42.295  0.00  0.00    -0.185 NA
ATOM     17  C   UNL     1      44.449 -21.284 -42.823  0.00  0.00    -0.012 C 
ATOM     18  C   UNL     1      44.245 -19.799 -43.060  0.00  0.00    -0.046 C 
ATOM     19  C   UNL     1      44.554 -18.991 -41.805  0.00  0.00    -0.033 C 
ATOM     20  C   UNL     1      46.030 -19.164 -41.421  0.00  0.00    +0.034 C 
ENDBRANCH   7  20
ENDBRANCH   6   7
ENDBRANCH   5   6
ENDBRANCH   4   5
ENDBRANCH   3   4
ENDBRANCH   2   3
ENDBRANCH   1   2
BRANCH   1  21
ATOM     21  C   UNL     1      40.021 -21.345 -38.778  0.00  0.00    -0.053 C 
BRANCH  21  22
ATOM     22  C   UNL     1      39.882 -19.879 -39.191  0.00  0.00    -0.052 C 
BRANCH  22  23
ATOM     23  C   UNL     1      39.216 -19.059 -38.079  0.00  0.00    -0.040 C 
BRANCH  23  24
ATOM     24  C   UNL     1      40.149 -18.010 -37.464  0.00  0.00    -0.004 C 
BRANCH  24  25
ATOM     25  N   UNL     1      40.346 -18.262 -36.037  0.00  0.00    -0.309 N 
ATOM     26  H   UNL     1      40.659 -17.393 -35.604  0.00  0.00    +0.000 HD
ATOM     27  H   UNL     1      41.027 -19.019 -35.979  0.00  0.00    +0.000 HD
BRANCH  25  28
ATOM     28  C   UNL     1      39.159 -18.731 -35.304  0.00  0.00    +0.034 C 
ATOM     29  C   UNL     1      38.494 -17.566 -34.535  0.00  0.00    -0.033 C 
ATOM     30  C   UNL     1      37.368 -18.068 -33.637  0.00  0.00    -0.046 C 
ATOM     31  C   UNL     1      37.910 -19.056 -32.605  0.00  0.00    -0.012 C 
ATOM     32  C   UNL     1      38.808 -20.098 -33.219  0.00  0.00    +0.024 A 
ATOM     33  N   UNL     1      39.022 -21.239 -32.475  0.00  0.00    -0.326 N 
ATOM     34  C   UNL     1      39.767 -22.312 -32.891  0.00  0.00    +0.249 A 
ATOM     35  O   UNL     1      39.947 -23.308 -32.201  0.00  0.00    -0.268 OA
ATOM     36  C   UNL     1      40.338 -22.205 -34.253  0.00  0.00    +0.003 A 
ATOM     37  C   UNL     1      40.128 -21.097 -34.975  0.00  0.00    -0.050 A 
ATOM     38  C   UNL     1      39.361 -19.975 -34.445  0.00  0.00    -0.011 A 
ATOM     39  H   UNL     1      38.611 -21.287 -31.582  0.00  0.00    +0.000 HD
ENDBRANCH  25  28
ENDBRANCH  24  25
ENDBRANCH  23  24
ENDBRANCH  22  23
ENDBRANCH  21  22
ENDBRANCH   1  21
TORSDOF 13
ENDMDL
MODEL 3
REMARK VINA RESULT:    -5.356      2.571      5.042
REMARK INTER + INTRA:         -13.843
REMARK INTER:                  -9.449
REMARK INTRA:                  -4.394
REMARK UNBOUND:                -4.417
REMARK  Name = cpd59.pdb
REMARK  13 active torsions:
REMARK  status: ('A' for Active; 'I' for Inactive)
REMARK    1  A    between atoms: C_11  and  N_12
REMARK    2  A    between atoms: N_12  and  C_13
REMARK    3  A    between atoms: C_13  and  C_14
REMARK    4  A    between atoms: C_14  and  C_15
REMARK    5  A    between atoms: C_15  and  C_16
REMARK    6  A    between atoms: C_16  and  C_17
REMARK    7  A    between atoms: C_17  and  C_18
REMARK    8  A    between atoms: C_18  and  C_19
REMARK    9  A    between atoms: C_19  and  C_20
REMARK   10  A    between atoms: C_20  and  C_21
REMARK   11  A    between atoms: C_21  and  C_22
REMARK   12  A    between atoms: C_22  and  N_23
REMARK   13  A    between atoms: N_23  and  C_24
REMARK                            x       y       z     vdW  Elec       q    Type
REMARK                         _______ _______ _______ _____ _____    ______ ____
ROOT
ATOM      1  C   UNL     1      43.159 -18.584 -38.295  0.00  0.00    -0.053 C 
ENDROOT
BRANCH   1   2
ATOM      2  C   UNL     1      43.107 -20.075 -38.633  0.00  0.00    -0.053 C 
BRANCH   2   3
ATOM      3  C   UNL     1      42.478 -20.329 -40.005  0.00  0.00    -0.053 C 
BRANCH   3   4
ATOM      4  C   UNL     1      42.350 -21.831 -40.270  0.00  0.00    -0.052 C 
BRANCH   4   5
ATOM      5  C   UNL     1      40.901 -22.325 -40.328  0.00  0.00    -0.040 C 
BRANCH   5   6
ATOM      6  C   UNL     1      40.422 -22.876 -38.979  0.00  0.00    -0.004 C 
BRANCH   6   7
ATOM      7  N   UNL     1      39.374 -22.046 -38.382  0.00  0.00    -0.309 N 
ATOM      8  H   UNL     1      38.929 -21.509 -39.127  0.00  0.00    +0.000 HD
ATOM      9  H   UNL     1      38.729 -22.682 -37.913  0.00  0.00    +0.000 HD
BRANCH   7  20
ATOM     10  O   UNL     1      40.559 -15.821 -38.092  0.00  0.00    -0.273 OA
ATOM     11  C   UNL     1      39.954 -16.866 -37.868  0.00  0.00    +0.240 C 
ATOM     12  C   UNL     1      39.193 -17.578 -38.979  0.00  0.00    +0.045 C 
ATOM     13  C   UNL     1      39.291 -19.064 -38.816  0.00  0.00    -0.069 C 
ATOM     14  C   UNL     1      39.610 -19.640 -37.644  0.00  0.00    -0.015 C 
ATOM     15  C   UNL     1      39.682 -18.678 -36.494  0.00  0.00    +0.038 C 
ATOM     16  N   UNL     1      39.837 -17.396 -36.604  0.00  0.00    -0.185 NA
ATOM     17  C   UNL     1      39.420 -19.205 -35.092  0.00  0.00    -0.012 C 
ATOM     18  C   UNL     1      39.768 -20.669 -34.897  0.00  0.00    -0.046 C 
ATOM     19  C   UNL     1      39.217 -21.525 -36.032  0.00  0.00    -0.033 C 
ATOM     20  C   UNL     1      39.858 -21.107 -37.362  0.00  0.00    +0.034 C 
ENDBRANCH   7  20
ENDBRANCH   6   7
ENDBRANCH   5   6
ENDBRANCH   4   5
ENDBRANCH   3   4
ENDBRANCH   2   3
ENDBRANCH   1   2
BRANCH   1  21
ATOM     21  C   UNL     1      43.453 -18.373 -36.808  0.00  0.00    -0.053 C 
BRANCH  21  22
ATOM     22  C   UNL     1      43.239 -19.653 -35.999  0.00  0.00    -0.052 C 
BRANCH  22  23
ATOM     23  C   UNL     1      44.580 -20.307 -35.648  0.00  0.00    -0.040 C 
BRANCH  23  24
ATOM     24  C   UNL     1      45.777 -19.367 -35.838  0.00  0.00    -0.004 C 
BRANCH  24  25
ATOM     25  N   UNL     1      46.842 -20.028 -36.592  0.00  0.00    -0.309 N 
ATOM     26  H   UNL     1      46.537 -20.979 -36.798  0.00  0.00    +0.000 HD
ATOM     27  H   UNL     1      47.673 -19.980 -36.001  0.00  0.00    +0.000 HD
BRANCH  25  28
ATOM     28  C   UNL     1      47.214 -19.386 -37.863  0.00  0.00    +0.034 C 
ATOM     29  C   UNL     1      46.866 -17.880 -37.839  0.00  0.00    -0.033 C 
ATOM     30  C   UNL     1      47.086 -17.240 -39.206  0.00  0.00    -0.046 C 
ATOM     31  C   UNL     1      46.195 -17.905 -40.254  0.00  0.00    -0.012 C 
ATOM     32  C   UNL     1      46.250 -19.409 -40.189  0.00  0.00    +0.024 A 
ATOM     33  N   UNL     1      45.817 -20.088 -41.308  0.00  0.00    -0.326 N 
ATOM     34  C   UNL     1      45.840 -21.451 -41.449  0.00  0.00    +0.249 A 
ATOM     35  O   UNL     1      45.438 -22.025 -42.454  0.00  0.00    -0.268 OA
ATOM     36  C   UNL     1      46.406 -22.204 -40.307  0.00  0.00    +0.003 A 
ATOM     37  C   UNL     1      46.828 -21.543 -39.221  0.00  0.00    -0.050 A 
ATOM     38  C   UNL     1      46.727 -20.090 -39.125  0.00  0.00    -0.011 A 
ATOM     39  H   UNL     1      45.466 -19.556 -42.059  0.00  0.00    +0.000 HD
ENDBRANCH  25  28
ENDBRANCH  24  25
ENDBRANCH  23  24
ENDBRANCH  22  23
ENDBRANCH  21  22
ENDBRANCH   1  21
TORSDOF 13
ENDMDL
MODEL 4
REMARK VINA RESULT:    -5.350      2.595      6.272
REMARK INTER + INTRA:         -13.832
REMARK INTER:                 -10.438
REMARK INTRA:                  -3.394
REMARK UNBOUND:                -4.417
REMARK  Name = cpd59.pdb
REMARK  13 active torsions:
REMARK  status: ('A' for Active; 'I' for Inactive)
REMARK    1  A    between atoms: C_11  and  N_12
REMARK    2  A    between atoms: N_12  and  C_13
REMARK    3  A    between atoms: C_13  and  C_14
REMARK    4  A    between atoms: C_14  and  C_15
REMARK    5  A    between atoms: C_15  and  C_16
REMARK    6  A    between atoms: C_16  and  C_17
REMARK    7  A    between atoms: C_17  and  C_18
REMARK    8  A    between atoms: C_18  and  C_19
REMARK    9  A    between atoms: C_19  and  C_20
REMARK   10  A    between atoms: C_20  and  C_21
REMARK   11  A    between atoms: C_21  and  C_22
REMARK   12  A    between atoms: C_22  and  N_23
REMARK   13  A    between atoms: N_23  and  C_24
REMARK                            x       y       z     vdW  Elec       q    Type
REMARK                         _______ _______ _______ _____ _____    ______ ____
ROOT
ATOM      1  C   UNL     1      42.414 -19.217 -37.962  0.00  0.00    -0.053 C 
ENDROOT
BRANCH   1   2
ATOM      2  C   UNL     1      43.071 -17.837 -37.923  0.00  0.00    -0.053 C 
BRANCH   2   3
ATOM      3  C   UNL     1      43.963 -17.662 -36.692  0.00  0.00    -0.053 C 
BRANCH   3   4
ATOM      4  C   UNL     1      43.942 -18.924 -35.827  0.00  0.00    -0.052 C 
BRANCH   4   5
ATOM      5  C   UNL     1      45.326 -19.544 -35.608  0.00  0.00    -0.040 C 
BRANCH   5   6
ATOM      6  C   UNL     1      46.435 -18.749 -36.311  0.00  0.00    -0.004 C 
BRANCH   6   7
ATOM      7  N   UNL     1      47.215 -19.581 -37.229  0.00  0.00    -0.309 N 
ATOM      8  H   UNL     1      48.196 -19.527 -36.953  0.00  0.00    +0.000 HD
ATOM      9  H   UNL     1      46.836 -20.526 -37.162  0.00  0.00    +0.000 HD
BRANCH   7  20
ATOM     10  O   UNL     1      44.394 -21.866 -42.431  0.00  0.00    -0.273 OA
ATOM     11  C   UNL     1      44.570 -21.101 -41.486  0.00  0.00    +0.240 C 
ATOM     12  C   UNL     1      44.309 -21.560 -40.057  0.00  0.00    +0.045 C 
ATOM     13  C   UNL     1      45.302 -20.945 -39.118  0.00  0.00    -0.069 C 
ATOM     14  C   UNL     1      46.000 -19.840 -39.431  0.00  0.00    -0.015 C 
ATOM     15  C   UNL     1      45.567 -19.191 -40.713  0.00  0.00    +0.038 C 
ATOM     16  N   UNL     1      44.902 -19.778 -41.657  0.00  0.00    -0.185 NA
ATOM     17  C   UNL     1      45.796 -17.697 -40.880  0.00  0.00    -0.012 C 
ATOM     18  C   UNL     1      46.976 -17.151 -40.099  0.00  0.00    -0.046 C 
ATOM     19  C   UNL     1      46.968 -17.654 -38.660  0.00  0.00    -0.033 C 
ATOM     20  C   UNL     1      47.111 -19.182 -38.638  0.00  0.00    +0.034 C 
ENDBRANCH   7  20
ENDBRANCH   6   7
ENDBRANCH   5   6
ENDBRANCH   4   5
ENDBRANCH   3   4
ENDBRANCH   2   3
ENDBRANCH   1   2
BRANCH   1  21
ATOM     21  C   UNL     1      41.045 -19.151 -38.644  0.00  0.00    -0.053 C 
BRANCH  21  22
ATOM     22  C   UNL     1      40.260 -20.452 -38.472  0.00  0.00    -0.052 C 
BRANCH  22  23
ATOM     23  C   UNL     1      41.151 -21.554 -37.887  0.00  0.00    -0.040 C 
BRANCH  23  24
ATOM     24  C   UNL     1      40.563 -22.197 -36.625  0.00  0.00    -0.004 C 
BRANCH  24  25
ATOM     25  N   UNL     1      39.457 -21.396 -36.101  0.00  0.00    -0.309 N 
ATOM     26  H   UNL     1      38.637 -21.999 -36.034  0.00  0.00    +0.000 HD
ATOM     27  H   UNL     1      39.344 -20.618 -36.750  0.00  0.00    +0.000 HD
BRANCH  25  28
ATOM     28  C   UNL     1      39.681 -20.789 -34.780  0.00  0.00    +0.034 C 
ATOM     29  C   UNL     1      40.431 -19.443 -34.913  0.00  0.00    -0.033 C 
ATOM     30  C   UNL     1      40.821 -18.889 -33.547  0.00  0.00    -0.046 C 
ATOM     31  C   UNL     1      41.745 -19.865 -32.821  0.00  0.00    -0.012 C 
ATOM     32  C   UNL     1      41.236 -21.282 -32.861  0.00  0.00    +0.024 A 
ATOM     33  N   UNL     1      41.761 -22.150 -31.927  0.00  0.00    -0.326 N 
ATOM     34  C   UNL     1      41.383 -23.459 -31.781  0.00  0.00    +0.249 A 
ATOM     35  O   UNL     1      41.877 -24.208 -30.947  0.00  0.00    -0.268 OA
ATOM     36  C   UNL     1      40.312 -23.922 -32.692  0.00  0.00    +0.003 A 
ATOM     37  C   UNL     1      39.802 -23.077 -33.598  0.00  0.00    -0.050 A 
ATOM     38  C   UNL     1      40.289 -21.708 -33.725  0.00  0.00    -0.011 A 
ATOM     39  H   UNL     1      42.457 -21.804 -31.322  0.00  0.00    +0.000 HD
ENDBRANCH  25  28
ENDBRANCH  24  25
ENDBRANCH  23  24
ENDBRANCH  22  23
ENDBRANCH  21  22
ENDBRANCH   1  21
TORSDOF 13
ENDMDL
MODEL 5
REMARK VINA RESULT:    -5.308      2.919      5.870
REMARK INTER + INTRA:         -13.759
REMARK INTER:                 -10.946
REMARK INTRA:                  -2.813
REMARK UNBOUND:                -4.417
REMARK  Name = cpd59.pdb
REMARK  13 active torsions:
REMARK  status: ('A' for Active; 'I' for Inactive)
REMARK    1  A    between atoms: C_11  and  N_12
REMARK    2  A    between atoms: N_12  and  C_13
REMARK    3  A    between atoms: C_13  and  C_14
REMARK    4  A    between atoms: C_14  and  C_15
REMARK    5  A    between atoms: C_15  and  C_16
REMARK    6  A    between atoms: C_16  and  C_17
REMARK    7  A    between atoms: C_17  and  C_18
REMARK    8  A    between atoms: C_18  and  C_19
REMARK    9  A    between atoms: C_19  and  C_20
REMARK   10  A    between atoms: C_20  and  C_21
REMARK   11  A    between atoms: C_21  and  C_22
REMARK   12  A    between atoms: C_22  and  N_23
REMARK   13  A    between atoms: N_23  and  C_24
REMARK                            x       y       z     vdW  Elec       q    Type
REMARK                         _______ _______ _______ _____ _____    ______ ____
ROOT
ATOM      1  C   UNL     1      39.810 -19.134 -38.219  0.00  0.00    -0.053 C 
ENDROOT
BRANCH   1   2
ATOM      2  C   UNL     1      39.576 -19.523 -36.758  0.00  0.00    -0.053 C 
BRANCH   2   3
ATOM      3  C   UNL     1      38.642 -20.728 -36.629  0.00  0.00    -0.053 C 
BRANCH   3   4
ATOM      4  C   UNL     1      39.417 -22.035 -36.814  0.00  0.00    -0.052 C 
BRANCH   4   5
ATOM      5  C   UNL     1      39.218 -23.036 -35.671  0.00  0.00    -0.040 C 
BRANCH   5   6
ATOM      6  C   UNL     1      38.331 -22.472 -34.554  0.00  0.00    -0.004 C 
BRANCH   6   7
ATOM      7  N   UNL     1      39.009 -22.468 -33.257  0.00  0.00    -0.309 N 
ATOM      8  H   UNL     1      38.434 -22.990 -32.594  0.00  0.00    +0.000 HD
ATOM      9  H   UNL     1      39.925 -22.891 -33.404  0.00  0.00    +0.000 HD
BRANCH   7  20
ATOM     10  O   UNL     1      44.018 -18.645 -32.522  0.00  0.00    -0.273 OA
ATOM     11  C   UNL     1      42.960 -19.038 -33.007  0.00  0.00    +0.240 C 
ATOM     12  C   UNL     1      42.918 -20.298 -33.862  0.00  0.00    +0.045 C 
ATOM     13  C   UNL     1      41.644 -21.051 -33.629  0.00  0.00    -0.069 C 
ATOM     14  C   UNL     1      40.552 -20.470 -33.103  0.00  0.00    -0.015 C 
ATOM     15  C   UNL     1      40.672 -18.983 -32.941  0.00  0.00    +0.038 C 
ATOM     16  N   UNL     1      41.788 -18.327 -32.902  0.00  0.00    -0.185 NA
ATOM     17  C   UNL     1      39.401 -18.149 -32.959  0.00  0.00    -0.012 C 
ATOM     18  C   UNL     1      38.163 -18.880 -32.476  0.00  0.00    -0.046 C 
ATOM     19  C   UNL     1      38.049 -20.259 -33.116  0.00  0.00    -0.033 C 
ATOM     20  C   UNL     1      39.246 -21.127 -32.705  0.00  0.00    +0.034 C 
ENDBRANCH   7  20
ENDBRANCH   6   7
ENDBRANCH   5   6
ENDBRANCH   4   5
ENDBRANCH   3   4
ENDBRANCH   2   3
ENDBRANCH   1   2
BRANCH   1  21
ATOM     21  C   UNL     1      41.294 -18.872 -38.482  0.00  0.00    -0.053 C 
BRANCH  21  22
ATOM     22  C   UNL     1      42.190 -19.680 -37.541  0.00  0.00    -0.052 C 
BRANCH  22  23
ATOM     23  C   UNL     1      43.180 -20.540 -38.335  0.00  0.00    -0.040 C 
BRANCH  23  24
ATOM     24  C   UNL     1      42.618 -21.022 -39.677  0.00  0.00    -0.004 C 
BRANCH  24  25
ATOM     25  N   UNL     1      43.476 -20.596 -40.783  0.00  0.00    -0.309 N 
ATOM     26  H   UNL     1      42.945 -19.944 -41.359  0.00  0.00    +0.000 HD
ATOM     27  H   UNL     1      43.748 -21.450 -41.270  0.00  0.00    +0.000 HD
BRANCH  25  28
ATOM     28  C   UNL     1      44.733 -19.937 -40.395  0.00  0.00    +0.034 C 
ATOM     29  C   UNL     1      44.785 -18.491 -40.941  0.00  0.00    -0.033 C 
ATOM     30  C   UNL     1      46.150 -17.855 -40.695  0.00  0.00    -0.046 C 
ATOM     31  C   UNL     1      47.244 -18.657 -41.397  0.00  0.00    -0.012 C 
ATOM     32  C   UNL     1      47.128 -20.138 -41.147  0.00  0.00    +0.024 A 
ATOM     33  N   UNL     1      48.256 -20.892 -41.390  0.00  0.00    -0.326 N 
ATOM     34  C   UNL     1      48.351 -22.243 -41.173  0.00  0.00    +0.249 A 
ATOM     35  O   UNL     1      49.366 -22.887 -41.409  0.00  0.00    -0.268 OA
ATOM     36  C   UNL     1      47.144 -22.888 -40.610  0.00  0.00    +0.003 A 
ATOM     37  C   UNL     1      46.049 -22.153 -40.373  0.00  0.00    -0.050 A 
ATOM     38  C   UNL     1      46.008 -20.726 -40.675  0.00  0.00    -0.011 A 
ATOM     39  H   UNL     1      49.049 -20.429 -41.745  0.00  0.00    +0.000 HD
ENDBRANCH  25  28
ENDBRANCH  24  25
ENDBRANCH  23  24
ENDBRANCH  22  23
ENDBRANCH  21  22
ENDBRANCH   1  21
TORSDOF 13
ENDMDL
MODEL 6
REMARK VINA RESULT:    -5.254     17.679     21.088
REMARK INTER + INTRA:         -13.664
REMARK INTER:                  -9.827
REMARK INTRA:                  -3.837
REMARK UNBOUND:                -4.417
REMARK  Name = cpd59.pdb
REMARK  13 active torsions:
REMARK  status: ('A' for Active; 'I' for Inactive)
REMARK    1  A    between atoms: C_11  and  N_12
REMARK    2  A    between atoms: N_12  and  C_13
REMARK    3  A    between atoms: C_13  and  C_14
REMARK    4  A    between atoms: C_14  and  C_15
REMARK    5  A    between atoms: C_15  and  C_16
REMARK    6  A    between atoms: C_16  and  C_17
REMARK    7  A    between atoms: C_17  and  C_18
REMARK    8  A    between atoms: C_18  and  C_19
REMARK    9  A    between atoms: C_19  and  C_20
REMARK   10  A    between atoms: C_20  and  C_21
REMARK   11  A    between atoms: C_21  and  C_22
REMARK   12  A    between atoms: C_22  and  N_23
REMARK   13  A    between atoms: N_23  and  C_24
REMARK                            x       y       z     vdW  Elec       q    Type
REMARK                         _______ _______ _______ _____ _____    ______ ____
ROOT
ATOM      1  C   UNL     1      32.163 -36.538 -28.482  0.00  0.00    -0.053 C 
ENDROOT
BRANCH   1   2
ATOM      2  C   UNL     1      30.858 -36.157 -29.182  0.00  0.00    -0.053 C 
BRANCH   2   3
ATOM      3  C   UNL     1      29.872 -35.482 -28.227  0.00  0.00    -0.053 C 
BRANCH   3   4
ATOM      4  C   UNL     1      29.297 -34.210 -28.855  0.00  0.00    -0.052 C 
BRANCH   4   5
ATOM      5  C   UNL     1      30.217 -32.991 -28.731  0.00  0.00    -0.040 C 
BRANCH   5   6
ATOM      6  C   UNL     1      30.028 -32.002 -29.888  0.00  0.00    -0.004 C 
BRANCH   6   7
ATOM      7  N   UNL     1      31.210 -31.924 -30.748  0.00  0.00    -0.309 N 
ATOM      8  H   UNL     1      30.931 -32.173 -31.697  0.00  0.00    +0.000 HD
ATOM      9  H   UNL     1      31.562 -30.969 -30.676  0.00  0.00    +0.000 HD
BRANCH   7  20
ATOM     10  O   UNL     1      33.354 -37.636 -32.484  0.00  0.00    -0.273 OA
ATOM     11  C   UNL     1      33.355 -36.412 -32.388  0.00  0.00    +0.240 C 
ATOM     12  C   UNL     1      32.339 -35.572 -33.151  0.00  0.00    +0.045 C 
ATOM     13  C   UNL     1      31.921 -34.385 -32.338  0.00  0.00    -0.069 C 
ATOM     14  C   UNL     1      32.659 -33.917 -31.317  0.00  0.00    -0.015 C 
ATOM     15  C   UNL     1      34.002 -34.574 -31.186  0.00  0.00    +0.038 C 
ATOM     16  N   UNL     1      34.319 -35.726 -31.687  0.00  0.00    -0.185 NA
ATOM     17  C   UNL     1      35.131 -33.789 -30.538  0.00  0.00    -0.012 C 
ATOM     18  C   UNL     1      34.676 -32.754 -29.526  0.00  0.00    -0.046 C 
ATOM     19  C   UNL     1      33.526 -31.916 -30.070  0.00  0.00    -0.033 C 
ATOM     20  C   UNL     1      32.309 -32.810 -30.343  0.00  0.00    +0.034 C 
ENDBRANCH   7  20
ENDBRANCH   6   7
ENDBRANCH   5   6
ENDBRANCH   4   5
ENDBRANCH   3   4
ENDBRANCH   2   3
ENDBRANCH   1   2
BRANCH   1  21
ATOM     21  C   UNL     1      32.389 -35.670 -27.242  0.00  0.00    -0.053 C 
BRANCH  21  22
ATOM     22  C   UNL     1      32.505 -36.513 -25.971  0.00  0.00    -0.052 C 
BRANCH  22  23
ATOM     23  C   UNL     1      33.907 -37.118 -25.842  0.00  0.00    -0.040 C 
BRANCH  23  24
ATOM     24  C   UNL     1      33.914 -38.648 -25.941  0.00  0.00    -0.004 C 
BRANCH  24  25
ATOM     25  N   UNL     1      34.962 -39.105 -26.853  0.00  0.00    -0.309 N 
ATOM     26  H   UNL     1      35.173 -40.078 -26.627  0.00  0.00    +0.000 HD
ATOM     27  H   UNL     1      35.749 -38.471 -26.714  0.00  0.00    +0.000 HD
BRANCH  25  28
ATOM     28  C   UNL     1      34.635 -39.034 -28.285  0.00  0.00    +0.034 C 
ATOM     29  C   UNL     1      34.233 -40.426 -28.827  0.00  0.00    -0.033 C 
ATOM     30  C   UNL     1      34.058 -40.401 -30.341  0.00  0.00    -0.046 C 
ATOM     31  C   UNL     1      35.365 -39.998 -31.021  0.00  0.00    -0.012 C 
ATOM     32  C   UNL     1      35.996 -38.785 -30.389  0.00  0.00    +0.024 A 
ATOM     33  N   UNL     1      36.933 -38.114 -31.146  0.00  0.00    -0.326 N 
ATOM     34  C   UNL     1      37.573 -36.966 -30.756  0.00  0.00    +0.249 A 
ATOM     35  O   UNL     1      38.409 -36.400 -31.449  0.00  0.00    -0.268 OA
ATOM     36  C   UNL     1      37.177 -36.430 -29.435  0.00  0.00    +0.003 A 
ATOM     37  C   UNL     1      36.265 -37.081 -28.701  0.00  0.00    -0.050 A 
ATOM     38  C   UNL     1      35.661 -38.326 -29.164  0.00  0.00    -0.011 A 
ATOM     39  H   UNL     1      37.159 -38.487 -32.029  0.00  0.00    +0.000 HD
ENDBRANCH  25  28
ENDBRANCH  24  25
ENDBRANCH  23  24
ENDBRANCH  22  23
ENDBRANCH  21  22
ENDBRANCH   1  21
TORSDOF 13
ENDMDL
MODEL 7
REMARK VINA RESULT:    -5.201      2.393      4.450
REMARK INTER + INTRA:         -13.570
REMARK INTER:                  -9.418
REMARK INTRA:                  -4.151
REMARK UNBOUND:                -4.417
REMARK  Name = cpd59.pdb
REMARK  13 active torsions:
REMARK  status: ('A' for Active; 'I' for Inactive)
REMARK    1  A    between atoms: C_11  and  N_12
REMARK    2  A    between atoms: N_12  and  C_13
REMARK    3  A    between atoms: C_13  and  C_14
REMARK    4  A    between atoms: C_14  and  C_15
REMARK    5  A    between atoms: C_15  and  C_16
REMARK    6  A    between atoms: C_16  and  C_17
REMARK    7  A    between atoms: C_17  and  C_18
REMARK    8  A    between atoms: C_18  and  C_19
REMARK    9  A    between atoms: C_19  and  C_20
REMARK   10  A    between atoms: C_20  and  C_21
REMARK   11  A    between atoms: C_21  and  C_22
REMARK   12  A    between atoms: C_22  and  N_23
REMARK   13  A    between atoms: N_23  and  C_24
REMARK                            x       y       z     vdW  Elec       q    Type
REMARK                         _______ _______ _______ _____ _____    ______ ____
ROOT
ATOM      1  C   UNL     1      43.406 -20.345 -37.477  0.00  0.00    -0.053 C 
ENDROOT
BRANCH   1   2
ATOM      2  C   UNL     1      43.275 -20.109 -38.982  0.00  0.00    -0.053 C 
BRANCH   2   3
ATOM      3  C   UNL     1      42.115 -20.902 -39.587  0.00  0.00    -0.053 C 
BRANCH   3   4
ATOM      4  C   UNL     1      41.848 -22.172 -38.776  0.00  0.00    -0.052 C 
BRANCH   4   5
ATOM      5  C   UNL     1      40.360 -22.516 -38.642  0.00  0.00    -0.040 C 
BRANCH   5   6
ATOM      6  C   UNL     1      39.468 -21.271 -38.718  0.00  0.00    -0.004 C 
BRANCH   6   7
ATOM      7  N   UNL     1      38.690 -21.071 -37.494  0.00  0.00    -0.309 N 
ATOM      8  H   UNL     1      37.702 -21.198 -37.719  0.00  0.00    +0.000 HD
ATOM      9  H   UNL     1      39.031 -21.753 -36.816  0.00  0.00    +0.000 HD
BRANCH   7  20
ATOM     10  O   UNL     1      40.625 -18.835 -31.882  0.00  0.00    -0.273 OA
ATOM     11  C   UNL     1      40.693 -19.079 -33.084  0.00  0.00    +0.240 C 
ATOM     12  C   UNL     1      40.860 -20.510 -33.579  0.00  0.00    +0.045 C 
ATOM     13  C   UNL     1      40.101 -20.718 -34.853  0.00  0.00    -0.069 C 
ATOM     14  C   UNL     1      39.722 -19.696 -35.640  0.00  0.00    -0.015 C 
ATOM     15  C   UNL     1      40.278 -18.367 -35.220  0.00  0.00    +0.038 C 
ATOM     16  N   UNL     1      40.729 -18.089 -34.038  0.00  0.00    -0.185 NA
ATOM     17  C   UNL     1      40.461 -17.292 -36.280  0.00  0.00    -0.012 C 
ATOM     18  C   UNL     1      39.499 -17.392 -37.448  0.00  0.00    -0.046 C 
ATOM     19  C   UNL     1      39.412 -18.819 -37.974  0.00  0.00    -0.033 C 
ATOM     20  C   UNL     1      38.857 -19.747 -36.883  0.00  0.00    +0.034 C 
ENDBRANCH   7  20
ENDBRANCH   6   7
ENDBRANCH   5   6
ENDBRANCH   4   5
ENDBRANCH   3   4
ENDBRANCH   2   3
ENDBRANCH   1   2
BRANCH   1  21
ATOM     21  C   UNL     1      43.591 -19.021 -36.732  0.00  0.00    -0.053 C 
BRANCH  21  22
ATOM     22  C   UNL     1      43.831 -19.239 -35.237  0.00  0.00    -0.052 C 
BRANCH  22  23
ATOM     23  C   UNL     1      44.712 -20.471 -34.999  0.00  0.00    -0.040 C 
BRANCH  23  24
ATOM     24  C   UNL     1      46.166 -20.116 -34.665  0.00  0.00    -0.004 C 
BRANCH  24  25
ATOM     25  N   UNL     1      47.049 -20.436 -35.785  0.00  0.00    -0.309 N 
ATOM     26  H   UNL     1      46.557 -21.087 -36.397  0.00  0.00    +0.000 HD
ATOM     27  H   UNL     1      47.898 -20.822 -35.370  0.00  0.00    +0.000 HD
BRANCH  25  28
ATOM     28  C   UNL     1      47.485 -19.290 -36.599  0.00  0.00    +0.034 C 
ATOM     29  C   UNL     1      47.131 -17.956 -35.902  0.00  0.00    -0.033 C 
ATOM     30  C   UNL     1      47.419 -16.764 -36.809  0.00  0.00    -0.046 C 
ATOM     31  C   UNL     1      46.587 -16.855 -38.087  0.00  0.00    -0.012 C 
ATOM     32  C   UNL     1      46.645 -18.221 -38.719  0.00  0.00    +0.024 A 
ATOM     33  N   UNL     1      46.273 -18.301 -40.044  0.00  0.00    -0.326 N 
ATOM     34  C   UNL     1      46.310 -19.448 -40.796  0.00  0.00    +0.249 A 
ATOM     35  O   UNL     1      45.963 -19.487 -41.970  0.00  0.00    -0.268 OA
ATOM     36  C   UNL     1      46.817 -20.652 -40.101  0.00  0.00    +0.003 A 
ATOM     37  C   UNL     1      47.179 -20.573 -38.814  0.00  0.00    -0.050 A 
ATOM     38  C   UNL     1      47.068 -19.325 -38.066  0.00  0.00    -0.011 A 
ATOM     39  H   UNL     1      45.960 -17.477 -40.482  0.00  0.00    +0.000 HD
ENDBRANCH  25  28
ENDBRANCH  24  25
ENDBRANCH  23  24
ENDBRANCH  22  23
ENDBRANCH  21  22
ENDBRANCH   1  21
TORSDOF 13
ENDMDL
MODEL 8
REMARK VINA RESULT:    -5.185      2.931      6.866
REMARK INTER + INTRA:         -13.541
REMARK INTER:                 -10.667
REMARK INTRA:                  -2.874
REMARK UNBOUND:                -4.417
REMARK  Name = cpd59.pdb
REMARK  13 active torsions:
REMARK  status: ('A' for Active; 'I' for Inactive)
REMARK    1  A    between atoms: C_11  and  N_12
REMARK    2  A    between atoms: N_12  and  C_13
REMARK    3  A    between atoms: C_13  and  C_14
REMARK    4  A    between atoms: C_14  and  C_15
REMARK    5  A    between atoms: C_15  and  C_16
REMARK    6  A    between atoms: C_16  and  C_17
REMARK    7  A    between atoms: C_17  and  C_18
REMARK    8  A    between atoms: C_18  and  C_19
REMARK    9  A    between atoms: C_19  and  C_20
REMARK   10  A    between atoms: C_20  and  C_21
REMARK   11  A    between atoms: C_21  and  C_22
REMARK   12  A    between atoms: C_22  and  N_23
REMARK   13  A    between atoms: N_23  and  C_24
REMARK                            x       y       z     vdW  Elec       q    Type
REMARK                         _______ _______ _______ _____ _____    ______ ____
ROOT
ATOM      1  C   UNL     1      46.188 -18.818 -35.654  0.00  0.00    -0.053 C 
ENDROOT
BRANCH   1   2
ATOM      2  C   UNL     1      46.276 -19.720 -36.886  0.00  0.00    -0.053 C 
BRANCH   2   3
ATOM      3  C   UNL     1      47.208 -19.141 -37.953  0.00  0.00    -0.053 C 
BRANCH   3   4
ATOM      4  C   UNL     1      47.076 -17.618 -38.017  0.00  0.00    -0.052 C 
BRANCH   4   5
ATOM      5  C   UNL     1      47.000 -17.066 -39.444  0.00  0.00    -0.040 C 
BRANCH   5   6
ATOM      6  C   UNL     1      45.594 -17.202 -40.044  0.00  0.00    -0.004 C 
BRANCH   6   7
ATOM      7  N   UNL     1      45.602 -17.922 -41.318  0.00  0.00    -0.309 N 
ATOM      8  H   UNL     1      45.060 -17.383 -41.993  0.00  0.00    +0.000 HD
ATOM      9  H   UNL     1      46.580 -18.026 -41.589  0.00  0.00    +0.000 HD
BRANCH   7  20
ATOM     10  O   UNL     1      47.692 -23.813 -42.399  0.00  0.00    -0.273 OA
ATOM     11  C   UNL     1      47.323 -22.852 -41.730  0.00  0.00    +0.240 C 
ATOM     12  C   UNL     1      48.191 -21.606 -41.616  0.00  0.00    +0.045 C 
ATOM     13  C   UNL     1      47.340 -20.374 -41.567  0.00  0.00    -0.069 C 
ATOM     14  C   UNL     1      46.039 -20.411 -41.227  0.00  0.00    -0.015 C 
ATOM     15  C   UNL     1      45.578 -21.752 -40.737  0.00  0.00    +0.038 C 
ATOM     16  N   UNL     1      46.178 -22.877 -40.969  0.00  0.00    -0.185 NA
ATOM     17  C   UNL     1      44.396 -21.806 -39.781  0.00  0.00    -0.012 C 
ATOM     18  C   UNL     1      43.414 -20.659 -39.933  0.00  0.00    -0.046 C 
ATOM     19  C   UNL     1      44.135 -19.318 -40.006  0.00  0.00    -0.033 C 
ATOM     20  C   UNL     1      45.037 -19.276 -41.248  0.00  0.00    +0.034 C 
ENDBRANCH   7  20
ENDBRANCH   6   7
ENDBRANCH   5   6
ENDBRANCH   4   5
ENDBRANCH   3   4
ENDBRANCH   2   3
ENDBRANCH   1   2
BRANCH   1  21
ATOM     21  C   UNL     1      44.763 -18.798 -35.095  0.00  0.00    -0.053 C 
BRANCH  21  22
ATOM     22  C   UNL     1      44.150 -17.398 -35.152  0.00  0.00    -0.052 C 
BRANCH  22  23
ATOM     23  C   UNL     1      43.711 -16.936 -33.758  0.00  0.00    -0.040 C 
BRANCH  23  24
ATOM     24  C   UNL     1      42.548 -17.758 -33.190  0.00  0.00    -0.004 C 
BRANCH  24  25
ATOM     25  N   UNL     1      41.303 -17.453 -33.895  0.00  0.00    -0.309 N 
ATOM     26  H   UNL     1      41.524 -17.328 -34.883  0.00  0.00    +0.000 HD
ATOM     27  H   UNL     1      40.926 -16.618 -33.448  0.00  0.00    +0.000 HD
BRANCH  25  28
ATOM     28  C   UNL     1      40.248 -18.474 -33.794  0.00  0.00    +0.034 C 
ATOM     29  C   UNL     1      39.840 -18.698 -32.319  0.00  0.00    -0.033 C 
ATOM     30  C   UNL     1      38.875 -19.871 -32.183  0.00  0.00    -0.046 C 
ATOM     31  C   UNL     1      39.528 -21.158 -32.684  0.00  0.00    -0.012 C 
ATOM     32  C   UNL     1      40.203 -20.982 -34.019  0.00  0.00    +0.024 A 
ATOM     33  N   UNL     1      40.467 -22.133 -34.731  0.00  0.00    -0.326 N 
ATOM     34  C   UNL     1      41.028 -22.165 -35.981  0.00  0.00    +0.249 A 
ATOM     35  O   UNL     1      41.259 -23.207 -36.582  0.00  0.00    -0.268 OA
ATOM     36  C   UNL     1      41.329 -20.846 -36.581  0.00  0.00    +0.003 A 
ATOM     37  C   UNL     1      41.071 -19.728 -35.890  0.00  0.00    -0.050 A 
ATOM     38  C   UNL     1      40.514 -19.776 -34.542  0.00  0.00    -0.011 A 
ATOM     39  H   UNL     1      40.235 -22.993 -34.311  0.00  0.00    +0.000 HD
ENDBRANCH  25  28
ENDBRANCH  24  25
ENDBRANCH  23  24
ENDBRANCH  22  23
ENDBRANCH  21  22
ENDBRANCH   1  21
TORSDOF 13
ENDMDL
MODEL 9
REMARK VINA RESULT:    -5.181      2.913      5.407
REMARK INTER + INTRA:         -13.535
REMARK INTER:                 -11.084
REMARK INTRA:                  -2.452
REMARK UNBOUND:                -4.417
REMARK  Name = cpd59.pdb
REMARK  13 active torsions:
REMARK  status: ('A' for Active; 'I' for Inactive)
REMARK    1  A    between atoms: C_11  and  N_12
REMARK    2  A    between atoms: N_12  and  C_13
REMARK    3  A    between atoms: C_13  and  C_14
REMARK    4  A    between atoms: C_14  and  C_15
REMARK    5  A    between atoms: C_15  and  C_16
REMARK    6  A    between atoms: C_16  and  C_17
REMARK    7  A    between atoms: C_17  and  C_18
REMARK    8  A    between atoms: C_18  and  C_19
REMARK    9  A    between atoms: C_19  and  C_20
REMARK   10  A    between atoms: C_20  and  C_21
REMARK   11  A    between atoms: C_21  and  C_22
REMARK   12  A    between atoms: C_22  and  N_23
REMARK   13  A    between atoms: N_23  and  C_24
REMARK                            x       y       z     vdW  Elec       q    Type
REMARK                         _______ _______ _______ _____ _____    ______ ____
ROOT
ATOM      1  C   UNL     1      45.183 -18.703 -34.742  0.00  0.00    -0.053 C 
ENDROOT
BRANCH   1   2
ATOM      2  C   UNL     1      45.262 -17.376 -33.985  0.00  0.00    -0.053 C 
BRANCH   2   3
ATOM      3  C   UNL     1      44.164 -16.403 -34.421  0.00  0.00    -0.053 C 
BRANCH   3   4
ATOM      4  C   UNL     1      42.844 -17.143 -34.642  0.00  0.00    -0.052 C 
BRANCH   4   5
ATOM      5  C   UNL     1      41.732 -16.722 -33.675  0.00  0.00    -0.040 C 
BRANCH   5   6
ATOM      6  C   UNL     1      41.249 -17.888 -32.803  0.00  0.00    -0.004 C 
BRANCH   6   7
ATOM      7  N   UNL     1      41.930 -19.142 -33.129  0.00  0.00    -0.309 N 
ATOM      8  H   UNL     1      42.585 -18.962 -33.890  0.00  0.00    +0.000 HD
ATOM      9  H   UNL     1      42.392 -19.454 -32.275  0.00  0.00    +0.000 HD
BRANCH   7  20
ATOM     10  O   UNL     1      41.000 -22.559 -38.393  0.00  0.00    -0.273 OA
ATOM     11  C   UNL     1      41.366 -22.337 -37.241  0.00  0.00    +0.240 C 
ATOM     12  C   UNL     1      42.559 -21.431 -36.966  0.00  0.00    +0.045 C 
ATOM     13  C   UNL     1      42.336 -20.630 -35.719  0.00  0.00    -0.069 C 
ATOM     14  C   UNL     1      41.442 -20.992 -34.782  0.00  0.00    -0.015 C 
ATOM     15  C   UNL     1      40.831 -22.342 -35.015  0.00  0.00    +0.038 C 
ATOM     16  N   UNL     1      40.802 -22.961 -36.153  0.00  0.00    -0.185 NA
ATOM     17  C   UNL     1      40.322 -23.122 -33.813  0.00  0.00    -0.012 C 
ATOM     18  C   UNL     1      39.867 -22.259 -32.651  0.00  0.00    -0.046 C 
ATOM     19  C   UNL     1      40.886 -21.169 -32.339  0.00  0.00    -0.033 C 
ATOM     20  C   UNL     1      41.030 -20.226 -33.542  0.00  0.00    +0.034 C 
ENDBRANCH   7  20
ENDBRANCH   6   7
ENDBRANCH   5   6
ENDBRANCH   4   5
ENDBRANCH   3   4
ENDBRANCH   2   3
ENDBRANCH   1   2
BRANCH   1  21
ATOM     21  C   UNL     1      46.522 -19.031 -35.408  0.00  0.00    -0.053 C 
BRANCH  21  22
ATOM     22  C   UNL     1      46.344 -19.944 -36.622  0.00  0.00    -0.052 C 
BRANCH  22  23
ATOM     23  C   UNL     1      47.149 -19.425 -37.819  0.00  0.00    -0.040 C 
BRANCH  23  24
ATOM     24  C   UNL     1      46.659 -18.064 -38.329  0.00  0.00    -0.004 C 
BRANCH  24  25
ATOM     25  N   UNL     1      46.743 -17.995 -39.787  0.00  0.00    -0.309 N 
ATOM     26  H   UNL     1      47.680 -18.287 -40.062  0.00  0.00    +0.000 HD
ATOM     27  H   UNL     1      46.522 -17.031 -40.034  0.00  0.00    +0.000 HD
BRANCH  25  28
ATOM     28  C   UNL     1      45.776 -18.829 -40.520  0.00  0.00    +0.034 C 
ATOM     29  C   UNL     1      44.435 -18.916 -39.755  0.00  0.00    -0.033 C 
ATOM     30  C   UNL     1      43.487 -19.913 -40.412  0.00  0.00    -0.046 C 
ATOM     31  C   UNL     1      44.106 -21.309 -40.424  0.00  0.00    -0.012 C 
ATOM     32  C   UNL     1      45.532 -21.306 -40.908  0.00  0.00    +0.024 A 
ATOM     33  N   UNL     1      46.041 -22.516 -41.328  0.00  0.00    -0.326 N 
ATOM     34  C   UNL     1      47.299 -22.695 -41.845  0.00  0.00    +0.249 A 
ATOM     35  O   UNL     1      47.725 -23.787 -42.200  0.00  0.00    -0.268 OA
ATOM     36  C   UNL     1      48.120 -21.470 -41.969  0.00  0.00    +0.003 A 
ATOM     37  C   UNL     1      47.624 -20.294 -41.561  0.00  0.00    -0.050 A 
ATOM     38  C   UNL     1      46.291 -20.190 -40.977  0.00  0.00    -0.011 A 
ATOM     39  H   UNL     1      45.461 -23.308 -41.251  0.00  0.00    +0.000 HD
ENDBRANCH  25  28
ENDBRANCH  24  25
ENDBRANCH  23  24
ENDBRANCH  22  23
ENDBRANCH  21  22
ENDBRANCH   1  21
TORSDOF 13
ENDMDL
MODEL 10
REMARK VINA RESULT:    -5.109      2.512      4.770
REMARK INTER + INTRA:         -13.408
REMARK INTER:                  -9.651
REMARK INTRA:                  -3.757
REMARK UNBOUND:                -4.417
REMARK  Name = cpd59.pdb
REMARK  13 active torsions:
REMARK  status: ('A' for Active; 'I' for Inactive)
REMARK    1  A    between atoms: C_11  and  N_12
REMARK    2  A    between atoms: N_12  and  C_13
REMARK    3  A    between atoms: C_13  and  C_14
REMARK    4  A    between atoms: C_14  and  C_15
REMARK    5  A    between atoms: C_15  and  C_16
REMARK    6  A    between atoms: C_16  and  C_17
REMARK    7  A    between atoms: C_17  and  C_18
REMARK    8  A    between atoms: C_18  and  C_19
REMARK    9  A    between atoms: C_19  and  C_20
REMARK   10  A    between atoms: C_20  and  C_21
REMARK   11  A    between atoms: C_21  and  C_22
REMARK   12  A    between atoms: C_22  and  N_23
REMARK   13  A    between atoms: N_23  and  C_24
REMARK                            x       y       z     vdW  Elec       q    Type
REMARK                         _______ _______ _______ _____ _____    ______ ____
ROOT
ATOM      1  C   UNL     1      42.877 -18.393 -36.864  0.00  0.00    -0.053 C 
ENDROOT
BRANCH   1   2
ATOM      2  C   UNL     1      43.619 -19.602 -36.292  0.00  0.00    -0.053 C 
BRANCH   2   3
ATOM      3  C   UNL     1      43.107 -20.919 -36.881  0.00  0.00    -0.053 C 
BRANCH   3   4
ATOM      4  C   UNL     1      42.787 -20.756 -38.368  0.00  0.00    -0.052 C 
BRANCH   4   5
ATOM      5  C   UNL     1      41.940 -21.897 -38.944  0.00  0.00    -0.040 C 
BRANCH   5   6
ATOM      6  C   UNL     1      40.562 -21.415 -39.415  0.00  0.00    -0.004 C 
BRANCH   6   7
ATOM      7  N   UNL     1      39.472 -22.014 -38.642  0.00  0.00    -0.309 N 
ATOM      8  H   UNL     1      38.687 -22.180 -39.273  0.00  0.00    +0.000 HD
ATOM      9  H   UNL     1      39.841 -22.874 -38.234  0.00  0.00    +0.000 HD
BRANCH   7  20
ATOM     10  O   UNL     1      39.309 -22.519 -32.321  0.00  0.00    -0.273 OA
ATOM     11  C   UNL     1      39.689 -22.097 -33.410  0.00  0.00    +0.240 C 
ATOM     12  C   UNL     1      40.484 -22.989 -34.355  0.00  0.00    +0.045 C 
ATOM     13  C   UNL     1      40.117 -22.706 -35.779  0.00  0.00    -0.069 C 
ATOM     14  C   UNL     1      39.528 -21.557 -36.156  0.00  0.00    -0.015 C 
ATOM     15  C   UNL     1      39.441 -20.533 -35.063  0.00  0.00    +0.038 C 
ATOM     16  N   UNL     1      39.520 -20.788 -33.795  0.00  0.00    -0.185 NA
ATOM     17  C   UNL     1      39.391 -19.063 -35.451  0.00  0.00    -0.012 C 
ATOM     18  C   UNL     1      38.778 -18.794 -36.813  0.00  0.00    -0.046 C 
ATOM     19  C   UNL     1      39.347 -19.731 -37.871  0.00  0.00    -0.033 C 
ATOM     20  C   UNL     1      38.999 -21.186 -37.526  0.00  0.00    +0.034 C 
ENDBRANCH   7  20
ENDBRANCH   6   7
ENDBRANCH   5   6
ENDBRANCH   4   5
ENDBRANCH   3   4
ENDBRANCH   2   3
ENDBRANCH   1   2
BRANCH   1  21
ATOM     21  C   UNL     1      43.223 -17.123 -36.085  0.00  0.00    -0.053 C 
BRANCH  21  22
ATOM     22  C   UNL     1      44.047 -16.146 -36.925  0.00  0.00    -0.052 C 
BRANCH  22  23
ATOM     23  C   UNL     1      43.683 -16.262 -38.410  0.00  0.00    -0.040 C 
BRANCH  23  24
ATOM     24  C   UNL     1      44.814 -15.813 -39.344  0.00  0.00    -0.004 C 
BRANCH  24  25
ATOM     25  N   UNL     1      45.241 -16.914 -40.208  0.00  0.00    -0.309 N 
ATOM     26  H   UNL     1      46.145 -16.664 -40.610  0.00  0.00    +0.000 HD
ATOM     27  H   UNL     1      44.500 -17.030 -40.899  0.00  0.00    +0.000 HD
BRANCH  25  28
ATOM     28  C   UNL     1      45.386 -18.221 -39.548  0.00  0.00    +0.034 C 
ATOM     29  C   UNL     1      46.632 -18.239 -38.633  0.00  0.00    -0.033 C 
ATOM     30  C   UNL     1      46.891 -19.636 -38.079  0.00  0.00    -0.046 C 
ATOM     31  C   UNL     1      47.137 -20.624 -39.218  0.00  0.00    -0.012 C 
ATOM     32  C   UNL     1      46.113 -20.506 -40.316  0.00  0.00    +0.024 A 
ATOM     33  N   UNL     1      46.004 -21.581 -41.172  0.00  0.00    -0.326 N 
ATOM     34  C   UNL     1      45.097 -21.673 -42.196  0.00  0.00    +0.249 A 
ATOM     35  O   UNL     1      45.032 -22.639 -42.946  0.00  0.00    -0.268 OA
ATOM     36  C   UNL     1      44.171 -20.527 -42.336  0.00  0.00    +0.003 A 
ATOM     37  C   UNL     1      44.277 -19.483 -41.503  0.00  0.00    -0.050 A 
ATOM     38  C   UNL     1      45.301 -19.437 -40.465  0.00  0.00    -0.011 A 
ATOM     39  H   UNL     1      46.621 -22.337 -41.039  0.00  0.00    +0.000 HD
ENDBRANCH  25  28
ENDBRANCH  24  25
ENDBRANCH  23  24
ENDBRANCH  22  23
ENDBRANCH  21  22
ENDBRANCH   1  21
TORSDOF 13
ENDMDL
MODEL 11
REMARK VINA RESULT:    -5.095      1.701      5.893
REMARK INTER + INTRA:         -13.384
REMARK INTER:                  -9.885
REMARK INTRA:                  -3.499
REMARK UNBOUND:                -4.417
REMARK  Name = cpd59.pdb
REMARK  13 active torsions:
REMARK  status: ('A' for Active; 'I' for Inactive)
REMARK    1  A    between atoms: C_11  and  N_12
REMARK    2  A    between atoms: N_12  and  C_13
REMARK    3  A    between atoms: C_13  and  C_14
REMARK    4  A    between atoms: C_14  and  C_15
REMARK    5  A    between atoms: C_15  and  C_16
REMARK    6  A    between atoms: C_16  and  C_17
REMARK    7  A    between atoms: C_17  and  C_18
REMARK    8  A    between atoms: C_18  and  C_19
REMARK    9  A    between atoms: C_19  and  C_20
REMARK   10  A    between atoms: C_20  and  C_21
REMARK   11  A    between atoms: C_21  and  C_22
REMARK   12  A    between atoms: C_22  and  N_23
REMARK   13  A    between atoms: N_23  and  C_24
REMARK                            x       y       z     vdW  Elec       q    Type
REMARK                         _______ _______ _______ _____ _____    ______ ____
ROOT
ATOM      1  C   UNL     1      43.229 -17.346 -39.927  0.00  0.00    -0.053 C 
ENDROOT
BRANCH   1   2
ATOM      2  C   UNL     1      44.078 -16.329 -39.162  0.00  0.00    -0.053 C 
BRANCH   2   3
ATOM      3  C   UNL     1      45.573 -16.633 -39.274  0.00  0.00    -0.053 C 
BRANCH   3   4
ATOM      4  C   UNL     1      45.971 -16.857 -40.734  0.00  0.00    -0.052 C 
BRANCH   4   5
ATOM      5  C   UNL     1      47.210 -17.742 -40.907  0.00  0.00    -0.040 C 
BRANCH   5   6
ATOM      6  C   UNL     1      46.843 -19.209 -41.164  0.00  0.00    -0.004 C 
BRANCH   6   7
ATOM      7  N   UNL     1      47.288 -20.089 -40.082  0.00  0.00    -0.309 N 
ATOM      8  H   UNL     1      47.828 -20.852 -40.492  0.00  0.00    +0.000 HD
ATOM      9  H   UNL     1      47.839 -19.514 -39.445  0.00  0.00    +0.000 HD
BRANCH   7  20
ATOM     10  O   UNL     1      45.695 -20.295 -33.945  0.00  0.00    -0.273 OA
ATOM     11  C   UNL     1      45.616 -19.947 -35.121  0.00  0.00    +0.240 C 
ATOM     12  C   UNL     1      46.675 -19.042 -35.737  0.00  0.00    +0.045 C 
ATOM     13  C   UNL     1      46.921 -19.416 -37.167  0.00  0.00    -0.069 C 
ATOM     14  C   UNL     1      46.034 -20.124 -37.887  0.00  0.00    -0.015 C 
ATOM     15  C   UNL     1      44.723 -20.344 -37.191  0.00  0.00    +0.038 C 
ATOM     16  N   UNL     1      44.535 -20.257 -35.912  0.00  0.00    -0.185 NA
ATOM     17  C   UNL     1      43.479 -20.553 -38.041  0.00  0.00    -0.012 C 
ATOM     18  C   UNL     1      43.744 -21.171 -39.401  0.00  0.00    -0.046 C 
ATOM     19  C   UNL     1      44.908 -20.482 -40.104  0.00  0.00    -0.033 C 
ATOM     20  C   UNL     1      46.196 -20.670 -39.291  0.00  0.00    +0.034 C 
ENDBRANCH   7  20
ENDBRANCH   6   7
ENDBRANCH   5   6
ENDBRANCH   4   5
ENDBRANCH   3   4
ENDBRANCH   2   3
ENDBRANCH   1   2
BRANCH   1  21
ATOM     21  C   UNL     1      41.797 -17.376 -39.387  0.00  0.00    -0.053 C 
BRANCH  21  22
ATOM     22  C   UNL     1      41.679 -16.647 -38.047  0.00  0.00    -0.052 C 
BRANCH  22  23
ATOM     23  C   UNL     1      41.349 -17.629 -36.918  0.00  0.00    -0.040 C 
BRANCH  23  24
ATOM     24  C   UNL     1      39.981 -17.368 -36.274  0.00  0.00    -0.004 C 
BRANCH  24  25
ATOM     25  N   UNL     1      39.396 -18.612 -35.776  0.00  0.00    -0.309 N 
ATOM     26  H   UNL     1      38.449 -18.685 -36.150  0.00  0.00    +0.000 HD
ATOM     27  H   UNL     1      39.434 -18.551 -34.759  0.00  0.00    +0.000 HD
BRANCH  25  28
ATOM     28  C   UNL     1      40.118 -19.843 -36.134  0.00  0.00    +0.034 C 
ATOM     29  C   UNL     1      39.398 -20.590 -37.280  0.00  0.00    -0.033 C 
ATOM     30  C   UNL     1      40.037 -21.949 -37.544  0.00  0.00    -0.046 C 
ATOM     31  C   UNL     1      39.956 -22.826 -36.295  0.00  0.00    -0.012 C 
ATOM     32  C   UNL     1      40.390 -22.099 -35.049  0.00  0.00    +0.024 A 
ATOM     33  N   UNL     1      40.730 -22.884 -33.968  0.00  0.00    -0.326 N 
ATOM     34  C   UNL     1      41.193 -22.402 -32.771  0.00  0.00    +0.249 A 
ATOM     35  O   UNL     1      41.478 -23.126 -31.825  0.00  0.00    -0.268 OA
ATOM     36  C   UNL     1      41.349 -20.932 -32.689  0.00  0.00    +0.003 A 
ATOM     37  C   UNL     1      41.019 -20.171 -33.741  0.00  0.00    -0.050 A 
ATOM     38  C   UNL     1      40.488 -20.755 -34.968  0.00  0.00    -0.011 A 
ATOM     39  H   UNL     1      40.634 -23.859 -34.062  0.00  0.00    +0.000 HD
ENDBRANCH  25  28
ENDBRANCH  24  25
ENDBRANCH  23  24
ENDBRANCH  22  23
ENDBRANCH  21  22
ENDBRANCH   1  21
TORSDOF 13
ENDMDL
MODEL 12
REMARK VINA RESULT:    -5.085      2.375      4.827
REMARK INTER + INTRA:         -13.366
REMARK INTER:                  -9.726
REMARK INTRA:                  -3.640
REMARK UNBOUND:                -4.417
REMARK  Name = cpd59.pdb
REMARK  13 active torsions:
REMARK  status: ('A' for Active; 'I' for Inactive)
REMARK    1  A    between atoms: C_11  and  N_12
REMARK    2  A    between atoms: N_12  and  C_13
REMARK    3  A    between atoms: C_13  and  C_14
REMARK    4  A    between atoms: C_14  and  C_15
REMARK    5  A    between atoms: C_15  and  C_16
REMARK    6  A    between atoms: C_16  and  C_17
REMARK    7  A    between atoms: C_17  and  C_18
REMARK    8  A    between atoms: C_18  and  C_19
REMARK    9  A    between atoms: C_19  and  C_20
REMARK   10  A    between atoms: C_20  and  C_21
REMARK   11  A    between atoms: C_21  and  C_22
REMARK   12  A    between atoms: C_22  and  N_23
REMARK   13  A    between atoms: N_23  and  C_24
REMARK                            x       y       z     vdW  Elec       q    Type
REMARK                         _______ _______ _______ _____ _____    ______ ____
ROOT
ATOM      1  C   UNL     1      44.967 -18.659 -36.658  0.00  0.00    -0.053 C 
ENDROOT
BRANCH   1   2
ATOM      2  C   UNL     1      46.342 -19.039 -36.107  0.00  0.00    -0.053 C 
BRANCH   2   3
ATOM      3  C   UNL     1      46.774 -18.118 -34.964  0.00  0.00    -0.053 C 
BRANCH   3   4
ATOM      4  C   UNL     1      45.627 -17.192 -34.553  0.00  0.00    -0.052 C 
BRANCH   4   5
ATOM      5  C   UNL     1      45.288 -17.257 -33.061  0.00  0.00    -0.040 C 
BRANCH   5   6
ATOM      6  C   UNL     1      44.384 -18.450 -32.723  0.00  0.00    -0.004 C 
BRANCH   6   7
ATOM      7  N   UNL     1      42.969 -18.078 -32.678  0.00  0.00    -0.309 N 
ATOM      8  H   UNL     1      42.554 -18.500 -31.846  0.00  0.00    +0.000 HD
ATOM      9  H   UNL     1      42.935 -17.059 -32.663  0.00  0.00    +0.000 HD
BRANCH   7  20
ATOM     10  O   UNL     1      40.313 -23.486 -34.663  0.00  0.00    -0.273 OA
ATOM     11  C   UNL     1      40.346 -22.344 -34.213  0.00  0.00    +0.240 C 
ATOM     12  C   UNL     1      40.880 -22.075 -32.812  0.00  0.00    +0.045 C 
ATOM     13  C   UNL     1      41.619 -20.772 -32.771  0.00  0.00    -0.069 C 
ATOM     14  C   UNL     1      41.440 -19.815 -33.698  0.00  0.00    -0.015 C 
ATOM     15  C   UNL     1      40.321 -20.098 -34.656  0.00  0.00    +0.038 C 
ATOM     16  N   UNL     1      39.816 -21.268 -34.887  0.00  0.00    -0.185 NA
ATOM     17  C   UNL     1      39.619 -18.921 -35.316  0.00  0.00    -0.012 C 
ATOM     18  C   UNL     1      40.485 -17.687 -35.484  0.00  0.00    -0.046 C 
ATOM     19  C   UNL     1      41.240 -17.362 -34.200  0.00  0.00    -0.033 C 
ATOM     20  C   UNL     1      42.196 -18.510 -33.849  0.00  0.00    +0.034 C 
ENDBRANCH   7  20
ENDBRANCH   6   7
ENDBRANCH   5   6
ENDBRANCH   4   5
ENDBRANCH   3   4
ENDBRANCH   2   3
ENDBRANCH   1   2
BRANCH   1  21
ATOM     21  C   UNL     1      44.046 -19.881 -36.713  0.00  0.00    -0.053 C 
BRANCH  21  22
ATOM     22  C   UNL     1      42.778 -19.601 -37.520  0.00  0.00    -0.052 C 
BRANCH  22  23
ATOM     23  C   UNL     1      42.034 -20.903 -37.838  0.00  0.00    -0.040 C 
BRANCH  23  24
ATOM     24  C   UNL     1      42.512 -21.568 -39.134  0.00  0.00    -0.004 C 
BRANCH  24  25
ATOM     25  N   UNL     1      42.989 -20.566 -40.087  0.00  0.00    -0.309 N 
ATOM     26  H   UNL     1      42.861 -19.646 -39.666  0.00  0.00    +0.000 HD
ATOM     27  H   UNL     1      42.446 -20.709 -40.938  0.00  0.00    +0.000 HD
BRANCH  25  28
ATOM     28  C   UNL     1      44.401 -20.689 -40.485  0.00  0.00    +0.034 C 
ATOM     29  C   UNL     1      45.030 -21.969 -39.887  0.00  0.00    -0.033 C 
ATOM     30  C   UNL     1      46.532 -22.020 -40.146  0.00  0.00    -0.046 C 
ATOM     31  C   UNL     1      47.224 -20.819 -39.504  0.00  0.00    -0.012 C 
ATOM     32  C   UNL     1      46.525 -19.519 -39.806  0.00  0.00    +0.024 A 
ATOM     33  N   UNL     1      47.261 -18.369 -39.621  0.00  0.00    -0.326 N 
ATOM     34  C   UNL     1      46.809 -17.103 -39.891  0.00  0.00    +0.249 A 
ATOM     35  O   UNL     1      47.486 -16.099 -39.707  0.00  0.00    -0.268 OA
ATOM     36  C   UNL     1      45.439 -17.017 -40.444  0.00  0.00    +0.003 A 
ATOM     37  C   UNL     1      44.725 -18.136 -40.624  0.00  0.00    -0.050 A 
ATOM     38  C   UNL     1      45.258 -19.446 -40.269  0.00  0.00    -0.011 A 
ATOM     39  H   UNL     1      48.177 -18.462 -39.272  0.00  0.00    +0.000 HD
ENDBRANCH  25  28
ENDBRANCH  24  25
ENDBRANCH  23  24
ENDBRANCH  22  23
ENDBRANCH  21  22
ENDBRANCH   1  21
TORSDOF 13
ENDMDL
MODEL 13
REMARK VINA RESULT:    -5.033      2.641      6.910
REMARK INTER + INTRA:         -13.274
REMARK INTER:                  -9.814
REMARK INTRA:                  -3.460
REMARK UNBOUND:                -4.417
REMARK  Name = cpd59.pdb
REMARK  13 active torsions:
REMARK  status: ('A' for Active; 'I' for Inactive)
REMARK    1  A    between atoms: C_11  and  N_12
REMARK    2  A    between atoms: N_12  and  C_13
REMARK    3  A    between atoms: C_13  and  C_14
REMARK    4  A    between atoms: C_14  and  C_15
REMARK    5  A    between atoms: C_15  and  C_16
REMARK    6  A    between atoms: C_16  and  C_17
REMARK    7  A    between atoms: C_17  and  C_18
REMARK    8  A    between atoms: C_18  and  C_19
REMARK    9  A    between atoms: C_19  and  C_20
REMARK   10  A    between atoms: C_20  and  C_21
REMARK   11  A    between atoms: C_21  and  C_22
REMARK   12  A    between atoms: C_22  and  N_23
REMARK   13  A    between atoms: N_23  and  C_24
REMARK                            x       y       z     vdW  Elec       q    Type
REMARK                         _______ _______ _______ _____ _____    ______ ____
ROOT
ATOM      1  C   UNL     1      45.370 -18.949 -35.488  0.00  0.00    -0.053 C 
ENDROOT
BRANCH   1   2
ATOM      2  C   UNL     1      46.196 -19.761 -36.487  0.00  0.00    -0.053 C 
BRANCH   2   3
ATOM      3  C   UNL     1      47.320 -18.929 -37.109  0.00  0.00    -0.053 C 
BRANCH   3   4
ATOM      4  C   UNL     1      47.120 -17.442 -36.810  0.00  0.00    -0.052 C 
BRANCH   4   5
ATOM      5  C   UNL     1      47.140 -16.554 -38.059  0.00  0.00    -0.040 C 
BRANCH   5   6
ATOM      6  C   UNL     1      45.790 -16.546 -38.787  0.00  0.00    -0.004 C 
BRANCH   6   7
ATOM      7  N   UNL     1      45.859 -17.208 -40.091  0.00  0.00    -0.309 N 
ATOM      8  H   UNL     1      45.595 -16.531 -40.807  0.00  0.00    +0.000 HD
ATOM      9  H   UNL     1      46.816 -17.544 -40.198  0.00  0.00    +0.000 HD
BRANCH   7  20
ATOM     10  O   UNL     1      46.577 -23.301 -41.705  0.00  0.00    -0.273 OA
ATOM     11  C   UNL     1      46.385 -22.347 -40.955  0.00  0.00    +0.240 C 
ATOM     12  C   UNL     1      47.510 -21.371 -40.636  0.00  0.00    +0.045 C 
ATOM     13  C   UNL     1      46.977 -19.977 -40.503  0.00  0.00    -0.069 C 
ATOM     14  C   UNL     1      45.679 -19.724 -40.261  0.00  0.00    -0.015 C 
ATOM     15  C   UNL     1      44.866 -20.950 -39.964  0.00  0.00    +0.038 C 
ATOM     16  N   UNL     1      45.200 -22.160 -40.284  0.00  0.00    -0.185 NA
ATOM     17  C   UNL     1      43.619 -20.801 -39.106  0.00  0.00    -0.012 C 
ATOM     18  C   UNL     1      42.958 -19.438 -39.190  0.00  0.00    -0.046 C 
ATOM     19  C   UNL     1      43.982 -18.317 -39.056  0.00  0.00    -0.033 C 
ATOM     20  C   UNL     1      44.983 -18.380 -40.219  0.00  0.00    +0.034 C 
ENDBRANCH   7  20
ENDBRANCH   6   7
ENDBRANCH   5   6
ENDBRANCH   4   5
ENDBRANCH   3   4
ENDBRANCH   2   3
ENDBRANCH   1   2
BRANCH   1  21
ATOM     21  C   UNL     1      43.916 -19.428 -35.468  0.00  0.00    -0.053 C 
BRANCH  21  22
ATOM     22  C   UNL     1      43.019 -18.486 -34.663  0.00  0.00    -0.052 C 
BRANCH  22  23
ATOM     23  C   UNL     1      42.887 -18.964 -33.212  0.00  0.00    -0.040 C 
BRANCH  23  24
ATOM     24  C   UNL     1      41.937 -20.158 -33.056  0.00  0.00    -0.004 C 
BRANCH  24  25
ATOM     25  N   UNL     1      40.545 -19.710 -33.005  0.00  0.00    -0.309 N 
ATOM     26  H   UNL     1      40.477 -18.838 -33.529  0.00  0.00    +0.000 HD
ATOM     27  H   UNL     1      40.319 -19.615 -32.015  0.00  0.00    +0.000 HD
BRANCH  25  28
ATOM     28  C   UNL     1      39.555 -20.649 -33.557  0.00  0.00    +0.034 C 
ATOM     29  C   UNL     1      39.587 -21.992 -32.792  0.00  0.00    -0.033 C 
ATOM     30  C   UNL     1      38.691 -23.030 -33.461  0.00  0.00    -0.046 C 
ATOM     31  C   UNL     1      39.161 -23.298 -34.889  0.00  0.00    -0.012 C 
ATOM     32  C   UNL     1      39.425 -22.030 -35.658  0.00  0.00    +0.024 A 
ATOM     33  N   UNL     1      39.463 -22.141 -37.032  0.00  0.00    -0.326 N 
ATOM     34  C   UNL     1      39.641 -21.090 -37.894  0.00  0.00    +0.249 A 
ATOM     35  O   UNL     1      39.680 -21.224 -39.111  0.00  0.00    -0.268 OA
ATOM     36  C   UNL     1      39.768 -19.758 -37.262  0.00  0.00    +0.003 A 
ATOM     37  C   UNL     1      39.730 -19.651 -35.927  0.00  0.00    -0.050 A 
ATOM     38  C   UNL     1      39.584 -20.824 -35.072  0.00  0.00    -0.011 A 
ATOM     39  H   UNL     1      39.355 -23.039 -37.421  0.00  0.00    +0.000 HD
ENDBRANCH  25  28
ENDBRANCH  24  25
ENDBRANCH  23  24
ENDBRANCH  22  23
ENDBRANCH  21  22
ENDBRANCH   1  21
TORSDOF 13
ENDMDL
MODEL 14
REMARK VINA RESULT:    -5.006      2.719      6.895
REMARK INTER + INTRA:         -13.226
REMARK INTER:                 -10.383
REMARK INTRA:                  -2.843
REMARK UNBOUND:                -4.417
REMARK  Name = cpd59.pdb
REMARK  13 active torsions:
REMARK  status: ('A' for Active; 'I' for Inactive)
REMARK    1  A    between atoms: C_11  and  N_12
REMARK    2  A    between atoms: N_12  and  C_13
REMARK    3  A    between atoms: C_13  and  C_14
REMARK    4  A    between atoms: C_14  and  C_15
REMARK    5  A    between atoms: C_15  and  C_16
REMARK    6  A    between atoms: C_16  and  C_17
REMARK    7  A    between atoms: C_17  and  C_18
REMARK    8  A    between atoms: C_18  and  C_19
REMARK    9  A    between atoms: C_19  and  C_20
REMARK   10  A    between atoms: C_20  and  C_21
REMARK   11  A    between atoms: C_21  and  C_22
REMARK   12  A    between atoms: C_22  and  N_23
REMARK   13  A    between atoms: N_23  and  C_24
REMARK                            x       y       z     vdW  Elec       q    Type
REMARK                         _______ _______ _______ _____ _____    ______ ____
ROOT
ATOM      1  C   UNL     1      42.147 -19.033 -35.638  0.00  0.00    -0.053 C 
ENDROOT
BRANCH   1   2
ATOM      2  C   UNL     1      43.338 -18.103 -35.874  0.00  0.00    -0.053 C 
BRANCH   2   3
ATOM      3  C   UNL     1      44.672 -18.802 -35.606  0.00  0.00    -0.053 C 
BRANCH   3   4
ATOM      4  C   UNL     1      45.837 -17.968 -36.145  0.00  0.00    -0.052 C 
BRANCH   4   5
ATOM      5  C   UNL     1      47.099 -18.787 -36.434  0.00  0.00    -0.040 C 
BRANCH   5   6
ATOM      6  C   UNL     1      47.095 -19.379 -37.850  0.00  0.00    -0.004 C 
BRANCH   6   7
ATOM      7  N   UNL     1      46.775 -20.807 -37.852  0.00  0.00    -0.309 N 
ATOM      8  H   UNL     1      47.619 -21.324 -37.602  0.00  0.00    +0.000 HD
ATOM      9  H   UNL     1      46.018 -20.939 -37.181  0.00  0.00    +0.000 HD
BRANCH   7  20
ATOM     10  O   UNL     1      41.130 -22.204 -40.388  0.00  0.00    -0.273 OA
ATOM     11  C   UNL     1      42.164 -21.562 -40.218  0.00  0.00    +0.240 C 
ATOM     12  C   UNL     1      42.393 -20.787 -38.927  0.00  0.00    +0.045 C 
ATOM     13  C   UNL     1      43.839 -20.831 -38.536  0.00  0.00    -0.069 C 
ATOM     14  C   UNL     1      44.813 -21.120 -39.416  0.00  0.00    -0.015 C 
ATOM     15  C   UNL     1      44.340 -21.214 -40.837  0.00  0.00    +0.038 C 
ATOM     16  N   UNL     1      43.113 -21.415 -41.202  0.00  0.00    -0.185 NA
ATOM     17  C   UNL     1      45.333 -20.921 -41.951  0.00  0.00    -0.012 C 
ATOM     18  C   UNL     1      46.779 -21.217 -41.598  0.00  0.00    -0.046 C 
ATOM     19  C   UNL     1      47.142 -20.647 -40.232  0.00  0.00    -0.033 C 
ATOM     20  C   UNL     1      46.290 -21.314 -39.142  0.00  0.00    +0.034 C 
ENDBRANCH   7  20
ENDBRANCH   6   7
ENDBRANCH   5   6
ENDBRANCH   4   5
ENDBRANCH   3   4
ENDBRANCH   2   3
ENDBRANCH   1   2
BRANCH   1  21
ATOM     21  C   UNL     1      41.474 -18.729 -34.298  0.00  0.00    -0.053 C 
BRANCH  21  22
ATOM     22  C   UNL     1      42.092 -19.537 -33.155  0.00  0.00    -0.052 C 
BRANCH  22  23
ATOM     23  C   UNL     1      41.114 -20.603 -32.649  0.00  0.00    -0.040 C 
BRANCH  23  24
ATOM     24  C   UNL     1      41.251 -21.943 -33.382  0.00  0.00    -0.004 C 
BRANCH  24  25
ATOM     25  N   UNL     1      39.958 -22.620 -33.472  0.00  0.00    -0.309 N 
ATOM     26  H   UNL     1      39.421 -22.385 -32.637  0.00  0.00    +0.000 HD
ATOM     27  H   UNL     1      40.169 -23.614 -33.559  0.00  0.00    +0.000 HD
BRANCH  25  28
ATOM     28  C   UNL     1      39.141 -22.277 -34.647  0.00  0.00    +0.034 C 
ATOM     29  C   UNL     1      40.033 -22.056 -35.890  0.00  0.00    -0.033 C 
ATOM     30  C   UNL     1      39.219 -21.534 -37.069  0.00  0.00    -0.046 C 
ATOM     31  C   UNL     1      38.572 -20.195 -36.718  0.00  0.00    -0.012 C 
ATOM     32  C   UNL     1      37.889 -20.217 -35.376  0.00  0.00    +0.024 A 
ATOM     33  N   UNL     1      36.960 -19.225 -35.142  0.00  0.00    -0.326 N 
ATOM     34  C   UNL     1      36.207 -19.116 -34.002  0.00  0.00    +0.249 A 
ATOM     35  O   UNL     1      35.396 -18.216 -33.822  0.00  0.00    -0.268 OA
ATOM     36  C   UNL     1      36.419 -20.176 -32.991  0.00  0.00    +0.003 A 
ATOM     37  C   UNL     1      37.321 -21.140 -33.219  0.00  0.00    -0.050 A 
ATOM     38  C   UNL     1      38.120 -21.163 -34.439  0.00  0.00    -0.011 A 
ATOM     39  H   UNL     1      36.829 -18.548 -35.845  0.00  0.00    +0.000 HD
ENDBRANCH  25  28
ENDBRANCH  24  25
ENDBRANCH  23  24
ENDBRANCH  22  23
ENDBRANCH  21  22
ENDBRANCH   1  21
TORSDOF 13
ENDMDL
MODEL 15
REMARK VINA RESULT:    -4.970      2.621      6.063
REMARK INTER + INTRA:         -13.164
REMARK INTER:                 -10.346
REMARK INTRA:                  -2.818
REMARK UNBOUND:                -4.417
REMARK  Name = cpd59.pdb
REMARK  13 active torsions:
REMARK  status: ('A' for Active; 'I' for Inactive)
REMARK    1  A    between atoms: C_11  and  N_12
REMARK    2  A    between atoms: N_12  and  C_13
REMARK    3  A    between atoms: C_13  and  C_14
REMARK    4  A    between atoms: C_14  and  C_15
REMARK    5  A    between atoms: C_15  and  C_16
REMARK    6  A    between atoms: C_16  and  C_17
REMARK    7  A    between atoms: C_17  and  C_18
REMARK    8  A    between atoms: C_18  and  C_19
REMARK    9  A    between atoms: C_19  and  C_20
REMARK   10  A    between atoms: C_20  and  C_21
REMARK   11  A    between atoms: C_21  and  C_22
REMARK   12  A    between atoms: C_22  and  N_23
REMARK   13  A    between atoms: N_23  and  C_24
REMARK                            x       y       z     vdW  Elec       q    Type
REMARK                         _______ _______ _______ _____ _____    ______ ____
ROOT
ATOM      1  C   UNL     1      40.566 -19.399 -37.996  0.00  0.00    -0.053 C 
ENDROOT
BRANCH   1   2
ATOM      2  C   UNL     1      39.403 -18.975 -37.097  0.00  0.00    -0.053 C 
BRANCH   2   3
ATOM      3  C   UNL     1      38.846 -20.150 -36.290  0.00  0.00    -0.053 C 
BRANCH   3   4
ATOM      4  C   UNL     1      39.312 -20.075 -34.835  0.00  0.00    -0.052 C 
BRANCH   4   5
ATOM      5  C   UNL     1      39.561 -21.445 -34.196  0.00  0.00    -0.040 C 
BRANCH   5   6
ATOM      6  C   UNL     1      41.017 -21.617 -33.743  0.00  0.00    -0.004 C 
BRANCH   6   7
ATOM      7  N   UNL     1      41.970 -21.226 -34.782  0.00  0.00    -0.309 N 
ATOM      8  H   UNL     1      42.277 -22.069 -35.268  0.00  0.00    +0.000 HD
ATOM      9  H   UNL     1      41.484 -20.571 -35.394  0.00  0.00    +0.000 HD
BRANCH   7  20
ATOM     10  O   UNL     1      47.559 -19.396 -37.162  0.00  0.00    -0.273 OA
ATOM     11  C   UNL     1      46.416 -19.260 -36.732  0.00  0.00    +0.240 C 
ATOM     12  C   UNL     1      45.219 -19.745 -37.540  0.00  0.00    +0.045 C 
ATOM     13  C   UNL     1      44.156 -20.285 -36.633  0.00  0.00    -0.069 C 
ATOM     14  C   UNL     1      44.096 -19.971 -35.327  0.00  0.00    -0.015 C 
ATOM     15  C   UNL     1      45.071 -18.907 -34.914  0.00  0.00    +0.038 C 
ATOM     16  N   UNL     1      46.139 -18.580 -35.569  0.00  0.00    -0.185 NA
ATOM     17  C   UNL     1      44.730 -18.042 -33.710  0.00  0.00    -0.012 C 
ATOM     18  C   UNL     1      43.843 -18.719 -32.682  0.00  0.00    -0.046 C 
ATOM     19  C   UNL     1      42.659 -19.414 -33.344  0.00  0.00    -0.033 C 
ATOM     20  C   UNL     1      43.159 -20.527 -34.276  0.00  0.00    +0.034 C 
ENDBRANCH   7  20
ENDBRANCH   6   7
ENDBRANCH   5   6
ENDBRANCH   4   5
ENDBRANCH   3   4
ENDBRANCH   2   3
ENDBRANCH   1   2
BRANCH   1  21
ATOM     21  C   UNL     1      40.275 -20.743 -38.667  0.00  0.00    -0.053 C 
BRANCH  21  22
ATOM     22  C   UNL     1      41.446 -21.717 -38.522  0.00  0.00    -0.052 C 
BRANCH  22  23
ATOM     23  C   UNL     1      42.142 -21.938 -39.870  0.00  0.00    -0.040 C 
BRANCH  23  24
ATOM     24  C   UNL     1      42.928 -20.711 -40.350  0.00  0.00    -0.004 C 
BRANCH  24  25
ATOM     25  N   UNL     1      43.266 -20.833 -41.768  0.00  0.00    -0.309 N 
ATOM     26  H   UNL     1      42.785 -20.086 -42.270  0.00  0.00    +0.000 HD
ATOM     27  H   UNL     1      42.974 -21.770 -42.045  0.00  0.00    +0.000 HD
BRANCH  25  28
ATOM     28  C   UNL     1      44.699 -20.746 -42.090  0.00  0.00    +0.034 C 
ATOM     29  C   UNL     1      45.388 -22.117 -41.902  0.00  0.00    -0.033 C 
ATOM     30  C   UNL     1      46.900 -22.003 -42.065  0.00  0.00    -0.046 C 
ATOM     31  C   UNL     1      47.477 -21.047 -41.023  0.00  0.00    -0.012 C 
ATOM     32  C   UNL     1      46.704 -19.758 -40.930  0.00  0.00    +0.024 A 
ATOM     33  N   UNL     1      47.349 -18.696 -40.333  0.00  0.00    -0.326 N 
ATOM     34  C   UNL     1      46.822 -17.437 -40.204  0.00  0.00    +0.249 A 
ATOM     35  O   UNL     1      47.419 -16.516 -39.659  0.00  0.00    -0.268 OA
ATOM     36  C   UNL     1      45.476 -17.243 -40.788  0.00  0.00    +0.003 A 
ATOM     37  C   UNL     1      44.850 -18.276 -41.369  0.00  0.00    -0.050 A 
ATOM     38  C   UNL     1      45.457 -19.601 -41.426  0.00  0.00    -0.011 A 
ATOM     39  H   UNL     1      48.252 -18.853 -39.973  0.00  0.00    +0.000 HD
ENDBRANCH  25  28
ENDBRANCH  24  25
ENDBRANCH  23  24
ENDBRANCH  22  23
ENDBRANCH  21  22
ENDBRANCH   1  21
TORSDOF 13
ENDMDL
MODEL 16
REMARK VINA RESULT:    -4.888      2.359      6.968
REMARK INTER + INTRA:         -13.020
REMARK INTER:                  -9.262
REMARK INTRA:                  -3.758
REMARK UNBOUND:                -4.417
REMARK  Name = cpd59.pdb
REMARK  13 active torsions:
REMARK  status: ('A' for Active; 'I' for Inactive)
REMARK    1  A    between atoms: C_11  and  N_12
REMARK    2  A    between atoms: N_12  and  C_13
REMARK    3  A    between atoms: C_13  and  C_14
REMARK    4  A    between atoms: C_14  and  C_15
REMARK    5  A    between atoms: C_15  and  C_16
REMARK    6  A    between atoms: C_16  and  C_17
REMARK    7  A    between atoms: C_17  and  C_18
REMARK    8  A    between atoms: C_18  and  C_19
REMARK    9  A    between atoms: C_19  and  C_20
REMARK   10  A    between atoms: C_20  and  C_21
REMARK   11  A    between atoms: C_21  and  C_22
REMARK   12  A    between atoms: C_22  and  N_23
REMARK   13  A    between atoms: N_23  and  C_24
REMARK                            x       y       z     vdW  Elec       q    Type
REMARK                         _______ _______ _______ _____ _____    ______ ____
ROOT
ATOM      1  C   UNL     1      40.948 -19.497 -33.606  0.00  0.00    -0.053 C 
ENDROOT
BRANCH   1   2
ATOM      2  C   UNL     1      42.318 -18.950 -34.011  0.00  0.00    -0.053 C 
BRANCH   2   3
ATOM      3  C   UNL     1      43.197 -20.026 -34.651  0.00  0.00    -0.053 C 
BRANCH   3   4
ATOM      4  C   UNL     1      44.549 -19.441 -35.066  0.00  0.00    -0.052 C 
BRANCH   4   5
ATOM      5  C   UNL     1      45.136 -20.083 -36.328  0.00  0.00    -0.040 C 
BRANCH   5   6
ATOM      6  C   UNL     1      46.666 -19.977 -36.374  0.00  0.00    -0.004 C 
BRANCH   6   7
ATOM      7  N   UNL     1      47.196 -20.196 -37.720  0.00  0.00    -0.309 N 
ATOM      8  H   UNL     1      47.702 -19.357 -38.005  0.00  0.00    +0.000 HD
ATOM      9  H   UNL     1      47.795 -21.021 -37.669  0.00  0.00    +0.000 HD
BRANCH   7  20
ATOM     10  O   UNL     1      43.618 -16.785 -41.696  0.00  0.00    -0.273 OA
ATOM     11  C   UNL     1      44.521 -17.548 -41.363  0.00  0.00    +0.240 C 
ATOM     12  C   UNL     1      45.724 -17.034 -40.582  0.00  0.00    +0.045 C 
ATOM     13  C   UNL     1      46.188 -18.060 -39.594  0.00  0.00    -0.069 C 
ATOM     14  C   UNL     1      45.874 -19.362 -39.708  0.00  0.00    -0.015 C 
ATOM     15  C   UNL     1      45.179 -19.709 -40.992  0.00  0.00    +0.038 C 
ATOM     16  N   UNL     1      44.559 -18.866 -41.755  0.00  0.00    -0.185 NA
ATOM     17  C   UNL     1      45.315 -21.126 -41.527  0.00  0.00    -0.012 C 
ATOM     18  C   UNL     1      45.539 -22.182 -40.461  0.00  0.00    -0.046 C 
ATOM     19  C   UNL     1      46.617 -21.750 -39.473  0.00  0.00    -0.033 C 
ATOM     20  C   UNL     1      46.171 -20.482 -38.732  0.00  0.00    +0.034 C 
ENDBRANCH   7  20
ENDBRANCH   6   7
ENDBRANCH   5   6
ENDBRANCH   4   5
ENDBRANCH   3   4
ENDBRANCH   2   3
ENDBRANCH   1   2
BRANCH   1  21
ATOM     21  C   UNL     1      40.915 -21.022 -33.721  0.00  0.00    -0.053 C 
BRANCH  21  22
ATOM     22  C   UNL     1      39.491 -21.570 -33.610  0.00  0.00    -0.052 C 
BRANCH  22  23
ATOM     23  C   UNL     1      39.342 -22.871 -34.407  0.00  0.00    -0.040 C 
BRANCH  23  24
ATOM     24  C   UNL     1      40.290 -22.952 -35.610  0.00  0.00    -0.004 C 
BRANCH  24  25
ATOM     25  N   UNL     1      39.548 -22.835 -36.865  0.00  0.00    -0.309 N 
ATOM     26  H   UNL     1      38.591 -22.562 -36.639  0.00  0.00    +0.000 HD
ATOM     27  H   UNL     1      39.621 -23.746 -37.318  0.00  0.00    +0.000 HD
BRANCH  25  28
ATOM     28  C   UNL     1      40.081 -21.861 -37.830  0.00  0.00    +0.034 C 
ATOM     29  C   UNL     1      41.517 -22.242 -38.258  0.00  0.00    -0.033 C 
ATOM     30  C   UNL     1      42.144 -21.153 -39.123  0.00  0.00    -0.046 C 
ATOM     31  C   UNL     1      42.224 -19.839 -38.347  0.00  0.00    -0.012 C 
ATOM     32  C   UNL     1      40.932 -19.497 -37.653  0.00  0.00    +0.024 A 
ATOM     33  N   UNL     1      40.768 -18.183 -37.271  0.00  0.00    -0.326 N 
ATOM     34  C   UNL     1      39.642 -17.679 -36.674  0.00  0.00    +0.249 A 
ATOM     35  O   UNL     1      39.532 -16.507 -36.338  0.00  0.00    -0.268 OA
ATOM     36  C   UNL     1      38.539 -18.645 -36.471  0.00  0.00    +0.003 A 
ATOM     37  C   UNL     1      38.698 -19.922 -36.844  0.00  0.00    -0.050 A 
ATOM     38  C   UNL     1      39.947 -20.395 -37.432  0.00  0.00    -0.011 A 
ATOM     39  H   UNL     1      41.513 -17.561 -37.440  0.00  0.00    +0.000 HD
ENDBRANCH  25  28
ENDBRANCH  24  25
ENDBRANCH  23  24
ENDBRANCH  22  23
ENDBRANCH  21  22
ENDBRANCH   1  21
TORSDOF 13
ENDMDL
MODEL 17
REMARK VINA RESULT:    -4.882      2.390      3.864
REMARK INTER + INTRA:         -13.008
REMARK INTER:                 -10.327
REMARK INTRA:                  -2.682
REMARK UNBOUND:                -4.417
REMARK  Name = cpd59.pdb
REMARK  13 active torsions:
REMARK  status: ('A' for Active; 'I' for Inactive)
REMARK    1  A    between atoms: C_11  and  N_12
REMARK    2  A    between atoms: N_12  and  C_13
REMARK    3  A    between atoms: C_13  and  C_14
REMARK    4  A    between atoms: C_14  and  C_15
REMARK    5  A    between atoms: C_15  and  C_16
REMARK    6  A    between atoms: C_16  and  C_17
REMARK    7  A    between atoms: C_17  and  C_18
REMARK    8  A    between atoms: C_18  and  C_19
REMARK    9  A    between atoms: C_19  and  C_20
REMARK   10  A    between atoms: C_20  and  C_21
REMARK   11  A    between atoms: C_21  and  C_22
REMARK   12  A    between atoms: C_22  and  N_23
REMARK   13  A    between atoms: N_23  and  C_24
REMARK                            x       y       z     vdW  Elec       q    Type
REMARK                         _______ _______ _______ _____ _____    ______ ____
ROOT
ATOM      1  C   UNL     1      46.133 -18.091 -39.827  0.00  0.00    -0.053 C 
ENDROOT
BRANCH   1   2
ATOM      2  C   UNL     1      45.621 -18.870 -41.040  0.00  0.00    -0.053 C 
BRANCH   2   3
ATOM      3  C   UNL     1      44.178 -19.343 -40.849  0.00  0.00    -0.053 C 
BRANCH   3   4
ATOM      4  C   UNL     1      43.926 -19.732 -39.391  0.00  0.00    -0.052 C 
BRANCH   4   5
ATOM      5  C   UNL     1      42.535 -20.324 -39.144  0.00  0.00    -0.040 C 
BRANCH   5   6
ATOM      6  C   UNL     1      42.407 -20.939 -37.744  0.00  0.00    -0.004 C 
BRANCH   6   7
ATOM      7  N   UNL     1      41.011 -21.064 -37.319  0.00  0.00    -0.309 N 
ATOM      8  H   UNL     1      40.471 -20.331 -37.779  0.00  0.00    +0.000 HD
ATOM      9  H   UNL     1      40.709 -22.002 -37.580  0.00  0.00    +0.000 HD
BRANCH   7  20
ATOM     10  O   UNL     1      37.247 -23.763 -32.984  0.00  0.00    -0.273 OA
ATOM     11  C   UNL     1      38.296 -23.528 -33.579  0.00  0.00    +0.240 C 
ATOM     12  C   UNL     1      38.506 -24.018 -35.006  0.00  0.00    +0.045 C 
ATOM     13  C   UNL     1      39.295 -23.019 -35.796  0.00  0.00    -0.069 C 
ATOM     14  C   UNL     1      40.059 -22.080 -35.209  0.00  0.00    -0.015 C 
ATOM     15  C   UNL     1      40.184 -22.241 -33.723  0.00  0.00    +0.038 C 
ATOM     16  N   UNL     1      39.368 -22.915 -32.975  0.00  0.00    -0.185 NA
ATOM     17  C   UNL     1      41.428 -21.695 -33.038  0.00  0.00    -0.012 C 
ATOM     18  C   UNL     1      42.063 -20.511 -33.743  0.00  0.00    -0.046 C 
ATOM     19  C   UNL     1      42.199 -20.766 -35.240  0.00  0.00    -0.033 C 
ATOM     20  C   UNL     1      40.810 -20.943 -35.869  0.00  0.00    +0.034 C 
ENDBRANCH   7  20
ENDBRANCH   6   7
ENDBRANCH   5   6
ENDBRANCH   4   5
ENDBRANCH   3   4
ENDBRANCH   2   3
ENDBRANCH   1   2
BRANCH   1  21
ATOM     21  C   UNL     1      46.317 -16.611 -40.168  0.00  0.00    -0.053 C 
BRANCH  21  22
ATOM     22  C   UNL     1      45.852 -15.703 -39.028  0.00  0.00    -0.052 C 
BRANCH  22  23
ATOM     23  C   UNL     1      44.363 -15.919 -38.731  0.00  0.00    -0.040 C 
BRANCH  23  24
ATOM     24  C   UNL     1      44.052 -15.988 -37.231  0.00  0.00    -0.004 C 
BRANCH  24  25
ATOM     25  N   UNL     1      43.600 -17.328 -36.856  0.00  0.00    -0.309 N 
ATOM     26  H   UNL     1      43.976 -17.988 -37.537  0.00  0.00    +0.000 HD
ATOM     27  H   UNL     1      42.581 -17.285 -36.843  0.00  0.00    +0.000 HD
BRANCH  25  28
ATOM     28  C   UNL     1      44.002 -17.782 -35.516  0.00  0.00    +0.034 C 
ATOM     29  C   UNL     1      43.419 -16.855 -34.424  0.00  0.00    -0.033 C 
ATOM     30  C   UNL     1      43.965 -17.210 -33.046  0.00  0.00    -0.046 C 
ATOM     31  C   UNL     1      45.485 -17.058 -33.021  0.00  0.00    -0.012 C 
ATOM     32  C   UNL     1      46.151 -17.707 -34.205  0.00  0.00    +0.024 A 
ATOM     33  N   UNL     1      47.499 -17.972 -34.084  0.00  0.00    -0.326 N 
ATOM     34  C   UNL     1      48.258 -18.601 -35.036  0.00  0.00    +0.249 A 
ATOM     35  O   UNL     1      49.457 -18.814 -34.901  0.00  0.00    -0.268 OA
ATOM     36  C   UNL     1      47.532 -19.033 -36.251  0.00  0.00    +0.003 A 
ATOM     37  C   UNL     1      46.222 -18.776 -36.368  0.00  0.00    -0.050 A 
ATOM     38  C   UNL     1      45.490 -18.059 -35.329  0.00  0.00    -0.011 A 
ATOM     39  H   UNL     1      47.947 -17.691 -33.254  0.00  0.00    +0.000 HD
ENDBRANCH  25  28
ENDBRANCH  24  25
ENDBRANCH  23  24
ENDBRANCH  22  23
ENDBRANCH  21  22
ENDBRANCH   1  21
TORSDOF 13
ENDMDL
MODEL 18
REMARK VINA RESULT:    -4.835      2.762      6.137
REMARK INTER + INTRA:         -12.925
REMARK INTER:                  -8.779
REMARK INTRA:                  -4.146
REMARK UNBOUND:                -4.417
REMARK  Name = cpd59.pdb
REMARK  13 active torsions:
REMARK  status: ('A' for Active; 'I' for Inactive)
REMARK    1  A    between atoms: C_11  and  N_12
REMARK    2  A    between atoms: N_12  and  C_13
REMARK    3  A    between atoms: C_13  and  C_14
REMARK    4  A    between atoms: C_14  and  C_15
REMARK    5  A    between atoms: C_15  and  C_16
REMARK    6  A    between atoms: C_16  and  C_17
REMARK    7  A    between atoms: C_17  and  C_18
REMARK    8  A    between atoms: C_18  and  C_19
REMARK    9  A    between atoms: C_19  and  C_20
REMARK   10  A    between atoms: C_20  and  C_21
REMARK   11  A    between atoms: C_21  and  C_22
REMARK   12  A    between atoms: C_22  and  N_23
REMARK   13  A    between atoms: N_23  and  C_24
REMARK                            x       y       z     vdW  Elec       q    Type
REMARK                         _______ _______ _______ _____ _____    ______ ____
ROOT
ATOM      1  C   UNL     1      42.910 -16.636 -37.566  0.00  0.00    -0.053 C 
ENDROOT
BRANCH   1   2
ATOM      2  C   UNL     1      42.341 -18.008 -37.931  0.00  0.00    -0.053 C 
BRANCH   2   3
ATOM      3  C   UNL     1      41.190 -18.415 -37.008  0.00  0.00    -0.053 C 
BRANCH   3   4
ATOM      4  C   UNL     1      40.533 -19.706 -37.501  0.00  0.00    -0.052 C 
BRANCH   4   5
ATOM      5  C   UNL     1      40.758 -20.904 -36.572  0.00  0.00    -0.040 C 
BRANCH   5   6
ATOM      6  C   UNL     1      41.447 -20.502 -35.262  0.00  0.00    -0.004 C 
BRANCH   6   7
ATOM      7  N   UNL     1      42.779 -21.095 -35.133  0.00  0.00    -0.309 N 
ATOM      8  H   UNL     1      42.682 -22.001 -34.672  0.00  0.00    +0.000 HD
ATOM      9  H   UNL     1      43.159 -21.171 -36.077  0.00  0.00    +0.000 HD
BRANCH   7  20
ATOM     10  O   UNL     1      48.697 -18.960 -35.946  0.00  0.00    -0.273 OA
ATOM     11  C   UNL     1      47.473 -18.891 -35.870  0.00  0.00    +0.240 C 
ATOM     12  C   UNL     1      46.591 -19.505 -36.949  0.00  0.00    +0.045 C 
ATOM     13  C   UNL     1      45.345 -20.081 -36.347  0.00  0.00    -0.069 C 
ATOM     14  C   UNL     1      44.894 -19.709 -35.137  0.00  0.00    -0.015 C 
ATOM     15  C   UNL     1      45.642 -18.555 -34.537  0.00  0.00    +0.038 C 
ATOM     16  N   UNL     1      46.833 -18.179 -34.883  0.00  0.00    -0.185 NA
ATOM     17  C   UNL     1      44.917 -17.661 -33.543  0.00  0.00    -0.012 C 
ATOM     18  C   UNL     1      43.814 -18.353 -32.765  0.00  0.00    -0.046 C 
ATOM     19  C   UNL     1      42.915 -19.168 -33.687  0.00  0.00    -0.033 C 
ATOM     20  C   UNL     1      43.728 -20.284 -34.359  0.00  0.00    +0.034 C 
ENDBRANCH   7  20
ENDBRANCH   6   7
ENDBRANCH   5   6
ENDBRANCH   4   5
ENDBRANCH   3   4
ENDBRANCH   2   3
ENDBRANCH   1   2
BRANCH   1  21
ATOM     21  C   UNL     1      44.433 -16.694 -37.435  0.00  0.00    -0.053 C 
BRANCH  21  22
ATOM     22  C   UNL     1      45.014 -15.363 -36.954  0.00  0.00    -0.052 C 
BRANCH  22  23
ATOM     23  C   UNL     1      46.468 -15.204 -37.413  0.00  0.00    -0.040 C 
BRANCH  23  24
ATOM     24  C   UNL     1      46.613 -14.322 -38.659  0.00  0.00    -0.004 C 
BRANCH  24  25
ATOM     25  N   UNL     1      47.173 -15.085 -39.774  0.00  0.00    -0.309 N 
ATOM     26  H   UNL     1      47.623 -15.916 -39.391  0.00  0.00    +0.000 HD
ATOM     27  H   UNL     1      47.813 -14.451 -40.252  0.00  0.00    +0.000 HD
BRANCH  25  28
ATOM     28  C   UNL     1      46.205 -15.524 -40.792  0.00  0.00    +0.034 C 
ATOM     29  C   UNL     1      44.912 -14.679 -40.721  0.00  0.00    -0.033 C 
ATOM     30  C   UNL     1      43.838 -15.233 -41.651  0.00  0.00    -0.046 C 
ATOM     31  C   UNL     1      43.479 -16.665 -41.258  0.00  0.00    -0.012 C 
ATOM     32  C   UNL     1      44.696 -17.525 -41.035  0.00  0.00    +0.024 A 
ATOM     33  N   UNL     1      44.499 -18.889 -41.070  0.00  0.00    -0.326 N 
ATOM     34  C   UNL     1      45.493 -19.823 -40.937  0.00  0.00    +0.249 A 
ATOM     35  O   UNL     1      45.283 -21.030 -40.963  0.00  0.00    -0.268 OA
ATOM     36  C   UNL     1      46.862 -19.283 -40.777  0.00  0.00    +0.003 A 
ATOM     37  C   UNL     1      47.052 -17.958 -40.744  0.00  0.00    -0.050 A 
ATOM     38  C   UNL     1      45.936 -17.024 -40.845  0.00  0.00    -0.011 A 
ATOM     39  H   UNL     1      43.578 -19.215 -41.199  0.00  0.00    +0.000 HD
ENDBRANCH  25  28
ENDBRANCH  24  25
ENDBRANCH  23  24
ENDBRANCH  22  23
ENDBRANCH  21  22
ENDBRANCH   1  21
TORSDOF 13
ENDMDL
MODEL 19
REMARK VINA RESULT:    -4.801      2.670      6.629
REMARK INTER + INTRA:         -12.867
REMARK INTER:                  -9.627
REMARK INTRA:                  -3.240
REMARK UNBOUND:                -4.417
REMARK  Name = cpd59.pdb
REMARK  13 active torsions:
REMARK  status: ('A' for Active; 'I' for Inactive)
REMARK    1  A    between atoms: C_11  and  N_12
REMARK    2  A    between atoms: N_12  and  C_13
REMARK    3  A    between atoms: C_13  and  C_14
REMARK    4  A    between atoms: C_14  and  C_15
REMARK    5  A    between atoms: C_15  and  C_16
REMARK    6  A    between atoms: C_16  and  C_17
REMARK    7  A    between atoms: C_17  and  C_18
REMARK    8  A    between atoms: C_18  and  C_19
REMARK    9  A    between atoms: C_19  and  C_20
REMARK   10  A    between atoms: C_20  and  C_21
REMARK   11  A    between atoms: C_21  and  C_22
REMARK   12  A    between atoms: C_22  and  N_23
REMARK   13  A    between atoms: N_23  and  C_24
REMARK                            x       y       z     vdW  Elec       q    Type
REMARK                         _______ _______ _______ _____ _____    ______ ____
ROOT
ATOM      1  C   UNL     1      39.480 -19.088 -37.287  0.00  0.00    -0.053 C 
ENDROOT
BRANCH   1   2
ATOM      2  C   UNL     1      40.434 -18.625 -36.184  0.00  0.00    -0.053 C 
BRANCH   2   3
ATOM      3  C   UNL     1      41.828 -18.307 -36.729  0.00  0.00    -0.053 C 
BRANCH   3   4
ATOM      4  C   UNL     1      42.907 -18.730 -35.731  0.00  0.00    -0.052 C 
BRANCH   4   5
ATOM      5  C   UNL     1      44.049 -17.717 -35.593  0.00  0.00    -0.040 C 
BRANCH   5   6
ATOM      6  C   UNL     1      45.428 -18.385 -35.661  0.00  0.00    -0.004 C 
BRANCH   6   7
ATOM      7  N   UNL     1      45.425 -19.579 -36.507  0.00  0.00    -0.309 N 
ATOM      8  H   UNL     1      46.033 -20.277 -36.078  0.00  0.00    +0.000 HD
ATOM      9  H   UNL     1      44.454 -19.887 -36.575  0.00  0.00    +0.000 HD
BRANCH   7  20
ATOM     10  O   UNL     1      43.801 -21.609 -42.294  0.00  0.00    -0.273 OA
ATOM     11  C   UNL     1      43.899 -20.813 -41.364  0.00  0.00    +0.240 C 
ATOM     12  C   UNL     1      43.082 -21.000 -40.092  0.00  0.00    +0.045 C 
ATOM     13  C   UNL     1      43.872 -20.577 -38.891  0.00  0.00    -0.069 C 
ATOM     14  C   UNL     1      44.935 -19.759 -38.982  0.00  0.00    -0.015 C 
ATOM     15  C   UNL     1      45.140 -19.178 -40.350  0.00  0.00    +0.038 C 
ATOM     16  N   UNL     1      44.656 -19.668 -41.447  0.00  0.00    -0.185 NA
ATOM     17  C   UNL     1      45.854 -17.841 -40.469  0.00  0.00    -0.012 C 
ATOM     18  C   UNL     1      46.841 -17.555 -39.352  0.00  0.00    -0.046 C 
ATOM     19  C   UNL     1      46.234 -17.853 -37.987  0.00  0.00    -0.033 C 
ATOM     20  C   UNL     1      45.889 -19.345 -37.881  0.00  0.00    +0.034 C 
ENDBRANCH   7  20
ENDBRANCH   6   7
ENDBRANCH   5   6
ENDBRANCH   4   5
ENDBRANCH   3   4
ENDBRANCH   2   3
ENDBRANCH   1   2
BRANCH   1  21
ATOM     21  C   UNL     1      39.175 -20.582 -37.152  0.00  0.00    -0.053 C 
BRANCH  21  22
ATOM     22  C   UNL     1      40.274 -21.445 -37.774  0.00  0.00    -0.052 C 
BRANCH  22  23
ATOM     23  C   UNL     1      41.058 -22.195 -36.692  0.00  0.00    -0.040 C 
BRANCH  23  24
ATOM     24  C   UNL     1      40.167 -23.065 -35.797  0.00  0.00    -0.004 C 
BRANCH  24  25
ATOM     25  N   UNL     1      40.610 -23.003 -34.404  0.00  0.00    -0.309 N 
ATOM     26  H   UNL     1      41.448 -22.422 -34.367  0.00  0.00    +0.000 HD
ATOM     27  H   UNL     1      40.766 -23.969 -34.117  0.00  0.00    +0.000 HD
BRANCH  25  28
ATOM     28  C   UNL     1      39.635 -22.451 -33.451  0.00  0.00    +0.034 C 
ATOM     29  C   UNL     1      38.189 -22.756 -33.906  0.00  0.00    -0.033 C 
ATOM     30  C   UNL     1      37.169 -22.045 -33.023  0.00  0.00    -0.046 C 
ATOM     31  C   UNL     1      37.368 -20.532 -33.093  0.00  0.00    -0.012 C 
ATOM     32  C   UNL     1      38.810 -20.130 -32.926  0.00  0.00    +0.024 A 
ATOM     33  N   UNL     1      39.045 -18.817 -32.580  0.00  0.00    -0.326 N 
ATOM     34  C   UNL     1      40.286 -18.285 -32.338  0.00  0.00    +0.249 A 
ATOM     35  O   UNL     1      40.462 -17.110 -32.042  0.00  0.00    -0.268 OA
ATOM     36  C   UNL     1      41.419 -19.232 -32.440  0.00  0.00    +0.003 A 
ATOM     37  C   UNL     1      41.189 -20.509 -32.776  0.00  0.00    -0.050 A 
ATOM     38  C   UNL     1      39.842 -20.991 -33.064  0.00  0.00    -0.011 A 
ATOM     39  H   UNL     1      38.268 -18.218 -32.500  0.00  0.00    +0.000 HD
ENDBRANCH  25  28
ENDBRANCH  24  25
ENDBRANCH  23  24
ENDBRANCH  22  23
ENDBRANCH  21  22
ENDBRANCH   1  21
TORSDOF 13
ENDMDL
MODEL 20
REMARK VINA RESULT:    -4.561      2.174      6.954
REMARK INTER + INTRA:         -12.443
REMARK INTER:                  -8.895
REMARK INTRA:                  -3.548
REMARK UNBOUND:                -4.417
REMARK  Name = cpd59.pdb
REMARK  13 active torsions:
REMARK  status: ('A' for Active; 'I' for Inactive)
REMARK    1  A    between atoms: C_11  and  N_12
REMARK    2  A    between atoms: N_12  and  C_13
REMARK    3  A    between atoms: C_13  and  C_14
REMARK    4  A    between atoms: C_14  and  C_15
REMARK    5  A    between atoms: C_15  and  C_16
REMARK    6  A    between atoms: C_16  and  C_17
REMARK    7  A    between atoms: C_17  and  C_18
REMARK    8  A    between atoms: C_18  and  C_19
REMARK    9  A    between atoms: C_19  and  C_20
REMARK   10  A    between atoms: C_20  and  C_21
REMARK   11  A    between atoms: C_21  and  C_22
REMARK   12  A    between atoms: C_22  and  N_23
REMARK   13  A    between atoms: N_23  and  C_24
REMARK                            x       y       z     vdW  Elec       q    Type
REMARK                         _______ _______ _______ _____ _____    ______ ____
ROOT
ATOM      1  C   UNL     1      41.795 -20.320 -37.750  0.00  0.00    -0.053 C 
ENDROOT
BRANCH   1   2
ATOM      2  C   UNL     1      42.934 -19.359 -38.094  0.00  0.00    -0.053 C 
BRANCH   2   3
ATOM      3  C   UNL     1      43.392 -19.512 -39.546  0.00  0.00    -0.053 C 
BRANCH   3   4
ATOM      4  C   UNL     1      44.011 -20.892 -39.775  0.00  0.00    -0.052 C 
BRANCH   4   5
ATOM      5  C   UNL     1      45.455 -20.843 -40.284  0.00  0.00    -0.040 C 
BRANCH   5   6
ATOM      6  C   UNL     1      46.476 -20.937 -39.143  0.00  0.00    -0.004 C 
BRANCH   6   7
ATOM      7  N   UNL     1      47.247 -19.703 -38.985  0.00  0.00    -0.309 N 
ATOM      8  H   UNL     1      48.239 -19.939 -39.021  0.00  0.00    +0.000 HD
ATOM      9  H   UNL     1      46.961 -19.080 -39.742  0.00  0.00    +0.000 HD
BRANCH   7  20
ATOM     10  O   UNL     1      45.599 -13.802 -37.338  0.00  0.00    -0.273 OA
ATOM     11  C   UNL     1      45.448 -15.009 -37.514  0.00  0.00    +0.240 C 
ATOM     12  C   UNL     1      45.398 -15.588 -38.922  0.00  0.00    +0.045 C 
ATOM     13  C   UNL     1      46.055 -16.934 -38.962  0.00  0.00    -0.069 C 
ATOM     14  C   UNL     1      46.242 -17.675 -37.856  0.00  0.00    -0.015 C 
ATOM     15  C   UNL     1      45.582 -17.117 -36.630  0.00  0.00    +0.038 C 
ATOM     16  N   UNL     1      45.213 -15.884 -36.479  0.00  0.00    -0.185 NA
ATOM     17  C   UNL     1      45.182 -18.078 -35.522  0.00  0.00    -0.012 C 
ATOM     18  C   UNL     1      46.038 -19.328 -35.436  0.00  0.00    -0.046 C 
ATOM     19  C   UNL     1      46.235 -19.959 -36.810  0.00  0.00    -0.033 C 
ATOM     20  C   UNL     1      46.989 -18.987 -37.729  0.00  0.00    +0.034 C 
ENDBRANCH   7  20
ENDBRANCH   6   7
ENDBRANCH   5   6
ENDBRANCH   4   5
ENDBRANCH   3   4
ENDBRANCH   2   3
ENDBRANCH   1   2
BRANCH   1  21
ATOM     21  C   UNL     1      40.438 -19.621 -37.865  0.00  0.00    -0.053 C 
BRANCH  21  22
ATOM     22  C   UNL     1      39.291 -20.527 -37.414  0.00  0.00    -0.052 C 
BRANCH  22  23
ATOM     23  C   UNL     1      39.610 -21.998 -37.705  0.00  0.00    -0.040 C 
BRANCH  23  24
ATOM     24  C   UNL     1      39.245 -22.934 -36.546  0.00  0.00    -0.004 C 
BRANCH  24  25
ATOM     25  N   UNL     1      40.287 -22.920 -35.519  0.00  0.00    -0.309 N 
ATOM     26  H   UNL     1      41.072 -22.375 -35.876  0.00  0.00    +0.000 HD
ATOM     27  H   UNL     1      40.513 -23.898 -35.338  0.00  0.00    +0.000 HD
BRANCH  25  28
ATOM     28  C   UNL     1      39.893 -22.351 -34.221  0.00  0.00    +0.034 C 
ATOM     29  C   UNL     1      38.354 -22.243 -34.113  0.00  0.00    -0.033 C 
ATOM     30  C   UNL     1      37.939 -21.498 -32.849  0.00  0.00    -0.046 C 
ATOM     31  C   UNL     1      38.504 -20.079 -32.858  0.00  0.00    -0.012 C 
ATOM     32  C   UNL     1      39.965 -20.040 -33.222  0.00  0.00    +0.024 A 
ATOM     33  N   UNL     1      40.653 -18.896 -32.879  0.00  0.00    -0.326 N 
ATOM     34  C   UNL     1      41.995 -18.702 -33.086  0.00  0.00    +0.249 A 
ATOM     35  O   UNL     1      42.575 -17.668 -32.779  0.00  0.00    -0.268 OA
ATOM     36  C   UNL     1      42.719 -19.840 -33.695  0.00  0.00    +0.003 A 
ATOM     37  C   UNL     1      42.049 -20.952 -34.026  0.00  0.00    -0.050 A 
ATOM     38  C   UNL     1      40.610 -21.066 -33.818  0.00  0.00    -0.011 A 
ATOM     39  H   UNL     1      40.145 -18.166 -32.456  0.00  0.00    +0.000 HD
ENDBRANCH  25  28
ENDBRANCH  24  25
ENDBRANCH  23  24
ENDBRANCH  22  23
ENDBRANCH  21  22
ENDBRANCH   1  21
TORSDOF 13
ENDMDL
