MODEL 1
REMARK VINA RESULT:    -7.643      0.000      0.000
REMARK INTER + INTRA:         -16.346
REMARK INTER:                 -14.345
REMARK INTRA:                  -2.001
REMARK UNBOUND:                -2.001
REMARK  Name = cpd284.pdb
REMARK  22 active torsions:
REMARK  status: ('A' for Active; 'I' for Inactive)
REMARK    1  A    between atoms: C_2  and  C_3
REMARK    2  A    between atoms: C_2  and  C_4
REMARK    3  A    between atoms: C_7  and  C_8
REMARK    4  A    between atoms: C_14  and  C_15
REMARK    5  A    between atoms: C_18  and  O_19
REMARK    6  A    between atoms: O_19  and  C_20
REMARK    7  A    between atoms: C_20  and  C_22
REMARK    8  A    between atoms: C_22  and  C_23
REMARK    9  A    between atoms: C_23  and  C_24
REMARK   10  A    between atoms: C_24  and  C_25
REMARK   11  A    between atoms: C_25  and  C_26
REMARK   12  A    between atoms: C_29  and  C_30
REMARK   13  A    between atoms: C_29  and  C_31
REMARK   14  A    between atoms: C_35  and  C_36
REMARK   15  A    between atoms: C_37  and  C_38
REMARK   16  A    between atoms: C_40  and  O_41
REMARK   17  A    between atoms: O_41  and  C_42
REMARK   18  A    between atoms: C_42  and  C_44
REMARK   19  A    between atoms: C_44  and  C_45
REMARK   20  A    between atoms: C_45  and  C_46
REMARK   21  A    between atoms: C_46  and  C_47
REMARK   22  A    between atoms: C_47  and  C_48
REMARK                            x       y       z     vdW  Elec       q    Type
REMARK                         _______ _______ _______ _____ _____    ______ ____
ROOT
ATOM      1  C   UNL A   1      35.013 -39.996 -28.802  0.00  0.00    -0.017 C 
ATOM      2  C   UNL A   1      36.007 -40.459 -29.869  0.00  0.00    -0.046 C 
ATOM      3  C   UNL A   1      37.244 -39.624 -29.571  0.00  0.00    -0.043 C 
ATOM      4  C   UNL A   1      36.718 -38.267 -29.016  0.00  0.00    +0.009 C 
ATOM      5  C   UNL A   1      37.333 -38.057 -27.615  0.00  0.00    -0.056 C 
ATOM      6  C   UNL A   1      35.149 -38.435 -28.866  0.00  0.00    -0.022 C 
ATOM      7  C   UNL A   1      34.313 -37.679 -29.976  0.00  0.00    -0.031 C 
ATOM      8  C   UNL A   1      32.784 -37.808 -29.746  0.00  0.00    -0.049 C 
ATOM      9  C   UNL A   1      31.849 -36.702 -30.246  0.00  0.00    -0.049 C 
ATOM     10  C   UNL A   1      32.356 -35.246 -30.159  0.00  0.00    -0.029 C 
ATOM     11  C   UNL A   1      31.271 -34.159 -29.759  0.00  0.00    -0.025 C 
ATOM     12  C   UNL A   1      30.786 -34.366 -28.306  0.00  0.00    -0.059 C 
ATOM     13  C   UNL A   1      30.038 -34.299 -30.704  0.00  0.00    -0.044 C 
ATOM     14  C   UNL A   1      29.061 -33.125 -30.637  0.00  0.00    -0.015 C 
ATOM     15  C   UNL A   1      29.749 -31.787 -30.909  0.00  0.00    +0.108 C 
ATOM     16  C   UNL A   1      30.954 -31.513 -29.956  0.00  0.00    +0.005 C 
ATOM     17  C   UNL A   1      30.486 -31.164 -28.528  0.00  0.00    -0.056 C 
ATOM     18  C   UNL A   1      31.677 -30.244 -30.490  0.00  0.00    -0.056 C 
ATOM     19  C   UNL A   1      31.924 -32.748 -30.025  0.00  0.00    -0.027 C 
ATOM     20  C   UNL A   1      33.244 -32.582 -29.249  0.00  0.00    -0.049 C 
ATOM     21  C   UNL A   1      34.265 -33.664 -29.630  0.00  0.00    -0.047 C 
ATOM     22  C   UNL A   1      33.758 -35.130 -29.477  0.00  0.00    -0.023 C 
ATOM     23  C   UNL A   1      33.702 -35.419 -27.947  0.00  0.00    -0.059 C 
ATOM     24  C   UNL A   1      34.745 -36.174 -30.219  0.00  0.00    -0.020 C 
ATOM     25  C   UNL A   1      34.719 -35.980 -31.781  0.00  0.00    -0.059 C 
ATOM     26  C   UNL A   1      36.220 -35.908 -29.810  0.00  0.00    -0.009 C 
ATOM     27  C   UNL A   1      37.098 -37.139 -29.997  0.00  0.00    +0.109 C 
ENDROOT
BRANCH   1  29
ATOM     28  C   UNL A   1      32.775 -40.608 -27.788  0.00  0.00    -0.099 C 
ATOM     29  C   UNL A   1      33.650 -40.655 -28.809  0.00  0.00    -0.076 C 
ATOM     30  C   UNL A   1      33.264 -41.321 -30.106  0.00  0.00    -0.044 C 
ENDBRANCH   1  29
BRANCH  15  31
ATOM     31  O   UNL A   1      28.780 -30.726 -30.777  0.00  0.00    -0.461 OA
BRANCH  31  32
ATOM     32  C   UNL A   1      28.396 -30.105 -31.926  0.00  0.00    +0.307 C 
ATOM     33  O   UNL A   1      29.034 -29.240 -32.512  0.00  0.00    -0.251 OA
BRANCH  32  34
ATOM     34  C   UNL A   1      27.056 -30.622 -32.379  0.00  0.00    +0.045 C 
BRANCH  34  35
ATOM     35  C   UNL A   1      27.086 -31.014 -33.850  0.00  0.00    -0.042 C 
BRANCH  35  36
ATOM     36  C   UNL A   1      27.739 -32.383 -34.040  0.00  0.00    -0.042 C 
BRANCH  36  37
ATOM     37  C   UNL A   1      26.817 -33.510 -33.586  0.00  0.00    +0.049 C 
BRANCH  37  38
ATOM     38  C   UNL A   1      25.821 -34.001 -34.643  0.00  0.00    +0.356 C 
ATOM     39  O   UNL A   1      26.170 -35.069 -35.224  0.00  0.00    -0.246 OA
ATOM     40  O   UNL A   1      24.787 -33.300 -34.814  0.00  0.00    -0.246 OA
ENDBRANCH  37  38
ENDBRANCH  36  37
ENDBRANCH  35  36
ENDBRANCH  34  35
ENDBRANCH  32  34
ENDBRANCH  31  32
ENDBRANCH  15  31
BRANCH  27  41
ATOM     41  O   UNL A   1      38.516 -36.849 -30.072  0.00  0.00    -0.461 OA
BRANCH  41  42
ATOM     42  C   UNL A   1      39.095 -36.348 -31.198  0.00  0.00    +0.307 C 
ATOM     43  O   UNL A   1      38.510 -36.049 -32.229  0.00  0.00    -0.251 OA
BRANCH  42  44
ATOM     44  C   UNL A   1      40.586 -36.229 -30.985  0.00  0.00    +0.045 C 
BRANCH  44  45
ATOM     45  C   UNL A   1      41.346 -36.399 -32.302  0.00  0.00    -0.042 C 
BRANCH  45  46
ATOM     46  C   UNL A   1      42.300 -37.596 -32.302  0.00  0.00    -0.042 C 
BRANCH  46  47
ATOM     47  C   UNL A   1      42.215 -38.444 -31.038  0.00  0.00    +0.049 C 
BRANCH  47  48
ATOM     48  C   UNL A   1      43.499 -38.489 -30.203  0.00  0.00    +0.356 C 
ATOM     49  O   UNL A   1      43.470 -39.332 -29.259  0.00  0.00    -0.246 OA
ATOM     50  O   UNL A   1      44.427 -37.708 -30.546  0.00  0.00    -0.246 OA
ENDBRANCH  47  48
ENDBRANCH  46  47
ENDBRANCH  45  46
ENDBRANCH  44  45
ENDBRANCH  42  44
ENDBRANCH  41  42
ENDBRANCH  27  41
TORSDOF 15
ENDMDL
MODEL 2
REMARK VINA RESULT:    -7.384      2.505      4.460
REMARK INTER + INTRA:         -15.859
REMARK INTER:                 -13.463
REMARK INTRA:                  -2.396
REMARK UNBOUND:                -2.001
REMARK  Name = cpd284.pdb
REMARK  22 active torsions:
REMARK  status: ('A' for Active; 'I' for Inactive)
REMARK    1  A    between atoms: C_2  and  C_3
REMARK    2  A    between atoms: C_2  and  C_4
REMARK    3  A    between atoms: C_7  and  C_8
REMARK    4  A    between atoms: C_14  and  C_15
REMARK    5  A    between atoms: C_18  and  O_19
REMARK    6  A    between atoms: O_19  and  C_20
REMARK    7  A    between atoms: C_20  and  C_22
REMARK    8  A    between atoms: C_22  and  C_23
REMARK    9  A    between atoms: C_23  and  C_24
REMARK   10  A    between atoms: C_24  and  C_25
REMARK   11  A    between atoms: C_25  and  C_26
REMARK   12  A    between atoms: C_29  and  C_30
REMARK   13  A    between atoms: C_29  and  C_31
REMARK   14  A    between atoms: C_35  and  C_36
REMARK   15  A    between atoms: C_37  and  C_38
REMARK   16  A    between atoms: C_40  and  O_41
REMARK   17  A    between atoms: O_41  and  C_42
REMARK   18  A    between atoms: C_42  and  C_44
REMARK   19  A    between atoms: C_44  and  C_45
REMARK   20  A    between atoms: C_45  and  C_46
REMARK   21  A    between atoms: C_46  and  C_47
REMARK   22  A    between atoms: C_47  and  C_48
REMARK                            x       y       z     vdW  Elec       q    Type
REMARK                         _______ _______ _______ _____ _____    ______ ____
ROOT
ATOM      1  C   UNL A   1      33.356 -40.386 -30.672  0.00  0.00    -0.017 C 
ATOM      2  C   UNL A   1      34.812 -40.507 -31.127  0.00  0.00    -0.046 C 
ATOM      3  C   UNL A   1      35.597 -40.176 -29.866  0.00  0.00    -0.043 C 
ATOM      4  C   UNL A   1      34.729 -39.145 -29.084  0.00  0.00    +0.009 C 
ATOM      5  C   UNL A   1      34.446 -39.728 -27.683  0.00  0.00    -0.056 C 
ATOM      6  C   UNL A   1      33.361 -39.033 -29.878  0.00  0.00    -0.022 C 
ATOM      7  C   UNL A   1      33.211 -37.700 -30.716  0.00  0.00    -0.031 C 
ATOM      8  C   UNL A   1      31.829 -37.600 -31.414  0.00  0.00    -0.049 C 
ATOM      9  C   UNL A   1      31.229 -36.221 -31.706  0.00  0.00    -0.049 C 
ATOM     10  C   UNL A   1      31.467 -35.104 -30.666  0.00  0.00    -0.029 C 
ATOM     11  C   UNL A   1      30.247 -34.121 -30.416  0.00  0.00    -0.025 C 
ATOM     12  C   UNL A   1      29.062 -34.861 -29.755  0.00  0.00    -0.059 C 
ATOM     13  C   UNL A   1      29.760 -33.557 -31.786  0.00  0.00    -0.044 C 
ATOM     14  C   UNL A   1      28.805 -32.368 -31.670  0.00  0.00    -0.015 C 
ATOM     15  C   UNL A   1      29.402 -31.228 -30.845  0.00  0.00    +0.108 C 
ATOM     16  C   UNL A   1      29.849 -31.674 -29.418  0.00  0.00    +0.005 C 
ATOM     17  C   UNL A   1      28.642 -31.925 -28.492  0.00  0.00    -0.056 C 
ATOM     18  C   UNL A   1      30.627 -30.482 -28.791  0.00  0.00    -0.056 C 
ATOM     19  C   UNL A   1      30.805 -32.913 -29.569  0.00  0.00    -0.027 C 
ATOM     20  C   UNL A   1      31.456 -33.396 -28.259  0.00  0.00    -0.049 C 
ATOM     21  C   UNL A   1      32.611 -34.371 -28.526  0.00  0.00    -0.047 C 
ATOM     22  C   UNL A   1      32.242 -35.605 -29.404  0.00  0.00    -0.023 C 
ATOM     23  C   UNL A   1      31.377 -36.540 -28.506  0.00  0.00    -0.059 C 
ATOM     24  C   UNL A   1      33.565 -36.376 -29.922  0.00  0.00    -0.020 C 
ATOM     25  C   UNL A   1      34.388 -35.491 -30.931  0.00  0.00    -0.059 C 
ATOM     26  C   UNL A   1      34.537 -36.637 -28.739  0.00  0.00    -0.009 C 
ATOM     27  C   UNL A   1      35.482 -37.799 -29.018  0.00  0.00    +0.109 C 
ENDROOT
BRANCH   1  29
ATOM     28  C   UNL A   1      31.006 -40.948 -31.425  0.00  0.00    -0.099 C 
ATOM     29  C   UNL A   1      32.291 -40.671 -31.709  0.00  0.00    -0.076 C 
ATOM     30  C   UNL A   1      32.738 -40.535 -33.144  0.00  0.00    -0.044 C 
ENDBRANCH   1  29
BRANCH  15  31
ATOM     31  O   UNL A   1      28.429 -30.169 -30.734  0.00  0.00    -0.461 OA
BRANCH  31  32
ATOM     32  C   UNL A   1      28.702 -29.018 -31.409  0.00  0.00    +0.307 C 
ATOM     33  O   UNL A   1      29.264 -28.948 -32.494  0.00  0.00    -0.251 OA
BRANCH  32  34
ATOM     34  C   UNL A   1      28.225 -27.824 -30.624  0.00  0.00    +0.045 C 
BRANCH  34  35
ATOM     35  C   UNL A   1      27.540 -28.253 -29.334  0.00  0.00    -0.042 C 
BRANCH  35  36
ATOM     36  C   UNL A   1      28.235 -27.648 -28.115  0.00  0.00    -0.042 C 
BRANCH  36  37
ATOM     37  C   UNL A   1      27.315 -27.624 -26.899  0.00  0.00    +0.049 C 
BRANCH  37  38
ATOM     38  C   UNL A   1      27.271 -26.291 -26.143  0.00  0.00    +0.356 C 
ATOM     39  O   UNL A   1      26.102 -25.863 -25.920  0.00  0.00    -0.246 OA
ATOM     40  O   UNL A   1      28.382 -25.778 -25.835  0.00  0.00    -0.246 OA
ENDBRANCH  37  38
ENDBRANCH  36  37
ENDBRANCH  35  36
ENDBRANCH  34  35
ENDBRANCH  32  34
ENDBRANCH  31  32
ENDBRANCH  15  31
BRANCH  27  41
ATOM     41  O   UNL A   1      36.672 -37.808 -28.191  0.00  0.00    -0.461 OA
BRANCH  41  42
ATOM     42  C   UNL A   1      37.919 -37.952 -28.717  0.00  0.00    +0.307 C 
ATOM     43  O   UNL A   1      38.836 -38.588 -28.217  0.00  0.00    -0.251 OA
BRANCH  42  44
ATOM     44  C   UNL A   1      38.006 -37.189 -30.018  0.00  0.00    +0.045 C 
BRANCH  44  45
ATOM     45  C   UNL A   1      39.409 -36.617 -30.230  0.00  0.00    -0.042 C 
BRANCH  45  46
ATOM     46  C   UNL A   1      39.832 -36.574 -31.700  0.00  0.00    -0.042 C 
BRANCH  46  47
ATOM     47  C   UNL A   1      39.085 -35.527 -32.519  0.00  0.00    +0.049 C 
BRANCH  47  48
ATOM     48  C   UNL A   1      39.267 -34.082 -32.041  0.00  0.00    +0.356 C 
ATOM     49  O   UNL A   1      38.182 -33.495 -31.756  0.00  0.00    -0.246 OA
ATOM     50  O   UNL A   1      40.449 -33.651 -31.974  0.00  0.00    -0.246 OA
ENDBRANCH  47  48
ENDBRANCH  46  47
ENDBRANCH  45  46
ENDBRANCH  44  45
ENDBRANCH  42  44
ENDBRANCH  41  42
ENDBRANCH  27  41
TORSDOF 15
ENDMDL
MODEL 3
REMARK VINA RESULT:    -7.170      1.737      2.251
REMARK INTER + INTRA:         -15.459
REMARK INTER:                 -13.926
REMARK INTRA:                  -1.533
REMARK UNBOUND:                -2.001
REMARK  Name = cpd284.pdb
REMARK  22 active torsions:
REMARK  status: ('A' for Active; 'I' for Inactive)
REMARK    1  A    between atoms: C_2  and  C_3
REMARK    2  A    between atoms: C_2  and  C_4
REMARK    3  A    between atoms: C_7  and  C_8
REMARK    4  A    between atoms: C_14  and  C_15
REMARK    5  A    between atoms: C_18  and  O_19
REMARK    6  A    between atoms: O_19  and  C_20
REMARK    7  A    between atoms: C_20  and  C_22
REMARK    8  A    between atoms: C_22  and  C_23
REMARK    9  A    between atoms: C_23  and  C_24
REMARK   10  A    between atoms: C_24  and  C_25
REMARK   11  A    between atoms: C_25  and  C_26
REMARK   12  A    between atoms: C_29  and  C_30
REMARK   13  A    between atoms: C_29  and  C_31
REMARK   14  A    between atoms: C_35  and  C_36
REMARK   15  A    between atoms: C_37  and  C_38
REMARK   16  A    between atoms: C_40  and  O_41
REMARK   17  A    between atoms: O_41  and  C_42
REMARK   18  A    between atoms: C_42  and  C_44
REMARK   19  A    between atoms: C_44  and  C_45
REMARK   20  A    between atoms: C_45  and  C_46
REMARK   21  A    between atoms: C_46  and  C_47
REMARK   22  A    between atoms: C_47  and  C_48
REMARK                            x       y       z     vdW  Elec       q    Type
REMARK                         _______ _______ _______ _____ _____    ______ ____
ROOT
ATOM      1  C   UNL A   1      34.253 -39.816 -29.292  0.00  0.00    -0.017 C 
ATOM      2  C   UNL A   1      35.411 -40.174 -30.226  0.00  0.00    -0.046 C 
ATOM      3  C   UNL A   1      36.562 -39.341 -29.683  0.00  0.00    -0.043 C 
ATOM      4  C   UNL A   1      35.916 -38.042 -29.115  0.00  0.00    +0.009 C 
ATOM      5  C   UNL A   1      36.306 -37.930 -27.626  0.00  0.00    -0.056 C 
ATOM      6  C   UNL A   1      34.348 -38.253 -29.219  0.00  0.00    -0.022 C 
ATOM      7  C   UNL A   1      33.664 -37.429 -30.384  0.00  0.00    -0.031 C 
ATOM      8  C   UNL A   1      32.123 -37.606 -30.400  0.00  0.00    -0.049 C 
ATOM      9  C   UNL A   1      31.240 -36.483 -30.954  0.00  0.00    -0.049 C 
ATOM     10  C   UNL A   1      31.681 -35.028 -30.683  0.00  0.00    -0.029 C 
ATOM     11  C   UNL A   1      30.515 -33.998 -30.374  0.00  0.00    -0.025 C 
ATOM     12  C   UNL A   1      29.824 -34.328 -29.031  0.00  0.00    -0.059 C 
ATOM     13  C   UNL A   1      29.443 -34.089 -31.503  0.00  0.00    -0.044 C 
ATOM     14  C   UNL A   1      28.431 -32.943 -31.499  0.00  0.00    -0.015 C 
ATOM     15  C   UNL A   1      29.109 -31.574 -31.563  0.00  0.00    +0.108 C 
ATOM     16  C   UNL A   1      30.148 -31.352 -30.420  0.00  0.00    +0.005 C 
ATOM     17  C   UNL A   1      29.460 -31.125 -29.058  0.00  0.00    -0.056 C 
ATOM     18  C   UNL A   1      30.902 -30.031 -30.742  0.00  0.00    -0.056 C 
ATOM     19  C   UNL A   1      31.156 -32.558 -30.432  0.00  0.00    -0.027 C 
ATOM     20  C   UNL A   1      32.338 -32.427 -29.454  0.00  0.00    -0.049 C 
ATOM     21  C   UNL A   1      33.438 -33.454 -29.753  0.00  0.00    -0.047 C 
ATOM     22  C   UNL A   1      32.961 -34.939 -29.789  0.00  0.00    -0.023 C 
ATOM     23  C   UNL A   1      32.684 -35.347 -28.311  0.00  0.00    -0.059 C 
ATOM     24  C   UNL A   1      34.080 -35.901 -30.446  0.00  0.00    -0.020 C 
ATOM     25  C   UNL A   1      34.284 -35.587 -31.976  0.00  0.00    -0.059 C 
ATOM     26  C   UNL A   1      35.468 -35.639 -29.799  0.00  0.00    -0.009 C 
ATOM     27  C   UNL A   1      36.403 -36.833 -29.941  0.00  0.00    +0.109 C 
ENDROOT
BRANCH   1  29
ATOM     28  C   UNL A   1      31.911 -40.555 -28.677  0.00  0.00    -0.099 C 
ATOM     29  C   UNL A   1      32.928 -40.500 -29.556  0.00  0.00    -0.076 C 
ATOM     30  C   UNL A   1      32.759 -41.063 -30.945  0.00  0.00    -0.044 C 
ENDBRANCH   1  29
BRANCH  15  31
ATOM     31  O   UNL A   1      28.099 -30.547 -31.502  0.00  0.00    -0.461 OA
BRANCH  31  32
ATOM     32  C   UNL A   1      27.194 -30.521 -32.519  0.00  0.00    +0.307 C 
ATOM     33  O   UNL A   1      25.979 -30.598 -32.390  0.00  0.00    -0.251 OA
BRANCH  32  34
ATOM     34  C   UNL A   1      27.899 -30.395 -33.845  0.00  0.00    +0.045 C 
BRANCH  34  35
ATOM     35  C   UNL A   1      27.268 -29.306 -34.701  0.00  0.00    -0.042 C 
BRANCH  35  36
ATOM     36  C   UNL A   1      28.098 -28.023 -34.657  0.00  0.00    -0.042 C 
BRANCH  36  37
ATOM     37  C   UNL A   1      28.359 -27.476 -36.056  0.00  0.00    +0.049 C 
BRANCH  37  38
ATOM     38  C   UNL A   1      28.143 -28.477 -37.196  0.00  0.00    +0.356 C 
ATOM     39  O   UNL A   1      27.054 -28.321 -37.821  0.00  0.00    -0.246 OA
ATOM     40  O   UNL A   1      29.054 -29.330 -37.381  0.00  0.00    -0.246 OA
ENDBRANCH  37  38
ENDBRANCH  36  37
ENDBRANCH  35  36
ENDBRANCH  34  35
ENDBRANCH  32  34
ENDBRANCH  31  32
ENDBRANCH  15  31
BRANCH  27  41
ATOM     41  O   UNL A   1      37.806 -36.510 -29.778  0.00  0.00    -0.461 OA
BRANCH  41  42
ATOM     42  C   UNL A   1      38.609 -36.210 -30.836  0.00  0.00    +0.307 C 
ATOM     43  O   UNL A   1      38.253 -35.662 -31.869  0.00  0.00    -0.251 OA
BRANCH  42  44
ATOM     44  C   UNL A   1      40.017 -36.674 -30.545  0.00  0.00    +0.045 C 
BRANCH  44  45
ATOM     45  C   UNL A   1      41.044 -35.830 -31.303  0.00  0.00    -0.042 C 
BRANCH  45  46
ATOM     46  C   UNL A   1      42.037 -36.666 -32.114  0.00  0.00    -0.042 C 
BRANCH  46  47
ATOM     47  C   UNL A   1      42.271 -38.060 -31.542  0.00  0.00    +0.049 C 
BRANCH  47  48
ATOM     48  C   UNL A   1      43.448 -38.168 -30.566  0.00  0.00    +0.356 C 
ATOM     49  O   UNL A   1      43.394 -39.179 -29.806  0.00  0.00    -0.246 OA
ATOM     50  O   UNL A   1      44.326 -37.266 -30.633  0.00  0.00    -0.246 OA
ENDBRANCH  47  48
ENDBRANCH  46  47
ENDBRANCH  45  46
ENDBRANCH  44  45
ENDBRANCH  42  44
ENDBRANCH  41  42
ENDBRANCH  27  41
TORSDOF 15
ENDMDL
MODEL 4
REMARK VINA RESULT:    -7.158      1.625      2.171
REMARK INTER + INTRA:         -15.436
REMARK INTER:                 -13.316
REMARK INTRA:                  -2.120
REMARK UNBOUND:                -2.001
REMARK  Name = cpd284.pdb
REMARK  22 active torsions:
REMARK  status: ('A' for Active; 'I' for Inactive)
REMARK    1  A    between atoms: C_2  and  C_3
REMARK    2  A    between atoms: C_2  and  C_4
REMARK    3  A    between atoms: C_7  and  C_8
REMARK    4  A    between atoms: C_14  and  C_15
REMARK    5  A    between atoms: C_18  and  O_19
REMARK    6  A    between atoms: O_19  and  C_20
REMARK    7  A    between atoms: C_20  and  C_22
REMARK    8  A    between atoms: C_22  and  C_23
REMARK    9  A    between atoms: C_23  and  C_24
REMARK   10  A    between atoms: C_24  and  C_25
REMARK   11  A    between atoms: C_25  and  C_26
REMARK   12  A    between atoms: C_29  and  C_30
REMARK   13  A    between atoms: C_29  and  C_31
REMARK   14  A    between atoms: C_35  and  C_36
REMARK   15  A    between atoms: C_37  and  C_38
REMARK   16  A    between atoms: C_40  and  O_41
REMARK   17  A    between atoms: O_41  and  C_42
REMARK   18  A    between atoms: C_42  and  C_44
REMARK   19  A    between atoms: C_44  and  C_45
REMARK   20  A    between atoms: C_45  and  C_46
REMARK   21  A    between atoms: C_46  and  C_47
REMARK   22  A    between atoms: C_47  and  C_48
REMARK                            x       y       z     vdW  Elec       q    Type
REMARK                         _______ _______ _______ _____ _____    ______ ____
ROOT
ATOM      1  C   UNL A   1      34.188 -40.138 -31.157  0.00  0.00    -0.017 C 
ATOM      2  C   UNL A   1      35.651 -40.194 -31.601  0.00  0.00    -0.046 C 
ATOM      3  C   UNL A   1      36.411 -39.858 -30.327  0.00  0.00    -0.043 C 
ATOM      4  C   UNL A   1      35.498 -38.877 -29.533  0.00  0.00    +0.009 C 
ATOM      5  C   UNL A   1      35.226 -39.499 -28.146  0.00  0.00    -0.056 C 
ATOM      6  C   UNL A   1      34.134 -38.802 -30.337  0.00  0.00    -0.022 C 
ATOM      7  C   UNL A   1      33.939 -37.459 -31.150  0.00  0.00    -0.031 C 
ATOM      8  C   UNL A   1      32.560 -37.398 -31.858  0.00  0.00    -0.049 C 
ATOM      9  C   UNL A   1      31.909 -36.038 -32.127  0.00  0.00    -0.049 C 
ATOM     10  C   UNL A   1      32.095 -34.934 -31.063  0.00  0.00    -0.029 C 
ATOM     11  C   UNL A   1      30.836 -34.004 -30.806  0.00  0.00    -0.025 C 
ATOM     12  C   UNL A   1      29.675 -34.802 -30.170  0.00  0.00    -0.059 C 
ATOM     13  C   UNL A   1      30.339 -33.431 -32.168  0.00  0.00    -0.044 C 
ATOM     14  C   UNL A   1      29.338 -32.283 -32.038  0.00  0.00    -0.015 C 
ATOM     15  C   UNL A   1      29.884 -31.137 -31.184  0.00  0.00    +0.108 C 
ATOM     16  C   UNL A   1      30.336 -31.595 -29.763  0.00  0.00    +0.005 C 
ATOM     17  C   UNL A   1      29.131 -31.911 -28.853  0.00  0.00    -0.056 C 
ATOM     18  C   UNL A   1      31.061 -30.387 -29.105  0.00  0.00    -0.056 C 
ATOM     19  C   UNL A   1      31.340 -32.792 -29.929  0.00  0.00    -0.027 C 
ATOM     20  C   UNL A   1      31.998 -33.276 -28.624  0.00  0.00    -0.049 C 
ATOM     21  C   UNL A   1      33.192 -34.200 -28.899  0.00  0.00    -0.047 C 
ATOM     22  C   UNL A   1      32.879 -35.430 -29.804  0.00  0.00    -0.023 C 
ATOM     23  C   UNL A   1      32.043 -36.415 -28.933  0.00  0.00    -0.059 C 
ATOM     24  C   UNL A   1      34.235 -36.139 -30.326  0.00  0.00    -0.020 C 
ATOM     25  C   UNL A   1      35.032 -35.203 -31.310  0.00  0.00    -0.059 C 
ATOM     26  C   UNL A   1      35.206 -36.386 -29.139  0.00  0.00    -0.009 C 
ATOM     27  C   UNL A   1      36.198 -37.505 -29.433  0.00  0.00    +0.109 C 
ENDROOT
BRANCH   1  29
ATOM     28  C   UNL A   1      33.355 -40.373 -33.536  0.00  0.00    -0.099 C 
ATOM     29  C   UNL A   1      33.143 -40.443 -32.209  0.00  0.00    -0.076 C 
ATOM     30  C   UNL A   1      31.821 -40.940 -31.679  0.00  0.00    -0.044 C 
ENDBRANCH   1  29
BRANCH  15  31
ATOM     31  O   UNL A   1      28.869 -30.119 -31.062  0.00  0.00    -0.461 OA
BRANCH  31  32
ATOM     32  C   UNL A   1      28.354 -29.630 -32.223  0.00  0.00    +0.307 C 
ATOM     33  O   UNL A   1      28.998 -29.372 -33.232  0.00  0.00    -0.251 OA
BRANCH  32  34
ATOM     34  C   UNL A   1      26.866 -29.434 -32.095  0.00  0.00    +0.045 C 
BRANCH  34  35
ATOM     35  C   UNL A   1      26.175 -30.724 -31.674  0.00  0.00    -0.042 C 
BRANCH  35  36
ATOM     36  C   UNL A   1      25.498 -31.399 -32.866  0.00  0.00    -0.042 C 
BRANCH  36  37
ATOM     37  C   UNL A   1      25.613 -30.552 -34.130  0.00  0.00    +0.049 C 
BRANCH  37  38
ATOM     38  C   UNL A   1      26.440 -31.178 -35.258  0.00  0.00    +0.356 C 
ATOM     39  O   UNL A   1      27.266 -32.054 -34.869  0.00  0.00    -0.246 OA
ATOM     40  O   UNL A   1      26.212 -30.759 -36.426  0.00  0.00    -0.246 OA
ENDBRANCH  37  38
ENDBRANCH  36  37
ENDBRANCH  35  36
ENDBRANCH  34  35
ENDBRANCH  32  34
ENDBRANCH  31  32
ENDBRANCH  15  31
BRANCH  27  41
ATOM     41  O   UNL A   1      37.380 -37.485 -28.595  0.00  0.00    -0.461 OA
BRANCH  41  42
ATOM     42  C   UNL A   1      38.637 -37.557 -29.114  0.00  0.00    +0.307 C 
ATOM     43  O   UNL A   1      39.606 -38.063 -28.568  0.00  0.00    -0.251 OA
BRANCH  42  44
ATOM     44  C   UNL A   1      38.657 -36.898 -30.473  0.00  0.00    +0.045 C 
BRANCH  44  45
ATOM     45  C   UNL A   1      40.033 -36.300 -30.776  0.00  0.00    -0.042 C 
BRANCH  45  46
ATOM     46  C   UNL A   1      40.484 -36.515 -32.223  0.00  0.00    -0.042 C 
BRANCH  46  47
ATOM     47  C   UNL A   1      41.980 -36.772 -32.364  0.00  0.00    +0.049 C 
BRANCH  47  48
ATOM     48  C   UNL A   1      42.619 -37.522 -31.190  0.00  0.00    +0.356 C 
ATOM     49  O   UNL A   1      43.403 -36.814 -30.493  0.00  0.00    -0.246 OA
ATOM     50  O   UNL A   1      42.294 -38.732 -31.045  0.00  0.00    -0.246 OA
ENDBRANCH  47  48
ENDBRANCH  46  47
ENDBRANCH  45  46
ENDBRANCH  44  45
ENDBRANCH  42  44
ENDBRANCH  41  42
ENDBRANCH  27  41
TORSDOF 15
ENDMDL
MODEL 5
REMARK VINA RESULT:    -7.087      1.723      2.090
REMARK INTER + INTRA:         -15.302
REMARK INTER:                 -12.838
REMARK INTRA:                  -2.464
REMARK UNBOUND:                -2.001
REMARK  Name = cpd284.pdb
REMARK  22 active torsions:
REMARK  status: ('A' for Active; 'I' for Inactive)
REMARK    1  A    between atoms: C_2  and  C_3
REMARK    2  A    between atoms: C_2  and  C_4
REMARK    3  A    between atoms: C_7  and  C_8
REMARK    4  A    between atoms: C_14  and  C_15
REMARK    5  A    between atoms: C_18  and  O_19
REMARK    6  A    between atoms: O_19  and  C_20
REMARK    7  A    between atoms: C_20  and  C_22
REMARK    8  A    between atoms: C_22  and  C_23
REMARK    9  A    between atoms: C_23  and  C_24
REMARK   10  A    between atoms: C_24  and  C_25
REMARK   11  A    between atoms: C_25  and  C_26
REMARK   12  A    between atoms: C_29  and  C_30
REMARK   13  A    between atoms: C_29  and  C_31
REMARK   14  A    between atoms: C_35  and  C_36
REMARK   15  A    between atoms: C_37  and  C_38
REMARK   16  A    between atoms: C_40  and  O_41
REMARK   17  A    between atoms: O_41  and  C_42
REMARK   18  A    between atoms: C_42  and  C_44
REMARK   19  A    between atoms: C_44  and  C_45
REMARK   20  A    between atoms: C_45  and  C_46
REMARK   21  A    between atoms: C_46  and  C_47
REMARK   22  A    between atoms: C_47  and  C_48
REMARK                            x       y       z     vdW  Elec       q    Type
REMARK                         _______ _______ _______ _____ _____    ______ ____
ROOT
ATOM      1  C   UNL A   1      34.576 -40.334 -27.940  0.00  0.00    -0.017 C 
ATOM      2  C   UNL A   1      35.171 -41.141 -29.095  0.00  0.00    -0.046 C 
ATOM      3  C   UNL A   1      36.458 -40.393 -29.411  0.00  0.00    -0.043 C 
ATOM      4  C   UNL A   1      36.166 -38.895 -29.101  0.00  0.00    +0.009 C 
ATOM      5  C   UNL A   1      37.196 -38.418 -28.055  0.00  0.00    -0.056 C 
ATOM      6  C   UNL A   1      34.721 -38.857 -28.449  0.00  0.00    -0.022 C 
ATOM      7  C   UNL A   1      33.594 -38.309 -29.415  0.00  0.00    -0.031 C 
ATOM      8  C   UNL A   1      32.214 -38.219 -28.713  0.00  0.00    -0.049 C 
ATOM      9  C   UNL A   1      31.195 -37.176 -29.183  0.00  0.00    -0.049 C 
ATOM     10  C   UNL A   1      31.736 -35.803 -29.636  0.00  0.00    -0.029 C 
ATOM     11  C   UNL A   1      30.859 -34.545 -29.230  0.00  0.00    -0.025 C 
ATOM     12  C   UNL A   1      30.853 -34.342 -27.698  0.00  0.00    -0.059 C 
ATOM     13  C   UNL A   1      29.388 -34.780 -29.691  0.00  0.00    -0.044 C 
ATOM     14  C   UNL A   1      28.509 -33.530 -29.646  0.00  0.00    -0.015 C 
ATOM     15  C   UNL A   1      29.107 -32.376 -30.452  0.00  0.00    +0.108 C 
ATOM     16  C   UNL A   1      30.557 -32.007 -30.010  0.00  0.00    +0.005 C 
ATOM     17  C   UNL A   1      30.573 -31.276 -28.652  0.00  0.00    -0.056 C 
ATOM     18  C   UNL A   1      31.104 -30.987 -31.049  0.00  0.00    -0.056 C 
ATOM     19  C   UNL A   1      31.427 -33.316 -30.040  0.00  0.00    -0.027 C 
ATOM     20  C   UNL A   1      32.928 -33.106 -29.767  0.00  0.00    -0.049 C 
ATOM     21  C   UNL A   1      33.751 -34.347 -30.137  0.00  0.00    -0.047 C 
ATOM     22  C   UNL A   1      33.285 -35.672 -29.461  0.00  0.00    -0.023 C 
ATOM     23  C   UNL A   1      33.708 -35.575 -27.965  0.00  0.00    -0.059 C 
ATOM     24  C   UNL A   1      33.962 -36.961 -30.162  0.00  0.00    -0.020 C 
ATOM     25  C   UNL A   1      33.449 -37.150 -31.639  0.00  0.00    -0.059 C 
ATOM     26  C   UNL A   1      35.496 -36.759 -30.298  0.00  0.00    -0.009 C 
ATOM     27  C   UNL A   1      36.242 -38.084 -30.411  0.00  0.00    +0.109 C 
ENDROOT
BRANCH   1  29
ATOM     28  C   UNL A   1      32.439 -41.691 -27.985  0.00  0.00    -0.099 C 
ATOM     29  C   UNL A   1      33.266 -40.829 -27.366  0.00  0.00    -0.076 C 
ATOM     30  C   UNL A   1      32.960 -40.362 -25.964  0.00  0.00    -0.044 C 
ENDBRANCH   1  29
BRANCH  15  31
ATOM     31  O   UNL A   1      28.255 -31.220 -30.319  0.00  0.00    -0.461 OA
BRANCH  31  32
ATOM     32  C   UNL A   1      27.225 -31.118 -31.204  0.00  0.00    +0.307 C 
ATOM     33  O   UNL A   1      26.066 -30.844 -30.916  0.00  0.00    -0.251 OA
BRANCH  32  34
ATOM     34  C   UNL A   1      27.704 -31.404 -32.603  0.00  0.00    +0.045 C 
BRANCH  34  35
ATOM     35  C   UNL A   1      27.095 -32.692 -33.139  0.00  0.00    -0.042 C 
BRANCH  35  36
ATOM     36  C   UNL A   1      28.154 -33.560 -33.817  0.00  0.00    -0.042 C 
BRANCH  36  37
ATOM     37  C   UNL A   1      28.215 -34.954 -33.200  0.00  0.00    +0.049 C 
BRANCH  37  38
ATOM     38  C   UNL A   1      27.776 -36.094 -34.126  0.00  0.00    +0.356 C 
ATOM     39  O   UNL A   1      27.882 -35.828 -35.358  0.00  0.00    -0.246 OA
ATOM     40  O   UNL A   1      27.364 -37.148 -33.569  0.00  0.00    -0.246 OA
ENDBRANCH  37  38
ENDBRANCH  36  37
ENDBRANCH  35  36
ENDBRANCH  34  35
ENDBRANCH  32  34
ENDBRANCH  31  32
ENDBRANCH  15  31
BRANCH  27  41
ATOM     41  O   UNL A   1      37.570 -37.970 -30.980  0.00  0.00    -0.461 OA
BRANCH  41  42
ATOM     42  C   UNL A   1      38.195 -36.770 -31.125  0.00  0.00    +0.307 C 
ATOM     43  O   UNL A   1      37.964 -35.945 -31.996  0.00  0.00    -0.251 OA
BRANCH  42  44
ATOM     44  C   UNL A   1      39.241 -36.615 -30.046  0.00  0.00    +0.045 C 
BRANCH  44  45
ATOM     45  C   UNL A   1      40.387 -37.611 -30.240  0.00  0.00    -0.042 C 
BRANCH  45  46
ATOM     46  C   UNL A   1      41.689 -36.955 -30.708  0.00  0.00    -0.042 C 
BRANCH  46  47
ATOM     47  C   UNL A   1      41.879 -36.987 -32.220  0.00  0.00    +0.049 C 
BRANCH  47  48
ATOM     48  C   UNL A   1      41.200 -35.842 -32.980  0.00  0.00    +0.356 C 
ATOM     49  O   UNL A   1      41.223 -34.734 -32.370  0.00  0.00    -0.246 OA
ATOM     50  O   UNL A   1      40.714 -36.121 -34.110  0.00  0.00    -0.246 OA
ENDBRANCH  47  48
ENDBRANCH  46  47
ENDBRANCH  45  46
ENDBRANCH  44  45
ENDBRANCH  42  44
ENDBRANCH  41  42
ENDBRANCH  27  41
TORSDOF 15
ENDMDL
MODEL 6
REMARK VINA RESULT:    -7.054      3.457      6.876
REMARK INTER + INTRA:         -15.240
REMARK INTER:                 -13.820
REMARK INTRA:                  -1.421
REMARK UNBOUND:                -2.001
REMARK  Name = cpd284.pdb
REMARK  22 active torsions:
REMARK  status: ('A' for Active; 'I' for Inactive)
REMARK    1  A    between atoms: C_2  and  C_3
REMARK    2  A    between atoms: C_2  and  C_4
REMARK    3  A    between atoms: C_7  and  C_8
REMARK    4  A    between atoms: C_14  and  C_15
REMARK    5  A    between atoms: C_18  and  O_19
REMARK    6  A    between atoms: O_19  and  C_20
REMARK    7  A    between atoms: C_20  and  C_22
REMARK    8  A    between atoms: C_22  and  C_23
REMARK    9  A    between atoms: C_23  and  C_24
REMARK   10  A    between atoms: C_24  and  C_25
REMARK   11  A    between atoms: C_25  and  C_26
REMARK   12  A    between atoms: C_29  and  C_30
REMARK   13  A    between atoms: C_29  and  C_31
REMARK   14  A    between atoms: C_35  and  C_36
REMARK   15  A    between atoms: C_37  and  C_38
REMARK   16  A    between atoms: C_40  and  O_41
REMARK   17  A    between atoms: O_41  and  C_42
REMARK   18  A    between atoms: C_42  and  C_44
REMARK   19  A    between atoms: C_44  and  C_45
REMARK   20  A    between atoms: C_45  and  C_46
REMARK   21  A    between atoms: C_46  and  C_47
REMARK   22  A    between atoms: C_47  and  C_48
REMARK                            x       y       z     vdW  Elec       q    Type
REMARK                         _______ _______ _______ _____ _____    ______ ____
ROOT
ATOM      1  C   UNL A   1      37.437 -38.228 -30.113  0.00  0.00    -0.017 C 
ATOM      2  C   UNL A   1      37.753 -38.979 -28.818  0.00  0.00    -0.046 C 
ATOM      3  C   UNL A   1      36.731 -40.106 -28.815  0.00  0.00    -0.043 C 
ATOM      4  C   UNL A   1      35.465 -39.534 -29.520  0.00  0.00    +0.009 C 
ATOM      5  C   UNL A   1      35.141 -40.444 -30.725  0.00  0.00    -0.056 C 
ATOM      6  C   UNL A   1      35.875 -38.099 -30.058  0.00  0.00    -0.022 C 
ATOM      7  C   UNL A   1      35.274 -36.902 -29.216  0.00  0.00    -0.031 C 
ATOM      8  C   UNL A   1      35.638 -35.521 -29.821  0.00  0.00    -0.049 C 
ATOM      9  C   UNL A   1      34.699 -34.330 -29.603  0.00  0.00    -0.049 C 
ATOM     10  C   UNL A   1      33.181 -34.610 -29.597  0.00  0.00    -0.029 C 
ATOM     11  C   UNL A   1      32.272 -33.507 -30.287  0.00  0.00    -0.025 C 
ATOM     12  C   UNL A   1      32.532 -33.445 -31.809  0.00  0.00    -0.059 C 
ATOM     13  C   UNL A   1      32.617 -32.112 -29.681  0.00  0.00    -0.044 C 
ATOM     14  C   UNL A   1      31.609 -31.014 -30.023  0.00  0.00    -0.015 C 
ATOM     15  C   UNL A   1      30.184 -31.394 -29.622  0.00  0.00    +0.108 C 
ATOM     16  C   UNL A   1      29.712 -32.744 -30.246  0.00  0.00    +0.005 C 
ATOM     17  C   UNL A   1      29.420 -32.606 -31.754  0.00  0.00    -0.056 C 
ATOM     18  C   UNL A   1      28.353 -33.102 -29.580  0.00  0.00    -0.056 C 
ATOM     19  C   UNL A   1      30.780 -33.844 -29.902  0.00  0.00    -0.027 C 
ATOM     20  C   UNL A   1      30.398 -35.276 -30.322  0.00  0.00    -0.049 C 
ATOM     21  C   UNL A   1      31.312 -36.322 -29.668  0.00  0.00    -0.047 C 
ATOM     22  C   UNL A   1      32.837 -36.104 -29.905  0.00  0.00    -0.023 C 
ATOM     23  C   UNL A   1      33.109 -36.483 -31.391  0.00  0.00    -0.059 C 
ATOM     24  C   UNL A   1      33.724 -37.020 -28.911  0.00  0.00    -0.020 C 
ATOM     25  C   UNL A   1      33.559 -36.569 -27.411  0.00  0.00    -0.059 C 
ATOM     26  C   UNL A   1      33.225 -38.490 -28.941  0.00  0.00    -0.009 C 
ATOM     27  C   UNL A   1      34.305 -39.472 -28.504  0.00  0.00    +0.109 C 
ENDROOT
BRANCH   1  29
ATOM     28  C   UNL A   1      37.908 -35.984 -31.186  0.00  0.00    -0.099 C 
ATOM     29  C   UNL A   1      38.301 -37.027 -30.434  0.00  0.00    -0.076 C 
ATOM     30  C   UNL A   1      39.653 -37.011 -29.766  0.00  0.00    -0.044 C 
ENDBRANCH   1  29
BRANCH  15  31
ATOM     31  O   UNL A   1      29.286 -30.339 -30.023  0.00  0.00    -0.461 OA
BRANCH  31  32
ATOM     32  C   UNL A   1      29.045 -29.363 -29.104  0.00  0.00    +0.307 C 
ATOM     33  O   UNL A   1      29.081 -28.158 -29.323  0.00  0.00    -0.251 OA
BRANCH  32  34
ATOM     34  C   UNL A   1      28.738 -29.971 -27.760  0.00  0.00    +0.045 C 
BRANCH  34  35
ATOM     35  C   UNL A   1      27.260 -30.313 -27.637  0.00  0.00    -0.042 C 
BRANCH  35  36
ATOM     36  C   UNL A   1      26.569 -29.404 -26.621  0.00  0.00    -0.042 C 
BRANCH  36  37
ATOM     37  C   UNL A   1      27.377 -29.287 -25.333  0.00  0.00    +0.049 C 
BRANCH  37  38
ATOM     38  C   UNL A   1      27.181 -27.978 -24.560  0.00  0.00    +0.356 C 
ATOM     39  O   UNL A   1      28.251 -27.339 -24.347  0.00  0.00    -0.246 OA
ATOM     40  O   UNL A   1      25.999 -27.690 -24.227  0.00  0.00    -0.246 OA
ENDBRANCH  37  38
ENDBRANCH  36  37
ENDBRANCH  35  36
ENDBRANCH  34  35
ENDBRANCH  32  34
ENDBRANCH  31  32
ENDBRANCH  15  31
BRANCH  27  41
ATOM     41  O   UNL A   1      33.798 -40.762 -28.081  0.00  0.00    -0.461 OA
BRANCH  41  42
ATOM     42  C   UNL A   1      34.127 -41.311 -26.880  0.00  0.00    +0.307 C 
ATOM     43  O   UNL A   1      35.116 -41.993 -26.653  0.00  0.00    -0.251 OA
BRANCH  42  44
ATOM     44  C   UNL A   1      33.068 -40.961 -25.860  0.00  0.00    +0.045 C 
BRANCH  44  45
ATOM     45  C   UNL A   1      33.409 -39.656 -25.138  0.00  0.00    -0.042 C 
BRANCH  45  46
ATOM     46  C   UNL A   1      32.183 -38.786 -24.846  0.00  0.00    -0.042 C 
BRANCH  46  47
ATOM     47  C   UNL A   1      32.306 -37.968 -23.566  0.00  0.00    +0.049 C 
BRANCH  47  48
ATOM     48  C   UNL A   1      32.575 -36.473 -23.777  0.00  0.00    +0.356 C 
ATOM     49  O   UNL A   1      31.709 -35.892 -24.495  0.00  0.00    -0.246 OA
ATOM     50  O   UNL A   1      33.599 -35.996 -23.217  0.00  0.00    -0.246 OA
ENDBRANCH  47  48
ENDBRANCH  46  47
ENDBRANCH  45  46
ENDBRANCH  44  45
ENDBRANCH  42  44
ENDBRANCH  41  42
ENDBRANCH  27  41
TORSDOF 15
ENDMDL
MODEL 7
REMARK VINA RESULT:    -7.004      4.833      8.102
REMARK INTER + INTRA:         -15.148
REMARK INTER:                 -10.865
REMARK INTRA:                  -4.283
REMARK UNBOUND:                -2.001
REMARK  Name = cpd284.pdb
REMARK  22 active torsions:
REMARK  status: ('A' for Active; 'I' for Inactive)
REMARK    1  A    between atoms: C_2  and  C_3
REMARK    2  A    between atoms: C_2  and  C_4
REMARK    3  A    between atoms: C_7  and  C_8
REMARK    4  A    between atoms: C_14  and  C_15
REMARK    5  A    between atoms: C_18  and  O_19
REMARK    6  A    between atoms: O_19  and  C_20
REMARK    7  A    between atoms: C_20  and  C_22
REMARK    8  A    between atoms: C_22  and  C_23
REMARK    9  A    between atoms: C_23  and  C_24
REMARK   10  A    between atoms: C_24  and  C_25
REMARK   11  A    between atoms: C_25  and  C_26
REMARK   12  A    between atoms: C_29  and  C_30
REMARK   13  A    between atoms: C_29  and  C_31
REMARK   14  A    between atoms: C_35  and  C_36
REMARK   15  A    between atoms: C_37  and  C_38
REMARK   16  A    between atoms: C_40  and  O_41
REMARK   17  A    between atoms: O_41  and  C_42
REMARK   18  A    between atoms: C_42  and  C_44
REMARK   19  A    between atoms: C_44  and  C_45
REMARK   20  A    between atoms: C_45  and  C_46
REMARK   21  A    between atoms: C_46  and  C_47
REMARK   22  A    between atoms: C_47  and  C_48
REMARK                            x       y       z     vdW  Elec       q    Type
REMARK                         _______ _______ _______ _____ _____    ______ ____
ROOT
ATOM      1  C   UNL A   1      32.523 -36.419 -28.135  0.00  0.00    -0.017 C 
ATOM      2  C   UNL A   1      34.000 -36.497 -27.747  0.00  0.00    -0.046 C 
ATOM      3  C   UNL A   1      34.630 -35.375 -28.558  0.00  0.00    -0.043 C 
ATOM      4  C   UNL A   1      33.801 -35.285 -29.874  0.00  0.00    +0.009 C 
ATOM      5  C   UNL A   1      33.244 -33.850 -29.987  0.00  0.00    -0.056 C 
ATOM      6  C   UNL A   1      32.590 -36.292 -29.697  0.00  0.00    -0.022 C 
ATOM      7  C   UNL A   1      32.739 -37.630 -30.528  0.00  0.00    -0.031 C 
ATOM      8  C   UNL A   1      31.498 -38.550 -30.384  0.00  0.00    -0.049 C 
ATOM      9  C   UNL A   1      31.132 -39.507 -31.523  0.00  0.00    -0.049 C 
ATOM     10  C   UNL A   1      31.361 -39.017 -32.970  0.00  0.00    -0.029 C 
ATOM     11  C   UNL A   1      30.257 -39.445 -34.026  0.00  0.00    -0.025 C 
ATOM     12  C   UNL A   1      28.902 -38.767 -33.720  0.00  0.00    -0.059 C 
ATOM     13  C   UNL A   1      30.052 -40.989 -33.953  0.00  0.00    -0.044 C 
ATOM     14  C   UNL A   1      29.255 -41.572 -35.120  0.00  0.00    -0.015 C 
ATOM     15  C   UNL A   1      29.870 -41.214 -36.473  0.00  0.00    +0.108 C 
ATOM     16  C   UNL A   1      30.043 -39.677 -36.680  0.00  0.00    +0.005 C 
ATOM     17  C   UNL A   1      28.691 -38.978 -36.930  0.00  0.00    -0.056 C 
ATOM     18  C   UNL A   1      30.871 -39.483 -37.982  0.00  0.00    -0.056 C 
ATOM     19  C   UNL A   1      30.840 -39.104 -35.452  0.00  0.00    -0.027 C 
ATOM     20  C   UNL A   1      31.225 -37.616 -35.564  0.00  0.00    -0.049 C 
ATOM     21  C   UNL A   1      32.269 -37.220 -34.510  0.00  0.00    -0.047 C 
ATOM     22  C   UNL A   1      31.872 -37.541 -33.037  0.00  0.00    -0.023 C 
ATOM     23  C   UNL A   1      30.772 -36.512 -32.644  0.00  0.00    -0.059 C 
ATOM     24  C   UNL A   1      33.144 -37.423 -32.046  0.00  0.00    -0.020 C 
ATOM     25  C   UNL A   1      34.214 -38.539 -32.347  0.00  0.00    -0.059 C 
ATOM     26  C   UNL A   1      33.891 -36.082 -32.282  0.00  0.00    -0.009 C 
ATOM     27  C   UNL A   1      34.706 -35.657 -31.067  0.00  0.00    +0.109 C 
ENDROOT
BRANCH   1  29
ATOM     28  C   UNL A   1      31.991 -38.555 -26.884  0.00  0.00    -0.099 C 
ATOM     29  C   UNL A   1      31.592 -37.416 -27.479  0.00  0.00    -0.076 C 
ATOM     30  C   UNL A   1      30.139 -37.012 -27.441  0.00  0.00    -0.044 C 
ENDBRANCH   1  29
BRANCH  15  31
ATOM     31  O   UNL A   1      29.039 -41.750 -37.523  0.00  0.00    -0.461 OA
BRANCH  31  32
ATOM     32  C   UNL A   1      29.373 -42.982 -37.996  0.00  0.00    +0.307 C 
ATOM     33  O   UNL A   1      28.587 -43.893 -38.220  0.00  0.00    -0.251 OA
BRANCH  32  34
ATOM     34  C   UNL A   1      30.863 -43.080 -38.196  0.00  0.00    +0.045 C 
BRANCH  34  35
ATOM     35  C   UNL A   1      31.456 -44.210 -37.365  0.00  0.00    -0.042 C 
BRANCH  35  36
ATOM     36  C   UNL A   1      32.867 -43.863 -36.893  0.00  0.00    -0.042 C 
BRANCH  36  37
ATOM     37  C   UNL A   1      32.840 -42.964 -35.661  0.00  0.00    +0.049 C 
BRANCH  37  38
ATOM     38  C   UNL A   1      33.606 -41.643 -35.805  0.00  0.00    +0.356 C 
ATOM     39  O   UNL A   1      33.920 -41.356 -36.996  0.00  0.00    -0.246 OA
ATOM     40  O   UNL A   1      33.834 -41.003 -34.742  0.00  0.00    -0.246 OA
ENDBRANCH  37  38
ENDBRANCH  36  37
ENDBRANCH  35  36
ENDBRANCH  34  35
ENDBRANCH  32  34
ENDBRANCH  31  32
ENDBRANCH  15  31
BRANCH  27  41
ATOM     41  O   UNL A   1      35.752 -34.698 -31.360  0.00  0.00    -0.461 OA
BRANCH  41  42
ATOM     42  C   UNL A   1      37.071 -35.033 -31.333  0.00  0.00    +0.307 C 
ATOM     43  O   UNL A   1      38.005 -34.273 -31.544  0.00  0.00    -0.251 OA
BRANCH  42  44
ATOM     44  C   UNL A   1      37.209 -36.503 -31.014  0.00  0.00    +0.045 C 
BRANCH  44  45
ATOM     45  C   UNL A   1      37.952 -36.714 -29.693  0.00  0.00    -0.042 C 
BRANCH  45  46
ATOM     46  C   UNL A   1      37.469 -37.940 -28.914  0.00  0.00    -0.042 C 
BRANCH  46  47
ATOM     47  C   UNL A   1      36.413 -38.755 -29.652  0.00  0.00    +0.049 C 
BRANCH  47  48
ATOM     48  C   UNL A   1      35.993 -40.052 -28.951  0.00  0.00    +0.356 C 
ATOM     49  O   UNL A   1      36.207 -41.098 -29.632  0.00  0.00    -0.246 OA
ATOM     50  O   UNL A   1      35.502 -39.939 -27.795  0.00  0.00    -0.246 OA
ENDBRANCH  47  48
ENDBRANCH  46  47
ENDBRANCH  45  46
ENDBRANCH  44  45
ENDBRANCH  42  44
ENDBRANCH  41  42
ENDBRANCH  27  41
TORSDOF 15
ENDMDL
MODEL 8
REMARK VINA RESULT:    -6.981      3.254      6.065
REMARK INTER + INTRA:         -15.104
REMARK INTER:                 -13.030
REMARK INTRA:                  -2.074
REMARK UNBOUND:                -2.001
REMARK  Name = cpd284.pdb
REMARK  22 active torsions:
REMARK  status: ('A' for Active; 'I' for Inactive)
REMARK    1  A    between atoms: C_2  and  C_3
REMARK    2  A    between atoms: C_2  and  C_4
REMARK    3  A    between atoms: C_7  and  C_8
REMARK    4  A    between atoms: C_14  and  C_15
REMARK    5  A    between atoms: C_18  and  O_19
REMARK    6  A    between atoms: O_19  and  C_20
REMARK    7  A    between atoms: C_20  and  C_22
REMARK    8  A    between atoms: C_22  and  C_23
REMARK    9  A    between atoms: C_23  and  C_24
REMARK   10  A    between atoms: C_24  and  C_25
REMARK   11  A    between atoms: C_25  and  C_26
REMARK   12  A    between atoms: C_29  and  C_30
REMARK   13  A    between atoms: C_29  and  C_31
REMARK   14  A    between atoms: C_35  and  C_36
REMARK   15  A    between atoms: C_37  and  C_38
REMARK   16  A    between atoms: C_40  and  O_41
REMARK   17  A    between atoms: O_41  and  C_42
REMARK   18  A    between atoms: C_42  and  C_44
REMARK   19  A    between atoms: C_44  and  C_45
REMARK   20  A    between atoms: C_45  and  C_46
REMARK   21  A    between atoms: C_46  and  C_47
REMARK   22  A    between atoms: C_47  and  C_48
REMARK                            x       y       z     vdW  Elec       q    Type
REMARK                         _______ _______ _______ _____ _____    ______ ____
ROOT
ATOM      1  C   UNL A   1      37.458 -38.332 -29.987  0.00  0.00    -0.017 C 
ATOM      2  C   UNL A   1      37.710 -39.026 -28.647  0.00  0.00    -0.046 C 
ATOM      3  C   UNL A   1      36.618 -40.084 -28.596  0.00  0.00    -0.043 C 
ATOM      4  C   UNL A   1      35.400 -39.475 -29.353  0.00  0.00    +0.009 C 
ATOM      5  C   UNL A   1      35.035 -40.430 -30.510  0.00  0.00    -0.056 C 
ATOM      6  C   UNL A   1      35.907 -38.102 -29.964  0.00  0.00    -0.022 C 
ATOM      7  C   UNL A   1      35.374 -36.823 -29.201  0.00  0.00    -0.031 C 
ATOM      8  C   UNL A   1      35.833 -35.505 -29.877  0.00  0.00    -0.049 C 
ATOM      9  C   UNL A   1      34.969 -34.247 -29.741  0.00  0.00    -0.049 C 
ATOM     10  C   UNL A   1      33.436 -34.430 -29.744  0.00  0.00    -0.029 C 
ATOM     11  C   UNL A   1      32.608 -33.313 -30.509  0.00  0.00    -0.025 C 
ATOM     12  C   UNL A   1      32.890 -33.355 -32.028  0.00  0.00    -0.059 C 
ATOM     13  C   UNL A   1      33.033 -31.910 -29.978  0.00  0.00    -0.044 C 
ATOM     14  C   UNL A   1      32.102 -30.772 -30.397  0.00  0.00    -0.015 C 
ATOM     15  C   UNL A   1      30.651 -31.038 -29.998  0.00  0.00    +0.108 C 
ATOM     16  C   UNL A   1      30.101 -32.389 -30.553  0.00  0.00    +0.005 C 
ATOM     17  C   UNL A   1      29.837 -32.319 -32.071  0.00  0.00    -0.056 C 
ATOM     18  C   UNL A   1      28.714 -32.622 -29.890  0.00  0.00    -0.056 C 
ATOM     19  C   UNL A   1      31.092 -33.533 -30.130  0.00  0.00    -0.027 C 
ATOM     20  C   UNL A   1      30.626 -34.959 -30.475  0.00  0.00    -0.049 C 
ATOM     21  C   UNL A   1      31.462 -36.021 -29.749  0.00  0.00    -0.047 C 
ATOM     22  C   UNL A   1      33.002 -35.914 -29.973  0.00  0.00    -0.023 C 
ATOM     23  C   UNL A   1      33.268 -36.394 -31.431  0.00  0.00    -0.059 C 
ATOM     24  C   UNL A   1      33.816 -36.825 -28.915  0.00  0.00    -0.020 C 
ATOM     25  C   UNL A   1      33.660 -36.280 -27.446  0.00  0.00    -0.059 C 
ATOM     26  C   UNL A   1      33.224 -38.261 -28.870  0.00  0.00    -0.009 C 
ATOM     27  C   UNL A   1      34.234 -39.283 -28.362  0.00  0.00    +0.109 C 
ENDROOT
BRANCH   1  29
ATOM     28  C   UNL A   1      39.531 -36.908 -29.695  0.00  0.00    -0.099 C 
ATOM     29  C   UNL A   1      38.402 -37.208 -30.361  0.00  0.00    -0.076 C 
ATOM     30  C   UNL A   1      38.048 -36.465 -31.625  0.00  0.00    -0.044 C 
ENDBRANCH   1  29
BRANCH  15  31
ATOM     31  O   UNL A   1      29.827 -29.953 -30.472  0.00  0.00    -0.461 OA
BRANCH  31  32
ATOM     32  C   UNL A   1      29.040 -29.337 -29.547  0.00  0.00    +0.307 C 
ATOM     33  O   UNL A   1      29.220 -29.357 -28.336  0.00  0.00    -0.251 OA
BRANCH  32  34
ATOM     34  C   UNL A   1      27.894 -28.629 -30.222  0.00  0.00    +0.045 C 
BRANCH  34  35
ATOM     35  C   UNL A   1      26.708 -29.564 -30.413  0.00  0.00    -0.042 C 
BRANCH  35  36
ATOM     36  C   UNL A   1      26.140 -29.449 -31.827  0.00  0.00    -0.042 C 
BRANCH  36  37
ATOM     37  C   UNL A   1      26.858 -30.381 -32.797  0.00  0.00    +0.049 C 
BRANCH  37  38
ATOM     38  C   UNL A   1      27.570 -29.685 -33.962  0.00  0.00    +0.356 C 
ATOM     39  O   UNL A   1      28.755 -29.326 -33.702  0.00  0.00    -0.246 OA
ATOM     40  O   UNL A   1      26.910 -29.548 -35.029  0.00  0.00    -0.246 OA
ENDBRANCH  37  38
ENDBRANCH  36  37
ENDBRANCH  35  36
ENDBRANCH  34  35
ENDBRANCH  32  34
ENDBRANCH  31  32
ENDBRANCH  15  31
BRANCH  27  41
ATOM     41  O   UNL A   1      33.640 -40.512 -27.875  0.00  0.00    -0.461 OA
BRANCH  41  42
ATOM     42  C   UNL A   1      33.437 -40.742 -26.549  0.00  0.00    +0.307 C 
ATOM     43  O   UNL A   1      34.305 -40.772 -25.688  0.00  0.00    -0.251 OA
BRANCH  42  44
ATOM     44  C   UNL A   1      31.965 -40.973 -26.299  0.00  0.00    +0.045 C 
BRANCH  44  45
ATOM     45  C   UNL A   1      31.318 -39.753 -25.641  0.00  0.00    -0.042 C 
BRANCH  45  46
ATOM     46  C   UNL A   1      32.334 -38.722 -25.142  0.00  0.00    -0.042 C 
BRANCH  46  47
ATOM     47  C   UNL A   1      31.697 -37.437 -24.627  0.00  0.00    +0.049 C 
BRANCH  47  48
ATOM     48  C   UNL A   1      32.675 -36.439 -23.996  0.00  0.00    +0.356 C 
ATOM     49  O   UNL A   1      32.329 -35.228 -24.127  0.00  0.00    -0.246 OA
ATOM     50  O   UNL A   1      33.687 -36.922 -23.421  0.00  0.00    -0.246 OA
ENDBRANCH  47  48
ENDBRANCH  46  47
ENDBRANCH  45  46
ENDBRANCH  44  45
ENDBRANCH  42  44
ENDBRANCH  41  42
ENDBRANCH  27  41
TORSDOF 15
ENDMDL
MODEL 9
REMARK VINA RESULT:    -6.954     17.907     21.432
REMARK INTER + INTRA:         -15.053
REMARK INTER:                 -11.952
REMARK INTRA:                  -3.101
REMARK UNBOUND:                -2.001
REMARK  Name = cpd284.pdb
REMARK  22 active torsions:
REMARK  status: ('A' for Active; 'I' for Inactive)
REMARK    1  A    between atoms: C_2  and  C_3
REMARK    2  A    between atoms: C_2  and  C_4
REMARK    3  A    between atoms: C_7  and  C_8
REMARK    4  A    between atoms: C_14  and  C_15
REMARK    5  A    between atoms: C_18  and  O_19
REMARK    6  A    between atoms: O_19  and  C_20
REMARK    7  A    between atoms: C_20  and  C_22
REMARK    8  A    between atoms: C_22  and  C_23
REMARK    9  A    between atoms: C_23  and  C_24
REMARK   10  A    between atoms: C_24  and  C_25
REMARK   11  A    between atoms: C_25  and  C_26
REMARK   12  A    between atoms: C_29  and  C_30
REMARK   13  A    between atoms: C_29  and  C_31
REMARK   14  A    between atoms: C_35  and  C_36
REMARK   15  A    between atoms: C_37  and  C_38
REMARK   16  A    between atoms: C_40  and  O_41
REMARK   17  A    between atoms: O_41  and  C_42
REMARK   18  A    between atoms: C_42  and  C_44
REMARK   19  A    between atoms: C_44  and  C_45
REMARK   20  A    between atoms: C_45  and  C_46
REMARK   21  A    between atoms: C_46  and  C_47
REMARK   22  A    between atoms: C_47  and  C_48
REMARK                            x       y       z     vdW  Elec       q    Type
REMARK                         _______ _______ _______ _____ _____    ______ ____
ROOT
ATOM      1  C   UNL A   1      45.253 -19.864 -40.704  0.00  0.00    -0.017 C 
ATOM      2  C   UNL A   1      45.786 -18.538 -41.250  0.00  0.00    -0.046 C 
ATOM      3  C   UNL A   1      46.819 -18.128 -40.211  0.00  0.00    -0.043 C 
ATOM      4  C   UNL A   1      46.291 -18.670 -38.850  0.00  0.00    +0.009 C 
ATOM      5  C   UNL A   1      47.373 -19.599 -38.258  0.00  0.00    -0.056 C 
ATOM      6  C   UNL A   1      45.006 -19.533 -39.192  0.00  0.00    -0.022 C 
ATOM      7  C   UNL A   1      43.640 -18.830 -38.816  0.00  0.00    -0.031 C 
ATOM      8  C   UNL A   1      42.416 -19.739 -39.098  0.00  0.00    -0.049 C 
ATOM      9  C   UNL A   1      41.142 -19.570 -38.265  0.00  0.00    -0.049 C 
ATOM     10  C   UNL A   1      41.307 -19.219 -36.770  0.00  0.00    -0.029 C 
ATOM     11  C   UNL A   1      40.280 -19.914 -35.779  0.00  0.00    -0.025 C 
ATOM     12  C   UNL A   1      40.505 -21.442 -35.727  0.00  0.00    -0.059 C 
ATOM     13  C   UNL A   1      38.829 -19.656 -36.288  0.00  0.00    -0.044 C 
ATOM     14  C   UNL A   1      37.739 -19.996 -35.271  0.00  0.00    -0.015 C 
ATOM     15  C   UNL A   1      37.941 -19.263 -33.944  0.00  0.00    +0.108 C 
ATOM     16  C   UNL A   1      39.342 -19.523 -33.308  0.00  0.00    +0.005 C 
ATOM     17  C   UNL A   1      39.450 -20.945 -32.722  0.00  0.00    -0.056 C 
ATOM     18  C   UNL A   1      39.480 -18.553 -32.101  0.00  0.00    -0.056 C 
ATOM     19  C   UNL A   1      40.438 -19.192 -34.385  0.00  0.00    -0.027 C 
ATOM     20  C   UNL A   1      41.890 -19.258 -33.877  0.00  0.00    -0.049 C 
ATOM     21  C   UNL A   1      42.867 -18.609 -34.867  0.00  0.00    -0.047 C 
ATOM     22  C   UNL A   1      42.804 -19.172 -36.319  0.00  0.00    -0.023 C 
ATOM     23  C   UNL A   1      43.456 -20.586 -36.272  0.00  0.00    -0.059 C 
ATOM     24  C   UNL A   1      43.592 -18.215 -37.357  0.00  0.00    -0.020 C 
ATOM     25  C   UNL A   1      42.874 -16.822 -37.514  0.00  0.00    -0.059 C 
ATOM     26  C   UNL A   1      45.006 -17.874 -36.811  0.00  0.00    -0.009 C 
ATOM     27  C   UNL A   1      45.970 -17.479 -37.922  0.00  0.00    +0.109 C 
ENDROOT
BRANCH   1  29
ATOM     28  C   UNL A   1      43.601 -21.722 -41.184  0.00  0.00    -0.099 C 
ATOM     29  C   UNL A   1      44.192 -20.563 -41.527  0.00  0.00    -0.076 C 
ATOM     30  C   UNL A   1      43.742 -19.821 -42.761  0.00  0.00    -0.044 C 
ENDBRANCH   1  29
BRANCH  15  31
ATOM     31  O   UNL A   1      36.911 -19.673 -33.021  0.00  0.00    -0.461 OA
BRANCH  31  32
ATOM     32  C   UNL A   1      35.842 -18.839 -32.893  0.00  0.00    +0.307 C 
ATOM     33  O   UNL A   1      34.687 -19.192 -32.687  0.00  0.00    -0.251 OA
BRANCH  32  34
ATOM     34  C   UNL A   1      36.272 -17.405 -33.053  0.00  0.00    +0.045 C 
BRANCH  34  35
ATOM     35  C   UNL A   1      35.196 -16.449 -32.557  0.00  0.00    -0.042 C 
BRANCH  35  36
ATOM     36  C   UNL A   1      35.704 -15.609 -31.386  0.00  0.00    -0.042 C 
BRANCH  36  37
ATOM     37  C   UNL A   1      37.207 -15.776 -31.187  0.00  0.00    +0.049 C 
BRANCH  37  38
ATOM     38  C   UNL A   1      37.901 -14.614 -30.469  0.00  0.00    +0.356 C 
ATOM     39  O   UNL A   1      37.422 -13.476 -30.746  0.00  0.00    -0.246 OA
ATOM     40  O   UNL A   1      38.854 -14.913 -29.698  0.00  0.00    -0.246 OA
ENDBRANCH  37  38
ENDBRANCH  36  37
ENDBRANCH  35  36
ENDBRANCH  34  35
ENDBRANCH  32  34
ENDBRANCH  31  32
ENDBRANCH  15  31
BRANCH  27  41
ATOM     41  O   UNL A   1      47.127 -16.734 -37.467  0.00  0.00    -0.461 OA
BRANCH  41  42
ATOM     42  C   UNL A   1      47.274 -15.403 -37.714  0.00  0.00    +0.307 C 
ATOM     43  O   UNL A   1      48.306 -14.762 -37.582  0.00  0.00    -0.251 OA
BRANCH  42  44
ATOM     44  C   UNL A   1      45.952 -14.827 -38.166  0.00  0.00    +0.045 C 
BRANCH  44  45
ATOM     45  C   UNL A   1      46.112 -14.030 -39.462  0.00  0.00    -0.042 C 
BRANCH  45  46
ATOM     46  C   UNL A   1      45.700 -14.813 -40.711  0.00  0.00    -0.042 C 
BRANCH  46  47
ATOM     47  C   UNL A   1      44.267 -15.330 -40.662  0.00  0.00    +0.049 C 
BRANCH  47  48
ATOM     48  C   UNL A   1      43.187 -14.256 -40.838  0.00  0.00    +0.356 C 
ATOM     49  O   UNL A   1      42.388 -14.165 -39.860  0.00  0.00    -0.246 OA
ATOM     50  O   UNL A   1      43.218 -13.588 -41.907  0.00  0.00    -0.246 OA
ENDBRANCH  47  48
ENDBRANCH  46  47
ENDBRANCH  45  46
ENDBRANCH  44  45
ENDBRANCH  42  44
ENDBRANCH  41  42
ENDBRANCH  27  41
TORSDOF 15
ENDMDL
MODEL 10
REMARK VINA RESULT:    -6.940      3.804      6.796
REMARK INTER + INTRA:         -15.027
REMARK INTER:                 -12.331
REMARK INTRA:                  -2.696
REMARK UNBOUND:                -2.001
REMARK  Name = cpd284.pdb
REMARK  22 active torsions:
REMARK  status: ('A' for Active; 'I' for Inactive)
REMARK    1  A    between atoms: C_2  and  C_3
REMARK    2  A    between atoms: C_2  and  C_4
REMARK    3  A    between atoms: C_7  and  C_8
REMARK    4  A    between atoms: C_14  and  C_15
REMARK    5  A    between atoms: C_18  and  O_19
REMARK    6  A    between atoms: O_19  and  C_20
REMARK    7  A    between atoms: C_20  and  C_22
REMARK    8  A    between atoms: C_22  and  C_23
REMARK    9  A    between atoms: C_23  and  C_24
REMARK   10  A    between atoms: C_24  and  C_25
REMARK   11  A    between atoms: C_25  and  C_26
REMARK   12  A    between atoms: C_29  and  C_30
REMARK   13  A    between atoms: C_29  and  C_31
REMARK   14  A    between atoms: C_35  and  C_36
REMARK   15  A    between atoms: C_37  and  C_38
REMARK   16  A    between atoms: C_40  and  O_41
REMARK   17  A    between atoms: O_41  and  C_42
REMARK   18  A    between atoms: C_42  and  C_44
REMARK   19  A    between atoms: C_44  and  C_45
REMARK   20  A    between atoms: C_45  and  C_46
REMARK   21  A    between atoms: C_46  and  C_47
REMARK   22  A    between atoms: C_47  and  C_48
REMARK                            x       y       z     vdW  Elec       q    Type
REMARK                         _______ _______ _______ _____ _____    ______ ____
ROOT
ATOM      1  C   UNL A   1      37.062 -39.134 -29.774  0.00  0.00    -0.017 C 
ATOM      2  C   UNL A   1      36.846 -40.351 -28.872  0.00  0.00    -0.046 C 
ATOM      3  C   UNL A   1      35.913 -41.228 -29.694  0.00  0.00    -0.043 C 
ATOM      4  C   UNL A   1      35.025 -40.248 -30.517  0.00  0.00    +0.009 C 
ATOM      5  C   UNL A   1      35.209 -40.584 -32.013  0.00  0.00    -0.056 C 
ATOM      6  C   UNL A   1      35.604 -38.798 -30.244  0.00  0.00    -0.022 C 
ATOM      7  C   UNL A   1      34.713 -37.922 -29.274  0.00  0.00    -0.031 C 
ATOM      8  C   UNL A   1      35.277 -36.488 -29.095  0.00  0.00    -0.049 C 
ATOM      9  C   UNL A   1      34.320 -35.335 -28.775  0.00  0.00    -0.049 C 
ATOM     10  C   UNL A   1      32.924 -35.361 -29.435  0.00  0.00    -0.029 C 
ATOM     11  C   UNL A   1      32.355 -33.956 -29.902  0.00  0.00    -0.025 C 
ATOM     12  C   UNL A   1      33.194 -33.373 -31.062  0.00  0.00    -0.059 C 
ATOM     13  C   UNL A   1      32.423 -32.956 -28.707  0.00  0.00    -0.044 C 
ATOM     14  C   UNL A   1      31.626 -31.669 -28.920  0.00  0.00    -0.015 C 
ATOM     15  C   UNL A   1      30.160 -31.948 -29.254  0.00  0.00    +0.108 C 
ATOM     16  C   UNL A   1      29.981 -32.880 -30.493  0.00  0.00    +0.005 C 
ATOM     17  C   UNL A   1      30.307 -32.148 -31.811  0.00  0.00    -0.056 C 
ATOM     18  C   UNL A   1      28.472 -33.247 -30.572  0.00  0.00    -0.056 C 
ATOM     19  C   UNL A   1      30.834 -34.179 -30.256  0.00  0.00    -0.027 C 
ATOM     20  C   UNL A   1      30.659 -35.275 -31.324  0.00  0.00    -0.049 C 
ATOM     21  C   UNL A   1      31.246 -36.616 -30.862  0.00  0.00    -0.047 C 
ATOM     22  C   UNL A   1      32.740 -36.562 -30.419  0.00  0.00    -0.023 C 
ATOM     23  C   UNL A   1      33.580 -36.399 -31.721  0.00  0.00    -0.059 C 
ATOM     24  C   UNL A   1      33.169 -37.906 -29.629  0.00  0.00    -0.020 C 
ATOM     25  C   UNL A   1      32.422 -38.025 -28.248  0.00  0.00    -0.059 C 
ATOM     26  C   UNL A   1      32.731 -39.165 -30.426  0.00  0.00    -0.009 C 
ATOM     27  C   UNL A   1      33.558 -40.392 -30.061  0.00  0.00    +0.109 C 
ENDROOT
BRANCH   1  29
ATOM     28  C   UNL A   1      38.416 -37.972 -27.977  0.00  0.00    -0.099 C 
ATOM     29  C   UNL A   1      37.975 -38.048 -29.246  0.00  0.00    -0.076 C 
ATOM     30  C   UNL A   1      38.463 -37.060 -30.277  0.00  0.00    -0.044 C 
ENDBRANCH   1  29
BRANCH  15  31
ATOM     31  O   UNL A   1      29.487 -30.696 -29.493  0.00  0.00    -0.461 OA
BRANCH  31  32
ATOM     32  C   UNL A   1      28.702 -30.223 -28.485  0.00  0.00    +0.307 C 
ATOM     33  O   UNL A   1      28.706 -30.634 -27.331  0.00  0.00    -0.251 OA
BRANCH  32  34
ATOM     34  C   UNL A   1      27.806 -29.122 -28.989  0.00  0.00    +0.045 C 
BRANCH  34  35
ATOM     35  C   UNL A   1      28.463 -27.759 -28.819  0.00  0.00    -0.042 C 
BRANCH  35  36
ATOM     36  C   UNL A   1      27.580 -26.823 -27.995  0.00  0.00    -0.042 C 
BRANCH  36  37
ATOM     37  C   UNL A   1      28.271 -26.389 -26.706  0.00  0.00    +0.049 C 
BRANCH  37  38
ATOM     38  C   UNL A   1      28.790 -24.947 -26.701  0.00  0.00    +0.356 C 
ATOM     39  O   UNL A   1      30.033 -24.846 -26.492  0.00  0.00    -0.246 OA
ATOM     40  O   UNL A   1      27.937 -24.039 -26.899  0.00  0.00    -0.246 OA
ENDBRANCH  37  38
ENDBRANCH  36  37
ENDBRANCH  35  36
ENDBRANCH  34  35
ENDBRANCH  32  34
ENDBRANCH  31  32
ENDBRANCH  15  31
BRANCH  27  41
ATOM     41  O   UNL A   1      32.934 -41.652 -30.408  0.00  0.00    -0.461 OA
BRANCH  41  42
ATOM     42  C   UNL A   1      32.216 -42.377 -29.507  0.00  0.00    +0.307 C 
ATOM     43  O   UNL A   1      31.035 -42.212 -29.236  0.00  0.00    -0.251 OA
BRANCH  42  44
ATOM     44  C   UNL A   1      33.109 -43.418 -28.874  0.00  0.00    +0.045 C 
BRANCH  44  45
ATOM     45  C   UNL A   1      33.081 -43.315 -27.348  0.00  0.00    -0.042 C 
BRANCH  45  46
ATOM     46  C   UNL A   1      34.218 -42.466 -26.775  0.00  0.00    -0.042 C 
BRANCH  46  47
ATOM     47  C   UNL A   1      33.805 -41.037 -26.443  0.00  0.00    +0.049 C 
BRANCH  47  48
ATOM     48  C   UNL A   1      33.479 -40.785 -24.966  0.00  0.00    +0.356 C 
ATOM     49  O   UNL A   1      34.417 -41.090 -24.173  0.00  0.00    -0.246 OA
ATOM     50  O   UNL A   1      32.343 -40.303 -24.710  0.00  0.00    -0.246 OA
ENDBRANCH  47  48
ENDBRANCH  46  47
ENDBRANCH  45  46
ENDBRANCH  44  45
ENDBRANCH  42  44
ENDBRANCH  41  42
ENDBRANCH  27  41
TORSDOF 15
ENDMDL
MODEL 11
REMARK VINA RESULT:    -6.881      3.295      5.883
REMARK INTER + INTRA:         -14.915
REMARK INTER:                 -12.007
REMARK INTRA:                  -2.908
REMARK UNBOUND:                -2.001
REMARK  Name = cpd284.pdb
REMARK  22 active torsions:
REMARK  status: ('A' for Active; 'I' for Inactive)
REMARK    1  A    between atoms: C_2  and  C_3
REMARK    2  A    between atoms: C_2  and  C_4
REMARK    3  A    between atoms: C_7  and  C_8
REMARK    4  A    between atoms: C_14  and  C_15
REMARK    5  A    between atoms: C_18  and  O_19
REMARK    6  A    between atoms: O_19  and  C_20
REMARK    7  A    between atoms: C_20  and  C_22
REMARK    8  A    between atoms: C_22  and  C_23
REMARK    9  A    between atoms: C_23  and  C_24
REMARK   10  A    between atoms: C_24  and  C_25
REMARK   11  A    between atoms: C_25  and  C_26
REMARK   12  A    between atoms: C_29  and  C_30
REMARK   13  A    between atoms: C_29  and  C_31
REMARK   14  A    between atoms: C_35  and  C_36
REMARK   15  A    between atoms: C_37  and  C_38
REMARK   16  A    between atoms: C_40  and  O_41
REMARK   17  A    between atoms: O_41  and  C_42
REMARK   18  A    between atoms: C_42  and  C_44
REMARK   19  A    between atoms: C_44  and  C_45
REMARK   20  A    between atoms: C_45  and  C_46
REMARK   21  A    between atoms: C_46  and  C_47
REMARK   22  A    between atoms: C_47  and  C_48
REMARK                            x       y       z     vdW  Elec       q    Type
REMARK                         _______ _______ _______ _____ _____    ______ ____
ROOT
ATOM      1  C   UNL A   1      37.138 -39.091 -29.789  0.00  0.00    -0.017 C 
ATOM      2  C   UNL A   1      36.980 -40.272 -28.829  0.00  0.00    -0.046 C 
ATOM      3  C   UNL A   1      36.050 -41.209 -29.586  0.00  0.00    -0.043 C 
ATOM      4  C   UNL A   1      35.114 -40.292 -30.427  0.00  0.00    +0.009 C 
ATOM      5  C   UNL A   1      35.268 -40.689 -31.911  0.00  0.00    -0.056 C 
ATOM      6  C   UNL A   1      35.660 -38.815 -30.234  0.00  0.00    -0.022 C 
ATOM      7  C   UNL A   1      34.770 -37.921 -29.279  0.00  0.00    -0.031 C 
ATOM      8  C   UNL A   1      35.299 -36.466 -29.180  0.00  0.00    -0.049 C 
ATOM      9  C   UNL A   1      34.320 -35.325 -28.885  0.00  0.00    -0.049 C 
ATOM     10  C   UNL A   1      32.908 -35.418 -29.505  0.00  0.00    -0.029 C 
ATOM     11  C   UNL A   1      32.288 -34.050 -30.018  0.00  0.00    -0.025 C 
ATOM     12  C   UNL A   1      33.080 -33.499 -31.225  0.00  0.00    -0.059 C 
ATOM     13  C   UNL A   1      32.360 -32.997 -28.871  0.00  0.00    -0.044 C 
ATOM     14  C   UNL A   1      31.522 -31.742 -29.118  0.00  0.00    -0.015 C 
ATOM     15  C   UNL A   1      30.057 -32.075 -29.399  0.00  0.00    +0.108 C 
ATOM     16  C   UNL A   1      29.871 -33.065 -30.590  0.00  0.00    +0.005 C 
ATOM     17  C   UNL A   1      30.142 -32.385 -31.948  0.00  0.00    -0.056 C 
ATOM     18  C   UNL A   1      28.371 -33.476 -30.612  0.00  0.00    -0.056 C 
ATOM     19  C   UNL A   1      30.765 -34.329 -30.320  0.00  0.00    -0.027 C 
ATOM     20  C   UNL A   1      30.592 -35.477 -31.333  0.00  0.00    -0.049 C 
ATOM     21  C   UNL A   1      31.229 -36.779 -30.829  0.00  0.00    -0.047 C 
ATOM     22  C   UNL A   1      32.732 -36.666 -30.429  0.00  0.00    -0.023 C 
ATOM     23  C   UNL A   1      33.532 -36.540 -31.760  0.00  0.00    -0.059 C 
ATOM     24  C   UNL A   1      33.218 -37.961 -29.593  0.00  0.00    -0.020 C 
ATOM     25  C   UNL A   1      32.511 -38.038 -28.188  0.00  0.00    -0.059 C 
ATOM     26  C   UNL A   1      32.794 -39.266 -30.321  0.00  0.00    -0.009 C 
ATOM     27  C   UNL A   1      33.664 -40.453 -29.925  0.00  0.00    +0.109 C 
ENDROOT
BRANCH   1  29
ATOM     28  C   UNL A   1      38.494 -36.982 -30.138  0.00  0.00    -0.099 C 
ATOM     29  C   UNL A   1      38.035 -37.959 -29.336  0.00  0.00    -0.076 C 
ATOM     30  C   UNL A   1      38.328 -37.924 -27.856  0.00  0.00    -0.044 C 
ENDBRANCH   1  29
BRANCH  15  31
ATOM     31  O   UNL A   1      29.343 -30.852 -29.675  0.00  0.00    -0.461 OA
BRANCH  31  32
ATOM     32  C   UNL A   1      28.584 -30.348 -28.663  0.00  0.00    +0.307 C 
ATOM     33  O   UNL A   1      27.995 -31.013 -27.820  0.00  0.00    -0.251 OA
BRANCH  32  34
ATOM     34  C   UNL A   1      28.552 -28.844 -28.729  0.00  0.00    +0.045 C 
BRANCH  34  35
ATOM     35  C   UNL A   1      28.399 -28.360 -30.165  0.00  0.00    -0.042 C 
BRANCH  35  36
ATOM     36  C   UNL A   1      27.038 -28.758 -30.736  0.00  0.00    -0.042 C 
BRANCH  36  37
ATOM     37  C   UNL A   1      27.004 -28.614 -32.254  0.00  0.00    +0.049 C 
BRANCH  37  38
ATOM     38  C   UNL A   1      27.575 -29.805 -33.033  0.00  0.00    +0.356 C 
ATOM     39  O   UNL A   1      28.602 -29.528 -33.717  0.00  0.00    -0.246 OA
ATOM     40  O   UNL A   1      26.971 -30.905 -32.908  0.00  0.00    -0.246 OA
ENDBRANCH  37  38
ENDBRANCH  36  37
ENDBRANCH  35  36
ENDBRANCH  34  35
ENDBRANCH  32  34
ENDBRANCH  31  32
ENDBRANCH  15  31
BRANCH  27  41
ATOM     41  O   UNL A   1      33.066 -41.744 -30.199  0.00  0.00    -0.461 OA
BRANCH  41  42
ATOM     42  C   UNL A   1      32.531 -42.518 -29.215  0.00  0.00    +0.307 C 
ATOM     43  O   UNL A   1      31.539 -42.249 -28.554  0.00  0.00    -0.251 OA
BRANCH  42  44
ATOM     44  C   UNL A   1      33.366 -43.767 -29.050  0.00  0.00    +0.045 C 
BRANCH  44  45
ATOM     45  C   UNL A   1      33.747 -43.986 -27.584  0.00  0.00    -0.042 C 
BRANCH  45  46
ATOM     46  C   UNL A   1      34.531 -42.819 -26.979  0.00  0.00    -0.042 C 
BRANCH  46  47
ATOM     47  C   UNL A   1      33.875 -42.219 -25.742  0.00  0.00    +0.049 C 
BRANCH  47  48
ATOM     48  C   UNL A   1      33.437 -40.757 -25.887  0.00  0.00    +0.356 C 
ATOM     49  O   UNL A   1      34.367 -39.974 -26.239  0.00  0.00    -0.246 OA
ATOM     50  O   UNL A   1      32.223 -40.503 -25.657  0.00  0.00    -0.246 OA
ENDBRANCH  47  48
ENDBRANCH  46  47
ENDBRANCH  45  46
ENDBRANCH  44  45
ENDBRANCH  42  44
ENDBRANCH  41  42
ENDBRANCH  27  41
TORSDOF 15
ENDMDL
MODEL 12
REMARK VINA RESULT:    -6.837     22.216     25.980
REMARK INTER + INTRA:         -14.833
REMARK INTER:                 -12.377
REMARK INTRA:                  -2.457
REMARK UNBOUND:                -2.001
REMARK  Name = cpd284.pdb
REMARK  22 active torsions:
REMARK  status: ('A' for Active; 'I' for Inactive)
REMARK    1  A    between atoms: C_2  and  C_3
REMARK    2  A    between atoms: C_2  and  C_4
REMARK    3  A    between atoms: C_7  and  C_8
REMARK    4  A    between atoms: C_14  and  C_15
REMARK    5  A    between atoms: C_18  and  O_19
REMARK    6  A    between atoms: O_19  and  C_20
REMARK    7  A    between atoms: C_20  and  C_22
REMARK    8  A    between atoms: C_22  and  C_23
REMARK    9  A    between atoms: C_23  and  C_24
REMARK   10  A    between atoms: C_24  and  C_25
REMARK   11  A    between atoms: C_25  and  C_26
REMARK   12  A    between atoms: C_29  and  C_30
REMARK   13  A    between atoms: C_29  and  C_31
REMARK   14  A    between atoms: C_35  and  C_36
REMARK   15  A    between atoms: C_37  and  C_38
REMARK   16  A    between atoms: C_40  and  O_41
REMARK   17  A    between atoms: O_41  and  C_42
REMARK   18  A    between atoms: C_42  and  C_44
REMARK   19  A    between atoms: C_44  and  C_45
REMARK   20  A    between atoms: C_45  and  C_46
REMARK   21  A    between atoms: C_46  and  C_47
REMARK   22  A    between atoms: C_47  and  C_48
REMARK                            x       y       z     vdW  Elec       q    Type
REMARK                         _______ _______ _______ _____ _____    ______ ____
ROOT
ATOM      1  C   UNL A   1      43.879 -20.282 -40.472  0.00  0.00    -0.017 C 
ATOM      2  C   UNL A   1      44.155 -21.413 -39.479  0.00  0.00    -0.046 C 
ATOM      3  C   UNL A   1      43.376 -20.985 -38.243  0.00  0.00    -0.043 C 
ATOM      4  C   UNL A   1      43.413 -19.427 -38.236  0.00  0.00    +0.009 C 
ATOM      5  C   UNL A   1      41.956 -18.918 -38.238  0.00  0.00    -0.056 C 
ATOM      6  C   UNL A   1      44.105 -19.000 -39.598  0.00  0.00    -0.022 C 
ATOM      7  C   UNL A   1      45.593 -18.491 -39.429  0.00  0.00    -0.031 C 
ATOM      8  C   UNL A   1      46.204 -18.014 -40.773  0.00  0.00    -0.049 C 
ATOM      9  C   UNL A   1      47.295 -16.938 -40.767  0.00  0.00    -0.049 C 
ATOM     10  C   UNL A   1      47.181 -15.811 -39.717  0.00  0.00    -0.029 C 
ATOM     11  C   UNL A   1      47.605 -14.363 -40.209  0.00  0.00    -0.025 C 
ATOM     12  C   UNL A   1      46.628 -13.834 -41.284  0.00  0.00    -0.059 C 
ATOM     13  C   UNL A   1      49.027 -14.437 -40.843  0.00  0.00    -0.044 C 
ATOM     14  C   UNL A   1      49.683 -13.074 -41.071  0.00  0.00    -0.015 C 
ATOM     15  C   UNL A   1      49.750 -12.245 -39.789  0.00  0.00    +0.108 C 
ATOM     16  C   UNL A   1      48.356 -12.044 -39.117  0.00  0.00    +0.005 C 
ATOM     17  C   UNL A   1      47.480 -11.048 -39.903  0.00  0.00    -0.056 C 
ATOM     18  C   UNL A   1      48.611 -11.385 -37.731  0.00  0.00    -0.056 C 
ATOM     19  C   UNL A   1      47.697 -13.457 -38.921  0.00  0.00    -0.027 C 
ATOM     20  C   UNL A   1      46.372 -13.454 -38.137  0.00  0.00    -0.049 C 
ATOM     21  C   UNL A   1      45.967 -14.869 -37.701  0.00  0.00    -0.047 C 
ATOM     22  C   UNL A   1      45.881 -15.914 -38.855  0.00  0.00    -0.023 C 
ATOM     23  C   UNL A   1      44.598 -15.567 -39.667  0.00  0.00    -0.059 C 
ATOM     24  C   UNL A   1      45.801 -17.422 -38.278  0.00  0.00    -0.020 C 
ATOM     25  C   UNL A   1      47.139 -17.837 -37.560  0.00  0.00    -0.059 C 
ATOM     26  C   UNL A   1      44.711 -17.522 -37.175  0.00  0.00    -0.009 C 
ATOM     27  C   UNL A   1      44.200 -18.947 -37.000  0.00  0.00    +0.109 C 
ENDROOT
BRANCH   1  29
ATOM     28  C   UNL A   1      44.181 -19.656 -42.906  0.00  0.00    -0.099 C 
ATOM     29  C   UNL A   1      44.512 -20.408 -41.841  0.00  0.00    -0.076 C 
ATOM     30  C   UNL A   1      45.647 -21.397 -41.937  0.00  0.00    -0.044 C 
ENDBRANCH   1  29
BRANCH  15  31
ATOM     31  O   UNL A   1      50.328 -10.959 -40.092  0.00  0.00    -0.461 OA
BRANCH  31  32
ATOM     32  C   UNL A   1      51.680 -10.921 -40.250  0.00  0.00    +0.307 C 
ATOM     33  O   UNL A   1      52.498 -11.402 -39.476  0.00  0.00    -0.251 OA
BRANCH  32  34
ATOM     34  C   UNL A   1      52.040 -10.185 -41.514  0.00  0.00    +0.045 C 
BRANCH  34  35
ATOM     35  C   UNL A   1      52.923 -11.039 -42.414  0.00  0.00    -0.042 C 
BRANCH  35  36
ATOM     36  C   UNL A   1      52.117 -11.632 -43.570  0.00  0.00    -0.042 C 
BRANCH  36  37
ATOM     37  C   UNL A   1      52.099 -13.156 -43.516  0.00  0.00    +0.049 C 
BRANCH  37  38
ATOM     38  C   UNL A   1      52.952 -13.855 -44.580  0.00  0.00    +0.356 C 
ATOM     39  O   UNL A   1      52.291 -14.588 -45.371  0.00  0.00    -0.246 OA
ATOM     40  O   UNL A   1      54.192 -13.627 -44.550  0.00  0.00    -0.246 OA
ENDBRANCH  37  38
ENDBRANCH  36  37
ENDBRANCH  35  36
ENDBRANCH  34  35
ENDBRANCH  32  34
ENDBRANCH  31  32
ENDBRANCH  15  31
BRANCH  27  41
ATOM     41  O   UNL A   1      43.547 -19.190 -35.730  0.00  0.00    -0.461 OA
BRANCH  41  42
ATOM     42  C   UNL A   1      44.045 -20.066 -34.814  0.00  0.00    +0.307 C 
ATOM     43  O   UNL A   1      45.194 -20.481 -34.775  0.00  0.00    -0.251 OA
BRANCH  42  44
ATOM     44  C   UNL A   1      42.950 -20.464 -33.852  0.00  0.00    +0.045 C 
BRANCH  44  45
ATOM     45  C   UNL A   1      41.597 -20.548 -34.561  0.00  0.00    -0.042 C 
BRANCH  45  46
ATOM     46  C   UNL A   1      41.369 -21.881 -35.278  0.00  0.00    -0.042 C 
BRANCH  46  47
ATOM     47  C   UNL A   1      40.076 -21.927 -36.085  0.00  0.00    +0.049 C 
BRANCH  47  48
ATOM     48  C   UNL A   1      39.027 -22.917 -35.568  0.00  0.00    +0.356 C 
ATOM     49  O   UNL A   1      38.302 -22.459 -34.637  0.00  0.00    -0.246 OA
ATOM     50  O   UNL A   1      38.993 -24.049 -36.121  0.00  0.00    -0.246 OA
ENDBRANCH  47  48
ENDBRANCH  46  47
ENDBRANCH  45  46
ENDBRANCH  44  45
ENDBRANCH  42  44
ENDBRANCH  41  42
ENDBRANCH  27  41
TORSDOF 15
ENDMDL
MODEL 13
REMARK VINA RESULT:    -6.825      1.999      3.546
REMARK INTER + INTRA:         -14.810
REMARK INTER:                 -13.505
REMARK INTRA:                  -1.305
REMARK UNBOUND:                -2.001
REMARK  Name = cpd284.pdb
REMARK  22 active torsions:
REMARK  status: ('A' for Active; 'I' for Inactive)
REMARK    1  A    between atoms: C_2  and  C_3
REMARK    2  A    between atoms: C_2  and  C_4
REMARK    3  A    between atoms: C_7  and  C_8
REMARK    4  A    between atoms: C_14  and  C_15
REMARK    5  A    between atoms: C_18  and  O_19
REMARK    6  A    between atoms: O_19  and  C_20
REMARK    7  A    between atoms: C_20  and  C_22
REMARK    8  A    between atoms: C_22  and  C_23
REMARK    9  A    between atoms: C_23  and  C_24
REMARK   10  A    between atoms: C_24  and  C_25
REMARK   11  A    between atoms: C_25  and  C_26
REMARK   12  A    between atoms: C_29  and  C_30
REMARK   13  A    between atoms: C_29  and  C_31
REMARK   14  A    between atoms: C_35  and  C_36
REMARK   15  A    between atoms: C_37  and  C_38
REMARK   16  A    between atoms: C_40  and  O_41
REMARK   17  A    between atoms: O_41  and  C_42
REMARK   18  A    between atoms: C_42  and  C_44
REMARK   19  A    between atoms: C_44  and  C_45
REMARK   20  A    between atoms: C_45  and  C_46
REMARK   21  A    between atoms: C_46  and  C_47
REMARK   22  A    between atoms: C_47  and  C_48
REMARK                            x       y       z     vdW  Elec       q    Type
REMARK                         _______ _______ _______ _____ _____    ______ ____
ROOT
ATOM      1  C   UNL A   1      34.474 -39.935 -28.695  0.00  0.00    -0.017 C 
ATOM      2  C   UNL A   1      35.070 -40.628 -29.922  0.00  0.00    -0.046 C 
ATOM      3  C   UNL A   1      36.359 -39.855 -30.162  0.00  0.00    -0.043 C 
ATOM      4  C   UNL A   1      36.069 -38.393 -29.707  0.00  0.00    +0.009 C 
ATOM      5  C   UNL A   1      37.098 -38.023 -28.617  0.00  0.00    -0.056 C 
ATOM      6  C   UNL A   1      34.623 -38.417 -29.057  0.00  0.00    -0.022 C 
ATOM      7  C   UNL A   1      33.500 -37.774 -29.967  0.00  0.00    -0.031 C 
ATOM      8  C   UNL A   1      32.118 -37.750 -29.262  0.00  0.00    -0.049 C 
ATOM      9  C   UNL A   1      31.102 -36.664 -29.629  0.00  0.00    -0.049 C 
ATOM     10  C   UNL A   1      31.647 -35.254 -29.946  0.00  0.00    -0.029 C 
ATOM     11  C   UNL A   1      30.771 -34.040 -29.420  0.00  0.00    -0.025 C 
ATOM     12  C   UNL A   1      30.763 -33.988 -27.875  0.00  0.00    -0.059 C 
ATOM     13  C   UNL A   1      29.301 -34.226 -29.904  0.00  0.00    -0.044 C 
ATOM     14  C   UNL A   1      28.425 -32.984 -29.738  0.00  0.00    -0.015 C 
ATOM     15  C   UNL A   1      29.026 -31.758 -30.427  0.00  0.00    +0.108 C 
ATOM     16  C   UNL A   1      30.476 -31.437 -29.948  0.00  0.00    +0.005 C 
ATOM     17  C   UNL A   1      30.491 -30.842 -28.525  0.00  0.00    -0.056 C 
ATOM     18  C   UNL A   1      31.027 -30.322 -30.881  0.00  0.00    -0.056 C 
ATOM     19  C   UNL A   1      31.343 -32.739 -30.104  0.00  0.00    -0.027 C 
ATOM     20  C   UNL A   1      32.845 -32.560 -29.809  0.00  0.00    -0.049 C 
ATOM     21  C   UNL A   1      33.666 -33.761 -30.298  0.00  0.00    -0.047 C 
ATOM     22  C   UNL A   1      33.196 -35.145 -29.755  0.00  0.00    -0.023 C 
ATOM     23  C   UNL A   1      33.616 -35.195 -28.256  0.00  0.00    -0.059 C 
ATOM     24  C   UNL A   1      33.872 -36.360 -30.578  0.00  0.00    -0.020 C 
ATOM     25  C   UNL A   1      33.361 -36.402 -32.067  0.00  0.00    -0.059 C 
ATOM     26  C   UNL A   1      35.406 -36.150 -30.691  0.00  0.00    -0.009 C 
ATOM     27  C   UNL A   1      36.150 -37.458 -30.931  0.00  0.00    +0.109 C 
ENDROOT
BRANCH   1  29
ATOM     28  C   UNL A   1      32.333 -41.274 -28.878  0.00  0.00    -0.099 C 
ATOM     29  C   UNL A   1      33.162 -40.482 -28.174  0.00  0.00    -0.076 C 
ATOM     30  C   UNL A   1      32.856 -40.156 -26.734  0.00  0.00    -0.044 C 
ENDBRANCH   1  29
BRANCH  15  31
ATOM     31  O   UNL A   1      28.176 -30.619 -30.183  0.00  0.00    -0.461 OA
BRANCH  31  32
ATOM     32  C   UNL A   1      27.757 -29.926 -31.278  0.00  0.00    +0.307 C 
ATOM     33  O   UNL A   1      27.570 -30.403 -32.390  0.00  0.00    -0.251 OA
BRANCH  32  34
ATOM     34  C   UNL A   1      27.564 -28.472 -30.937  0.00  0.00    +0.045 C 
BRANCH  34  35
ATOM     35  C   UNL A   1      27.844 -28.211 -29.463  0.00  0.00    -0.042 C 
BRANCH  35  36
ATOM     36  C   UNL A   1      28.796 -27.029 -29.285  0.00  0.00    -0.042 C 
BRANCH  36  37
ATOM     37  C   UNL A   1      28.050 -25.770 -28.855  0.00  0.00    +0.049 C 
BRANCH  37  38
ATOM     38  C   UNL A   1      28.244 -24.555 -29.769  0.00  0.00    +0.356 C 
ATOM     39  O   UNL A   1      29.042 -23.687 -29.312  0.00  0.00    -0.246 OA
ATOM     40  O   UNL A   1      27.599 -24.555 -30.853  0.00  0.00    -0.246 OA
ENDBRANCH  37  38
ENDBRANCH  36  37
ENDBRANCH  35  36
ENDBRANCH  34  35
ENDBRANCH  32  34
ENDBRANCH  31  32
ENDBRANCH  15  31
BRANCH  27  41
ATOM     41  O   UNL A   1      37.479 -37.292 -31.484  0.00  0.00    -0.461 OA
BRANCH  41  42
ATOM     42  C   UNL A   1      38.312 -36.294 -31.081  0.00  0.00    +0.307 C 
ATOM     43  O   UNL A   1      38.030 -35.105 -31.032  0.00  0.00    -0.251 OA
BRANCH  42  44
ATOM     44  C   UNL A   1      39.656 -36.879 -30.714  0.00  0.00    +0.045 C 
BRANCH  44  45
ATOM     45  C   UNL A   1      40.783 -35.878 -30.976  0.00  0.00    -0.042 C 
BRANCH  45  46
ATOM     46  C   UNL A   1      41.776 -36.347 -32.043  0.00  0.00    -0.042 C 
BRANCH  46  47
ATOM     47  C   UNL A   1      42.198 -37.803 -31.885  0.00  0.00    +0.049 C 
BRANCH  47  48
ATOM     48  C   UNL A   1      43.009 -38.107 -30.621  0.00  0.00    +0.356 C 
ATOM     49  O   UNL A   1      44.167 -37.596 -30.617  0.00  0.00    -0.246 OA
ATOM     50  O   UNL A   1      42.444 -38.808 -29.739  0.00  0.00    -0.246 OA
ENDBRANCH  47  48
ENDBRANCH  46  47
ENDBRANCH  45  46
ENDBRANCH  44  45
ENDBRANCH  42  44
ENDBRANCH  41  42
ENDBRANCH  27  41
TORSDOF 15
ENDMDL
MODEL 14
REMARK VINA RESULT:    -6.659      5.160      9.756
REMARK INTER + INTRA:         -14.500
REMARK INTER:                 -12.560
REMARK INTRA:                  -1.940
REMARK UNBOUND:                -2.001
REMARK  Name = cpd284.pdb
REMARK  22 active torsions:
REMARK  status: ('A' for Active; 'I' for Inactive)
REMARK    1  A    between atoms: C_2  and  C_3
REMARK    2  A    between atoms: C_2  and  C_4
REMARK    3  A    between atoms: C_7  and  C_8
REMARK    4  A    between atoms: C_14  and  C_15
REMARK    5  A    between atoms: C_18  and  O_19
REMARK    6  A    between atoms: O_19  and  C_20
REMARK    7  A    between atoms: C_20  and  C_22
REMARK    8  A    between atoms: C_22  and  C_23
REMARK    9  A    between atoms: C_23  and  C_24
REMARK   10  A    between atoms: C_24  and  C_25
REMARK   11  A    between atoms: C_25  and  C_26
REMARK   12  A    between atoms: C_29  and  C_30
REMARK   13  A    between atoms: C_29  and  C_31
REMARK   14  A    between atoms: C_35  and  C_36
REMARK   15  A    between atoms: C_37  and  C_38
REMARK   16  A    between atoms: C_40  and  O_41
REMARK   17  A    between atoms: O_41  and  C_42
REMARK   18  A    between atoms: C_42  and  C_44
REMARK   19  A    between atoms: C_44  and  C_45
REMARK   20  A    between atoms: C_45  and  C_46
REMARK   21  A    between atoms: C_46  and  C_47
REMARK   22  A    between atoms: C_47  and  C_48
REMARK                            x       y       z     vdW  Elec       q    Type
REMARK                         _______ _______ _______ _____ _____    ______ ____
ROOT
ATOM      1  C   UNL A   1      32.905 -38.405 -26.578  0.00  0.00    -0.017 C 
ATOM      2  C   UNL A   1      34.260 -38.169 -25.909  0.00  0.00    -0.046 C 
ATOM      3  C   UNL A   1      34.869 -37.055 -26.747  0.00  0.00    -0.043 C 
ATOM      4  C   UNL A   1      34.336 -37.272 -28.195  0.00  0.00    +0.009 C 
ATOM      5  C   UNL A   1      33.603 -35.985 -28.628  0.00  0.00    -0.056 C 
ATOM      6  C   UNL A   1      33.283 -38.453 -28.099  0.00  0.00    -0.022 C 
ATOM      7  C   UNL A   1      33.807 -39.831 -28.674  0.00  0.00    -0.031 C 
ATOM      8  C   UNL A   1      32.720 -40.936 -28.630  0.00  0.00    -0.049 C 
ATOM      9  C   UNL A   1      32.755 -42.071 -29.657  0.00  0.00    -0.049 C 
ATOM     10  C   UNL A   1      33.209 -41.723 -31.092  0.00  0.00    -0.029 C 
ATOM     11  C   UNL A   1      32.434 -42.464 -32.261  0.00  0.00    -0.025 C 
ATOM     12  C   UNL A   1      30.958 -42.010 -32.325  0.00  0.00    -0.059 C 
ATOM     13  C   UNL A   1      32.456 -43.999 -31.993  0.00  0.00    -0.044 C 
ATOM     14  C   UNL A   1      32.025 -44.850 -33.188  0.00  0.00    -0.015 C 
ATOM     15  C   UNL A   1      32.851 -44.550 -34.438  0.00  0.00    +0.108 C 
ATOM     16  C   UNL A   1      32.828 -43.042 -34.840  0.00  0.00    +0.005 C 
ATOM     17  C   UNL A   1      31.470 -42.633 -35.446  0.00  0.00    -0.056 C 
ATOM     18  C   UNL A   1      33.874 -42.858 -35.976  0.00  0.00    -0.056 C 
ATOM     19  C   UNL A   1      33.248 -42.194 -33.586  0.00  0.00    -0.027 C 
ATOM     20  C   UNL A   1      33.416 -40.685 -33.847  0.00  0.00    -0.049 C 
ATOM     21  C   UNL A   1      34.139 -39.986 -32.688  0.00  0.00    -0.047 C 
ATOM     22  C   UNL A   1      33.492 -40.197 -31.285  0.00  0.00    -0.023 C 
ATOM     23  C   UNL A   1      32.189 -39.343 -31.269  0.00  0.00    -0.059 C 
ATOM     24  C   UNL A   1      34.490 -39.735 -30.100  0.00  0.00    -0.020 C 
ATOM     25  C   UNL A   1      35.757 -40.667 -30.019  0.00  0.00    -0.059 C 
ATOM     26  C   UNL A   1      35.057 -38.319 -30.392  0.00  0.00    -0.009 C 
ATOM     27  C   UNL A   1      35.520 -37.613 -29.123  0.00  0.00    +0.109 C 
ENDROOT
BRANCH   1  29
ATOM     28  C   UNL A   1      30.700 -39.592 -26.204  0.00  0.00    -0.099 C 
ATOM     29  C   UNL A   1      32.019 -39.469 -25.966  0.00  0.00    -0.076 C 
ATOM     30  C   UNL A   1      32.732 -40.487 -25.111  0.00  0.00    -0.044 C 
ENDBRANCH   1  29
BRANCH  15  31
ATOM     31  O   UNL A   1      32.354 -45.347 -35.533  0.00  0.00    -0.461 OA
BRANCH  31  32
ATOM     32  C   UNL A   1      33.193 -46.301 -36.022  0.00  0.00    +0.307 C 
ATOM     33  O   UNL A   1      32.965 -47.020 -36.986  0.00  0.00    -0.251 OA
BRANCH  32  34
ATOM     34  C   UNL A   1      34.452 -46.366 -35.197  0.00  0.00    +0.045 C 
BRANCH  34  35
ATOM     35  C   UNL A   1      34.653 -47.756 -34.609  0.00  0.00    -0.042 C 
BRANCH  35  36
ATOM     36  C   UNL A   1      34.467 -47.743 -33.093  0.00  0.00    -0.042 C 
BRANCH  36  37
ATOM     37  C   UNL A   1      33.131 -48.355 -32.687  0.00  0.00    +0.049 C 
BRANCH  37  38
ATOM     38  C   UNL A   1      33.110 -49.011 -31.302  0.00  0.00    +0.356 C 
ATOM     39  O   UNL A   1      32.151 -48.637 -30.567  0.00  0.00    -0.246 OA
ATOM     40  O   UNL A   1      34.033 -49.834 -31.052  0.00  0.00    -0.246 OA
ENDBRANCH  37  38
ENDBRANCH  36  37
ENDBRANCH  35  36
ENDBRANCH  34  35
ENDBRANCH  32  34
ENDBRANCH  31  32
ENDBRANCH  15  31
BRANCH  27  41
ATOM     41  O   UNL A   1      36.445 -36.522 -29.355  0.00  0.00    -0.461 OA
BRANCH  41  42
ATOM     42  C   UNL A   1      36.517 -35.876 -30.551  0.00  0.00    +0.307 C 
ATOM     43  O   UNL A   1      35.759 -34.997 -30.935  0.00  0.00    -0.251 OA
BRANCH  42  44
ATOM     44  C   UNL A   1      37.679 -36.422 -31.348  0.00  0.00    +0.045 C 
BRANCH  44  45
ATOM     45  C   UNL A   1      38.918 -36.598 -30.467  0.00  0.00    -0.042 C 
BRANCH  45  46
ATOM     46  C   UNL A   1      40.234 -36.478 -31.240  0.00  0.00    -0.042 C 
BRANCH  46  47
ATOM     47  C   UNL A   1      41.471 -36.684 -30.373  0.00  0.00    +0.049 C 
BRANCH  47  48
ATOM     48  C   UNL A   1      41.874 -38.148 -30.161  0.00  0.00    +0.356 C 
ATOM     49  O   UNL A   1      41.508 -38.626 -29.048  0.00  0.00    -0.246 OA
ATOM     50  O   UNL A   1      42.503 -38.705 -31.102  0.00  0.00    -0.246 OA
ENDBRANCH  47  48
ENDBRANCH  46  47
ENDBRANCH  45  46
ENDBRANCH  44  45
ENDBRANCH  42  44
ENDBRANCH  41  42
ENDBRANCH  27  41
TORSDOF 15
ENDMDL
MODEL 15
REMARK VINA RESULT:    -6.498      4.213      9.020
REMARK INTER + INTRA:         -14.196
REMARK INTER:                 -12.054
REMARK INTRA:                  -2.142
REMARK UNBOUND:                -2.001
REMARK  Name = cpd284.pdb
REMARK  22 active torsions:
REMARK  status: ('A' for Active; 'I' for Inactive)
REMARK    1  A    between atoms: C_2  and  C_3
REMARK    2  A    between atoms: C_2  and  C_4
REMARK    3  A    between atoms: C_7  and  C_8
REMARK    4  A    between atoms: C_14  and  C_15
REMARK    5  A    between atoms: C_18  and  O_19
REMARK    6  A    between atoms: O_19  and  C_20
REMARK    7  A    between atoms: C_20  and  C_22
REMARK    8  A    between atoms: C_22  and  C_23
REMARK    9  A    between atoms: C_23  and  C_24
REMARK   10  A    between atoms: C_24  and  C_25
REMARK   11  A    between atoms: C_25  and  C_26
REMARK   12  A    between atoms: C_29  and  C_30
REMARK   13  A    between atoms: C_29  and  C_31
REMARK   14  A    between atoms: C_35  and  C_36
REMARK   15  A    between atoms: C_37  and  C_38
REMARK   16  A    between atoms: C_40  and  O_41
REMARK   17  A    between atoms: O_41  and  C_42
REMARK   18  A    between atoms: C_42  and  C_44
REMARK   19  A    between atoms: C_44  and  C_45
REMARK   20  A    between atoms: C_45  and  C_46
REMARK   21  A    between atoms: C_46  and  C_47
REMARK   22  A    between atoms: C_47  and  C_48
REMARK                            x       y       z     vdW  Elec       q    Type
REMARK                         _______ _______ _______ _____ _____    ______ ____
ROOT
ATOM      1  C   UNL A   1      31.984 -32.872 -30.590  0.00  0.00    -0.017 C 
ATOM      2  C   UNL A   1      33.295 -32.084 -30.559  0.00  0.00    -0.046 C 
ATOM      3  C   UNL A   1      34.176 -32.843 -31.540  0.00  0.00    -0.043 C 
ATOM      4  C   UNL A   1      33.741 -34.335 -31.435  0.00  0.00    +0.009 C 
ATOM      5  C   UNL A   1      33.307 -34.803 -32.841  0.00  0.00    -0.056 C 
ATOM      6  C   UNL A   1      32.478 -34.356 -30.477  0.00  0.00    -0.022 C 
ATOM      7  C   UNL A   1      32.780 -34.912 -29.027  0.00  0.00    -0.031 C 
ATOM      8  C   UNL A   1      31.502 -34.985 -28.151  0.00  0.00    -0.049 C 
ATOM      9  C   UNL A   1      31.411 -36.030 -27.034  0.00  0.00    -0.049 C 
ATOM     10  C   UNL A   1      32.048 -37.412 -27.296  0.00  0.00    -0.029 C 
ATOM     11  C   UNL A   1      31.252 -38.659 -26.722  0.00  0.00    -0.025 C 
ATOM     12  C   UNL A   1      29.901 -38.839 -27.450  0.00  0.00    -0.059 C 
ATOM     13  C   UNL A   1      30.958 -38.423 -25.209  0.00  0.00    -0.044 C 
ATOM     14  C   UNL A   1      30.479 -39.668 -24.462  0.00  0.00    -0.015 C 
ATOM     15  C   UNL A   1      31.455 -40.836 -24.604  0.00  0.00    +0.108 C 
ATOM     16  C   UNL A   1      31.755 -41.206 -26.090  0.00  0.00    +0.005 C 
ATOM     17  C   UNL A   1      30.558 -41.918 -26.754  0.00  0.00    -0.056 C 
ATOM     18  C   UNL A   1      32.913 -42.244 -26.076  0.00  0.00    -0.056 C 
ATOM     19  C   UNL A   1      32.216 -39.903 -26.837  0.00  0.00    -0.027 C 
ATOM     20  C   UNL A   1      32.691 -40.117 -28.286  0.00  0.00    -0.049 C 
ATOM     21  C   UNL A   1      33.428 -38.885 -28.829  0.00  0.00    -0.047 C 
ATOM     22  C   UNL A   1      32.632 -37.548 -28.740  0.00  0.00    -0.023 C 
ATOM     23  C   UNL A   1      31.519 -37.626 -29.827  0.00  0.00    -0.059 C 
ATOM     24  C   UNL A   1      33.591 -36.273 -28.997  0.00  0.00    -0.020 C 
ATOM     25  C   UNL A   1      34.645 -36.103 -27.839  0.00  0.00    -0.059 C 
ATOM     26  C   UNL A   1      34.441 -36.484 -30.280  0.00  0.00    -0.009 C 
ATOM     27  C   UNL A   1      34.916 -35.166 -30.878  0.00  0.00    +0.109 C 
ENDROOT
BRANCH   1  29
ATOM     28  C   UNL A   1      31.007 -31.434 -28.749  0.00  0.00    -0.099 C 
ATOM     29  C   UNL A   1      30.861 -32.361 -29.713  0.00  0.00    -0.076 C 
ATOM     30  C   UNL A   1      29.490 -32.897 -30.044  0.00  0.00    -0.044 C 
ENDBRANCH   1  29
BRANCH  15  31
ATOM     31  O   UNL A   1      30.914 -41.986 -23.922  0.00  0.00    -0.461 OA
BRANCH  31  32
ATOM     32  C   UNL A   1      31.639 -42.472 -22.877  0.00  0.00    +0.307 C 
ATOM     33  O   UNL A   1      31.406 -43.512 -22.274  0.00  0.00    -0.251 OA
BRANCH  32  34
ATOM     34  C   UNL A   1      32.775 -41.538 -22.548  0.00  0.00    +0.045 C 
BRANCH  34  35
ATOM     35  C   UNL A   1      32.882 -41.311 -21.046  0.00  0.00    -0.042 C 
BRANCH  35  36
ATOM     36  C   UNL A   1      33.732 -40.080 -20.735  0.00  0.00    -0.042 C 
BRANCH  36  37
ATOM     37  C   UNL A   1      33.707 -39.077 -21.884  0.00  0.00    +0.049 C 
BRANCH  37  38
ATOM     38  C   UNL A   1      32.766 -37.884 -21.686  0.00  0.00    +0.356 C 
ATOM     39  O   UNL A   1      32.844 -37.008 -22.595  0.00  0.00    -0.246 OA
ATOM     40  O   UNL A   1      32.033 -37.906 -20.659  0.00  0.00    -0.246 OA
ENDBRANCH  37  38
ENDBRANCH  36  37
ENDBRANCH  35  36
ENDBRANCH  34  35
ENDBRANCH  32  34
ENDBRANCH  31  32
ENDBRANCH  15  31
BRANCH  27  41
ATOM     41  O   UNL A   1      36.048 -35.295 -31.773  0.00  0.00    -0.461 OA
BRANCH  41  42
ATOM     42  C   UNL A   1      37.319 -35.006 -31.379  0.00  0.00    +0.307 C 
ATOM     43  O   UNL A   1      37.985 -34.054 -31.758  0.00  0.00    -0.251 OA
BRANCH  42  44
ATOM     44  C   UNL A   1      37.794 -36.059 -30.405  0.00  0.00    +0.045 C 
BRANCH  44  45
ATOM     45  C   UNL A   1      38.862 -36.954 -31.036  0.00  0.00    -0.042 C 
BRANCH  45  46
ATOM     46  C   UNL A   1      40.156 -37.023 -30.221  0.00  0.00    -0.042 C 
BRANCH  46  47
ATOM     47  C   UNL A   1      41.282 -36.167 -30.790  0.00  0.00    +0.049 C 
BRANCH  47  48
ATOM     48  C   UNL A   1      42.557 -36.936 -31.153  0.00  0.00    +0.356 C 
ATOM     49  O   UNL A   1      42.349 -37.985 -31.832  0.00  0.00    -0.246 OA
ATOM     50  O   UNL A   1      43.649 -36.446 -30.756  0.00  0.00    -0.246 OA
ENDBRANCH  47  48
ENDBRANCH  46  47
ENDBRANCH  45  46
ENDBRANCH  44  45
ENDBRANCH  42  44
ENDBRANCH  41  42
ENDBRANCH  27  41
TORSDOF 15
ENDMDL
MODEL 16
REMARK VINA RESULT:    -6.465      3.772      6.630
REMARK INTER + INTRA:         -14.135
REMARK INTER:                 -12.092
REMARK INTRA:                  -2.043
REMARK UNBOUND:                -2.001
REMARK  Name = cpd284.pdb
REMARK  22 active torsions:
REMARK  status: ('A' for Active; 'I' for Inactive)
REMARK    1  A    between atoms: C_2  and  C_3
REMARK    2  A    between atoms: C_2  and  C_4
REMARK    3  A    between atoms: C_7  and  C_8
REMARK    4  A    between atoms: C_14  and  C_15
REMARK    5  A    between atoms: C_18  and  O_19
REMARK    6  A    between atoms: O_19  and  C_20
REMARK    7  A    between atoms: C_20  and  C_22
REMARK    8  A    between atoms: C_22  and  C_23
REMARK    9  A    between atoms: C_23  and  C_24
REMARK   10  A    between atoms: C_24  and  C_25
REMARK   11  A    between atoms: C_25  and  C_26
REMARK   12  A    between atoms: C_29  and  C_30
REMARK   13  A    between atoms: C_29  and  C_31
REMARK   14  A    between atoms: C_35  and  C_36
REMARK   15  A    between atoms: C_37  and  C_38
REMARK   16  A    between atoms: C_40  and  O_41
REMARK   17  A    between atoms: O_41  and  C_42
REMARK   18  A    between atoms: C_42  and  C_44
REMARK   19  A    between atoms: C_44  and  C_45
REMARK   20  A    between atoms: C_45  and  C_46
REMARK   21  A    between atoms: C_46  and  C_47
REMARK   22  A    between atoms: C_47  and  C_48
REMARK                            x       y       z     vdW  Elec       q    Type
REMARK                         _______ _______ _______ _____ _____    ______ ____
ROOT
ATOM      1  C   UNL A   1      37.044 -39.085 -29.850  0.00  0.00    -0.017 C 
ATOM      2  C   UNL A   1      36.887 -40.310 -28.948  0.00  0.00    -0.046 C 
ATOM      3  C   UNL A   1      36.006 -41.236 -29.774  0.00  0.00    -0.043 C 
ATOM      4  C   UNL A   1      35.073 -40.305 -30.605  0.00  0.00    +0.009 C 
ATOM      5  C   UNL A   1      35.283 -40.632 -32.098  0.00  0.00    -0.056 C 
ATOM      6  C   UNL A   1      35.574 -38.826 -30.329  0.00  0.00    -0.022 C 
ATOM      7  C   UNL A   1      34.632 -37.997 -29.366  0.00  0.00    -0.031 C 
ATOM      8  C   UNL A   1      35.119 -36.535 -29.186  0.00  0.00    -0.049 C 
ATOM      9  C   UNL A   1      34.102 -35.433 -28.874  0.00  0.00    -0.049 C 
ATOM     10  C   UNL A   1      32.713 -35.532 -29.542  0.00  0.00    -0.029 C 
ATOM     11  C   UNL A   1      32.074 -34.159 -30.015  0.00  0.00    -0.025 C 
ATOM     12  C   UNL A   1      32.889 -33.535 -31.171  0.00  0.00    -0.059 C 
ATOM     13  C   UNL A   1      32.083 -33.156 -28.821  0.00  0.00    -0.044 C 
ATOM     14  C   UNL A   1      31.221 -31.913 -29.041  0.00  0.00    -0.015 C 
ATOM     15  C   UNL A   1      29.774 -32.269 -29.384  0.00  0.00    +0.108 C 
ATOM     16  C   UNL A   1      29.651 -33.210 -30.622  0.00  0.00    +0.005 C 
ATOM     17  C   UNL A   1      29.947 -32.464 -31.939  0.00  0.00    -0.056 C 
ATOM     18  C   UNL A   1      28.164 -33.655 -30.709  0.00  0.00    -0.056 C 
ATOM     19  C   UNL A   1      30.569 -34.462 -30.378  0.00  0.00    -0.027 C 
ATOM     20  C   UNL A   1      30.458 -35.568 -31.445  0.00  0.00    -0.049 C 
ATOM     21  C   UNL A   1      31.112 -36.875 -30.978  0.00  0.00    -0.047 C 
ATOM     22  C   UNL A   1      32.598 -36.743 -30.525  0.00  0.00    -0.023 C 
ATOM     23  C   UNL A   1      33.436 -36.538 -31.823  0.00  0.00    -0.059 C 
ATOM     24  C   UNL A   1      33.091 -38.061 -29.731  0.00  0.00    -0.020 C 
ATOM     25  C   UNL A   1      32.343 -38.217 -28.354  0.00  0.00    -0.059 C 
ATOM     26  C   UNL A   1      32.725 -39.342 -30.529  0.00  0.00    -0.009 C 
ATOM     27  C   UNL A   1      33.612 -40.524 -30.157  0.00  0.00    +0.109 C 
ENDROOT
BRANCH   1  29
ATOM     28  C   UNL A   1      38.371 -36.940 -30.067  0.00  0.00    -0.099 C 
ATOM     29  C   UNL A   1      37.896 -37.952 -29.319  0.00  0.00    -0.076 C 
ATOM     30  C   UNL A   1      38.122 -37.962 -27.827  0.00  0.00    -0.044 C 
ENDBRANCH   1  29
BRANCH  15  31
ATOM     31  O   UNL A   1      29.037 -31.053 -29.629  0.00  0.00    -0.461 OA
BRANCH  31  32
ATOM     32  C   UNL A   1      27.959 -30.822 -28.829  0.00  0.00    +0.307 C 
ATOM     33  O   UNL A   1      27.735 -31.379 -27.762  0.00  0.00    -0.251 OA
BRANCH  32  34
ATOM     34  C   UNL A   1      27.059 -29.784 -29.449  0.00  0.00    +0.045 C 
BRANCH  34  35
ATOM     35  C   UNL A   1      27.627 -28.384 -29.263  0.00  0.00    -0.042 C 
BRANCH  35  36
ATOM     36  C   UNL A   1      27.318 -27.847 -27.866  0.00  0.00    -0.042 C 
BRANCH  36  37
ATOM     37  C   UNL A   1      28.063 -26.546 -27.588  0.00  0.00    +0.049 C 
BRANCH  37  38
ATOM     38  C   UNL A   1      27.930 -25.475 -28.677  0.00  0.00    +0.356 C 
ATOM     39  O   UNL A   1      29.010 -25.215 -29.281  0.00  0.00    -0.246 OA
ATOM     40  O   UNL A   1      26.782 -24.980 -28.846  0.00  0.00    -0.246 OA
ENDBRANCH  37  38
ENDBRANCH  36  37
ENDBRANCH  35  36
ENDBRANCH  34  35
ENDBRANCH  32  34
ENDBRANCH  31  32
ENDBRANCH  15  31
BRANCH  27  41
ATOM     41  O   UNL A   1      33.057 -41.816 -30.506  0.00  0.00    -0.461 OA
BRANCH  41  42
ATOM     42  C   UNL A   1      31.719 -42.064 -30.466  0.00  0.00    +0.307 C 
ATOM     43  O   UNL A   1      31.035 -42.135 -29.455  0.00  0.00    -0.251 OA
BRANCH  42  44
ATOM     44  C   UNL A   1      31.202 -42.255 -31.873  0.00  0.00    +0.045 C 
BRANCH  44  45
ATOM     45  C   UNL A   1      32.307 -42.760 -32.803  0.00  0.00    -0.042 C 
BRANCH  45  46
ATOM     46  C   UNL A   1      32.182 -42.234 -34.236  0.00  0.00    -0.042 C 
BRANCH  46  47
ATOM     47  C   UNL A   1      33.473 -42.342 -35.040  0.00  0.00    +0.049 C 
BRANCH  47  48
ATOM     48  C   UNL A   1      33.511 -41.495 -36.317  0.00  0.00    +0.356 C 
ATOM     49  O   UNL A   1      32.452 -40.835 -36.528  0.00  0.00    -0.246 OA
ATOM     50  O   UNL A   1      34.572 -41.540 -36.996  0.00  0.00    -0.246 OA
ENDBRANCH  47  48
ENDBRANCH  46  47
ENDBRANCH  45  46
ENDBRANCH  44  45
ENDBRANCH  42  44
ENDBRANCH  41  42
ENDBRANCH  27  41
TORSDOF 15
ENDMDL
MODEL 17
REMARK VINA RESULT:    -6.464      3.013      5.000
REMARK INTER + INTRA:         -14.134
REMARK INTER:                 -11.926
REMARK INTRA:                  -2.208
REMARK UNBOUND:                -2.001
REMARK  Name = cpd284.pdb
REMARK  22 active torsions:
REMARK  status: ('A' for Active; 'I' for Inactive)
REMARK    1  A    between atoms: C_2  and  C_3
REMARK    2  A    between atoms: C_2  and  C_4
REMARK    3  A    between atoms: C_7  and  C_8
REMARK    4  A    between atoms: C_14  and  C_15
REMARK    5  A    between atoms: C_18  and  O_19
REMARK    6  A    between atoms: O_19  and  C_20
REMARK    7  A    between atoms: C_20  and  C_22
REMARK    8  A    between atoms: C_22  and  C_23
REMARK    9  A    between atoms: C_23  and  C_24
REMARK   10  A    between atoms: C_24  and  C_25
REMARK   11  A    between atoms: C_25  and  C_26
REMARK   12  A    between atoms: C_29  and  C_30
REMARK   13  A    between atoms: C_29  and  C_31
REMARK   14  A    between atoms: C_35  and  C_36
REMARK   15  A    between atoms: C_37  and  C_38
REMARK   16  A    between atoms: C_40  and  O_41
REMARK   17  A    between atoms: O_41  and  C_42
REMARK   18  A    between atoms: C_42  and  C_44
REMARK   19  A    between atoms: C_44  and  C_45
REMARK   20  A    between atoms: C_45  and  C_46
REMARK   21  A    between atoms: C_46  and  C_47
REMARK   22  A    between atoms: C_47  and  C_48
REMARK                            x       y       z     vdW  Elec       q    Type
REMARK                         _______ _______ _______ _____ _____    ______ ____
ROOT
ATOM      1  C   UNL A   1      31.936 -38.784 -32.137  0.00  0.00    -0.017 C 
ATOM      2  C   UNL A   1      33.325 -38.844 -32.777  0.00  0.00    -0.046 C 
ATOM      3  C   UNL A   1      34.258 -38.605 -31.599  0.00  0.00    -0.043 C 
ATOM      4  C   UNL A   1      33.488 -37.656 -30.633  0.00  0.00    +0.009 C 
ATOM      5  C   UNL A   1      33.385 -38.357 -29.261  0.00  0.00    -0.056 C 
ATOM      6  C   UNL A   1      32.031 -37.502 -31.240  0.00  0.00    -0.022 C 
ATOM      7  C   UNL A   1      31.769 -36.107 -31.938  0.00  0.00    -0.031 C 
ATOM      8  C   UNL A   1      30.311 -35.972 -32.450  0.00  0.00    -0.049 C 
ATOM      9  C   UNL A   1      29.671 -34.584 -32.548  0.00  0.00    -0.049 C 
ATOM     10  C   UNL A   1      30.029 -33.553 -31.455  0.00  0.00    -0.029 C 
ATOM     11  C   UNL A   1      28.843 -32.614 -30.976  0.00  0.00    -0.025 C 
ATOM     12  C   UNL A   1      27.754 -33.426 -30.238  0.00  0.00    -0.059 C 
ATOM     13  C   UNL A   1      28.186 -31.947 -32.223  0.00  0.00    -0.044 C 
ATOM     14  C   UNL A   1      27.246 -30.788 -31.891  0.00  0.00    -0.015 C 
ATOM     15  C   UNL A   1      27.934 -29.710 -31.053  0.00  0.00    +0.108 C 
ATOM     16  C   UNL A   1      28.558 -30.265 -29.735  0.00  0.00    +0.005 C 
ATOM     17  C   UNL A   1      27.476 -30.611 -28.691  0.00  0.00    -0.056 C 
ATOM     18  C   UNL A   1      29.399 -29.116 -29.110  0.00  0.00    -0.056 C 
ATOM     19  C   UNL A   1      29.495 -31.471 -30.105  0.00  0.00    -0.027 C 
ATOM     20  C   UNL A   1      30.306 -32.049 -28.931  0.00  0.00    -0.049 C 
ATOM     21  C   UNL A   1      31.426 -32.980 -29.419  0.00  0.00    -0.047 C 
ATOM     22  C   UNL A   1      30.958 -34.144 -30.345  0.00  0.00    -0.023 C 
ATOM     23  C   UNL A   1      30.217 -35.163 -29.429  0.00  0.00    -0.059 C 
ATOM     24  C   UNL A   1      32.211 -34.847 -31.085  0.00  0.00    -0.020 C 
ATOM     25  C   UNL A   1      32.897 -33.869 -32.110  0.00  0.00    -0.059 C 
ATOM     26  C   UNL A   1      33.324 -35.189 -30.057  0.00  0.00    -0.009 C 
ATOM     27  C   UNL A   1      34.234 -36.308 -30.547  0.00  0.00    +0.109 C 
ENDROOT
BRANCH   1  29
ATOM     28  C   UNL A   1      30.801 -38.905 -34.396  0.00  0.00    -0.099 C 
ATOM     29  C   UNL A   1      30.752 -39.001 -33.056  0.00  0.00    -0.076 C 
ATOM     30  C   UNL A   1      29.480 -39.438 -32.373  0.00  0.00    -0.044 C 
ENDBRANCH   1  29
BRANCH  15  31
ATOM     31  O   UNL A   1      26.975 -28.680 -30.735  0.00  0.00    -0.461 OA
BRANCH  31  32
ATOM     32  C   UNL A   1      27.182 -27.460 -31.302  0.00  0.00    +0.307 C 
ATOM     33  O   UNL A   1      27.382 -27.255 -32.492  0.00  0.00    -0.251 OA
BRANCH  32  34
ATOM     34  C   UNL A   1      27.146 -26.380 -30.252  0.00  0.00    +0.045 C 
BRANCH  34  35
ATOM     35  C   UNL A   1      26.257 -26.782 -29.082  0.00  0.00    -0.042 C 
BRANCH  35  36
ATOM     36  C   UNL A   1      26.955 -26.523 -27.748  0.00  0.00    -0.042 C 
BRANCH  36  37
ATOM     37  C   UNL A   1      27.324 -25.052 -27.584  0.00  0.00    +0.049 C 
BRANCH  37  38
ATOM     38  C   UNL A   1      28.792 -24.786 -27.232  0.00  0.00    +0.356 C 
ATOM     39  O   UNL A   1      29.600 -25.632 -27.714  0.00  0.00    -0.246 OA
ATOM     40  O   UNL A   1      29.028 -23.776 -26.515  0.00  0.00    -0.246 OA
ENDBRANCH  37  38
ENDBRANCH  36  37
ENDBRANCH  35  36
ENDBRANCH  34  35
ENDBRANCH  32  34
ENDBRANCH  31  32
ENDBRANCH  15  31
BRANCH  27  41
ATOM     41  O   UNL A   1      35.518 -36.365 -29.877  0.00  0.00    -0.461 OA
BRANCH  41  42
ATOM     42  C   UNL A   1      36.670 -35.969 -30.483  0.00  0.00    +0.307 C 
ATOM     43  O   UNL A   1      36.918 -34.839 -30.878  0.00  0.00    -0.251 OA
BRANCH  42  44
ATOM     44  C   UNL A   1      37.602 -37.152 -30.611  0.00  0.00    +0.045 C 
BRANCH  44  45
ATOM     45  C   UNL A   1      38.984 -36.830 -30.037  0.00  0.00    -0.042 C 
BRANCH  45  46
ATOM     46  C   UNL A   1      40.059 -36.644 -31.111  0.00  0.00    -0.042 C 
BRANCH  46  47
ATOM     47  C   UNL A   1      41.359 -36.055 -30.577  0.00  0.00    +0.049 C 
BRANCH  47  48
ATOM     48  C   UNL A   1      42.635 -36.688 -31.144  0.00  0.00    +0.356 C 
ATOM     49  O   UNL A   1      42.429 -37.506 -32.087  0.00  0.00    -0.246 OA
ATOM     50  O   UNL A   1      43.727 -36.324 -30.627  0.00  0.00    -0.246 OA
ENDBRANCH  47  48
ENDBRANCH  46  47
ENDBRANCH  45  46
ENDBRANCH  44  45
ENDBRANCH  42  44
ENDBRANCH  41  42
ENDBRANCH  27  41
TORSDOF 15
ENDMDL
MODEL 18
REMARK VINA RESULT:    -6.430      5.447     10.618
REMARK INTER + INTRA:         -14.069
REMARK INTER:                 -11.526
REMARK INTRA:                  -2.543
REMARK UNBOUND:                -2.001
REMARK  Name = cpd284.pdb
REMARK  22 active torsions:
REMARK  status: ('A' for Active; 'I' for Inactive)
REMARK    1  A    between atoms: C_2  and  C_3
REMARK    2  A    between atoms: C_2  and  C_4
REMARK    3  A    between atoms: C_7  and  C_8
REMARK    4  A    between atoms: C_14  and  C_15
REMARK    5  A    between atoms: C_18  and  O_19
REMARK    6  A    between atoms: O_19  and  C_20
REMARK    7  A    between atoms: C_20  and  C_22
REMARK    8  A    between atoms: C_22  and  C_23
REMARK    9  A    between atoms: C_23  and  C_24
REMARK   10  A    between atoms: C_24  and  C_25
REMARK   11  A    between atoms: C_25  and  C_26
REMARK   12  A    between atoms: C_29  and  C_30
REMARK   13  A    between atoms: C_29  and  C_31
REMARK   14  A    between atoms: C_35  and  C_36
REMARK   15  A    between atoms: C_37  and  C_38
REMARK   16  A    between atoms: C_40  and  O_41
REMARK   17  A    between atoms: O_41  and  C_42
REMARK   18  A    between atoms: C_42  and  C_44
REMARK   19  A    between atoms: C_44  and  C_45
REMARK   20  A    between atoms: C_45  and  C_46
REMARK   21  A    between atoms: C_46  and  C_47
REMARK   22  A    between atoms: C_47  and  C_48
REMARK                            x       y       z     vdW  Elec       q    Type
REMARK                         _______ _______ _______ _____ _____    ______ ____
ROOT
ATOM      1  C   UNL A   1      32.296 -38.727 -26.750  0.00  0.00    -0.017 C 
ATOM      2  C   UNL A   1      33.548 -38.549 -25.889  0.00  0.00    -0.046 C 
ATOM      3  C   UNL A   1      34.320 -37.462 -26.623  0.00  0.00    -0.043 C 
ATOM      4  C   UNL A   1      33.995 -37.657 -28.134  0.00  0.00    +0.009 C 
ATOM      5  C   UNL A   1      33.389 -36.340 -28.663  0.00  0.00    -0.056 C 
ATOM      6  C   UNL A   1      32.890 -38.792 -28.200  0.00  0.00    -0.022 C 
ATOM      7  C   UNL A   1      33.434 -40.191 -28.700  0.00  0.00    -0.031 C 
ATOM      8  C   UNL A   1      32.306 -41.249 -28.821  0.00  0.00    -0.049 C 
ATOM      9  C   UNL A   1      32.443 -42.386 -29.839  0.00  0.00    -0.049 C 
ATOM     10  C   UNL A   1      33.116 -42.057 -31.190  0.00  0.00    -0.029 C 
ATOM     11  C   UNL A   1      32.490 -42.765 -32.464  0.00  0.00    -0.025 C 
ATOM     12  C   UNL A   1      31.059 -42.249 -32.740  0.00  0.00    -0.059 C 
ATOM     13  C   UNL A   1      32.407 -44.300 -32.205  0.00  0.00    -0.044 C 
ATOM     14  C   UNL A   1      32.119 -45.133 -33.454  0.00  0.00    -0.015 C 
ATOM     15  C   UNL A   1      33.132 -44.868 -34.569  0.00  0.00    +0.108 C 
ATOM     16  C   UNL A   1      33.231 -43.362 -34.961  0.00  0.00    +0.005 C 
ATOM     17  C   UNL A   1      31.995 -42.895 -35.757  0.00  0.00    -0.056 C 
ATOM     18  C   UNL A   1      34.439 -43.223 -35.930  0.00  0.00    -0.056 C 
ATOM     19  C   UNL A   1      33.499 -42.531 -33.654  0.00  0.00    -0.027 C 
ATOM     20  C   UNL A   1      33.768 -41.031 -33.879  0.00  0.00    -0.049 C 
ATOM     21  C   UNL A   1      34.342 -40.363 -32.623  0.00  0.00    -0.047 C 
ATOM     22  C   UNL A   1      33.489 -40.545 -31.331  0.00  0.00    -0.023 C 
ATOM     23  C   UNL A   1      32.235 -39.637 -31.501  0.00  0.00    -0.059 C 
ATOM     24  C   UNL A   1      34.322 -40.126 -30.010  0.00  0.00    -0.020 C 
ATOM     25  C   UNL A   1      35.522 -41.111 -29.751  0.00  0.00    -0.059 C 
ATOM     26  C   UNL A   1      34.985 -38.735 -30.208  0.00  0.00    -0.009 C 
ATOM     27  C   UNL A   1      35.287 -38.050 -28.881  0.00  0.00    +0.109 C 
ENDROOT
BRANCH   1  29
ATOM     28  C   UNL A   1      30.010 -39.813 -26.703  0.00  0.00    -0.099 C 
ATOM     29  C   UNL A   1      31.286 -39.752 -26.281  0.00  0.00    -0.076 C 
ATOM     30  C   UNL A   1      31.824 -40.805 -25.345  0.00  0.00    -0.044 C 
ENDBRANCH   1  29
BRANCH  15  31
ATOM     31  O   UNL A   1      32.766 -45.644 -35.728  0.00  0.00    -0.461 OA
BRANCH  31  32
ATOM     32  C   UNL A   1      33.549 -46.722 -36.012  0.00  0.00    +0.307 C 
ATOM     33  O   UNL A   1      34.574 -46.698 -36.682  0.00  0.00    -0.251 OA
BRANCH  32  34
ATOM     34  C   UNL A   1      32.970 -47.968 -35.394  0.00  0.00    +0.045 C 
BRANCH  34  35
ATOM     35  C   UNL A   1      34.037 -48.757 -34.647  0.00  0.00    -0.042 C 
BRANCH  35  36
ATOM     36  C   UNL A   1      34.571 -47.966 -33.454  0.00  0.00    -0.042 C 
BRANCH  36  37
ATOM     37  C   UNL A   1      33.933 -48.425 -32.147  0.00  0.00    +0.049 C 
BRANCH  37  38
ATOM     38  C   UNL A   1      34.165 -49.899 -31.793  0.00  0.00    +0.356 C 
ATOM     39  O   UNL A   1      35.330 -50.151 -31.368  0.00  0.00    -0.246 OA
ATOM     40  O   UNL A   1      33.190 -50.681 -31.962  0.00  0.00    -0.246 OA
ENDBRANCH  37  38
ENDBRANCH  36  37
ENDBRANCH  35  36
ENDBRANCH  34  35
ENDBRANCH  32  34
ENDBRANCH  31  32
ENDBRANCH  15  31
BRANCH  27  41
ATOM     41  O   UNL A   1      36.281 -37.000 -28.969  0.00  0.00    -0.461 OA
BRANCH  41  42
ATOM     42  C   UNL A   1      37.464 -37.175 -29.619  0.00  0.00    +0.307 C 
ATOM     43  O   UNL A   1      38.319 -38.002 -29.336  0.00  0.00    -0.251 OA
BRANCH  42  44
ATOM     44  C   UNL A   1      37.572 -36.174 -30.746  0.00  0.00    +0.045 C 
BRANCH  44  45
ATOM     45  C   UNL A   1      36.571 -35.031 -30.566  0.00  0.00    -0.042 C 
BRANCH  45  46
ATOM     46  C   UNL A   1      35.450 -35.035 -31.608  0.00  0.00    -0.042 C 
BRANCH  46  47
ATOM     47  C   UNL A   1      34.260 -34.160 -31.229  0.00  0.00    +0.049 C 
BRANCH  47  48
ATOM     48  C   UNL A   1      34.610 -32.707 -30.888  0.00  0.00    +0.356 C 
ATOM     49  O   UNL A   1      34.454 -32.413 -29.667  0.00  0.00    -0.246 OA
ATOM     50  O   UNL A   1      35.018 -31.984 -31.837  0.00  0.00    -0.246 OA
ENDBRANCH  47  48
ENDBRANCH  46  47
ENDBRANCH  45  46
ENDBRANCH  44  45
ENDBRANCH  42  44
ENDBRANCH  41  42
ENDBRANCH  27  41
TORSDOF 15
ENDMDL
MODEL 19
REMARK VINA RESULT:    -6.329      2.181      4.116
REMARK INTER + INTRA:         -13.881
REMARK INTER:                 -11.665
REMARK INTRA:                  -2.215
REMARK UNBOUND:                -2.001
REMARK  Name = cpd284.pdb
REMARK  22 active torsions:
REMARK  status: ('A' for Active; 'I' for Inactive)
REMARK    1  A    between atoms: C_2  and  C_3
REMARK    2  A    between atoms: C_2  and  C_4
REMARK    3  A    between atoms: C_7  and  C_8
REMARK    4  A    between atoms: C_14  and  C_15
REMARK    5  A    between atoms: C_18  and  O_19
REMARK    6  A    between atoms: O_19  and  C_20
REMARK    7  A    between atoms: C_20  and  C_22
REMARK    8  A    between atoms: C_22  and  C_23
REMARK    9  A    between atoms: C_23  and  C_24
REMARK   10  A    between atoms: C_24  and  C_25
REMARK   11  A    between atoms: C_25  and  C_26
REMARK   12  A    between atoms: C_29  and  C_30
REMARK   13  A    between atoms: C_29  and  C_31
REMARK   14  A    between atoms: C_35  and  C_36
REMARK   15  A    between atoms: C_37  and  C_38
REMARK   16  A    between atoms: C_40  and  O_41
REMARK   17  A    between atoms: O_41  and  C_42
REMARK   18  A    between atoms: C_42  and  C_44
REMARK   19  A    between atoms: C_44  and  C_45
REMARK   20  A    between atoms: C_45  and  C_46
REMARK   21  A    between atoms: C_46  and  C_47
REMARK   22  A    between atoms: C_47  and  C_48
REMARK                            x       y       z     vdW  Elec       q    Type
REMARK                         _______ _______ _______ _____ _____    ______ ____
ROOT
ATOM      1  C   UNL A   1      33.815 -41.103 -31.948  0.00  0.00    -0.017 C 
ATOM      2  C   UNL A   1      35.329 -40.937 -32.094  0.00  0.00    -0.046 C 
ATOM      3  C   UNL A   1      35.783 -40.650 -30.671  0.00  0.00    -0.043 C 
ATOM      4  C   UNL A   1      34.611 -39.874 -29.999  0.00  0.00    +0.009 C 
ATOM      5  C   UNL A   1      34.172 -40.667 -28.749  0.00  0.00    -0.056 C 
ATOM      6  C   UNL A   1      33.425 -39.878 -31.051  0.00  0.00    -0.022 C 
ATOM      7  C   UNL A   1      33.203 -38.489 -31.775  0.00  0.00    -0.031 C 
ATOM      8  C   UNL A   1      31.988 -38.518 -32.738  0.00  0.00    -0.049 C 
ATOM      9  C   UNL A   1      31.218 -37.224 -33.021  0.00  0.00    -0.049 C 
ATOM     10  C   UNL A   1      31.047 -36.225 -31.856  0.00  0.00    -0.029 C 
ATOM     11  C   UNL A   1      29.646 -35.483 -31.782  0.00  0.00    -0.025 C 
ATOM     12  C   UNL A   1      28.508 -36.477 -31.457  0.00  0.00    -0.059 C 
ATOM     13  C   UNL A   1      29.340 -34.833 -33.165  0.00  0.00    -0.044 C 
ATOM     14  C   UNL A   1      28.184 -33.832 -33.145  0.00  0.00    -0.015 C 
ATOM     15  C   UNL A   1      28.397 -32.727 -32.110  0.00  0.00    +0.108 C 
ATOM     16  C   UNL A   1      28.633 -33.275 -30.669  0.00  0.00    +0.005 C 
ATOM     17  C   UNL A   1      27.333 -33.827 -30.047  0.00  0.00    -0.056 C 
ATOM     18  C   UNL A   1      29.048 -32.066 -29.784  0.00  0.00    -0.056 C 
ATOM     19  C   UNL A   1      29.805 -34.320 -30.727  0.00  0.00    -0.027 C 
ATOM     20  C   UNL A   1      30.266 -34.858 -29.360  0.00  0.00    -0.049 C 
ATOM     21  C   UNL A   1      31.607 -35.599 -29.464  0.00  0.00    -0.047 C 
ATOM     22  C   UNL A   1      31.641 -36.754 -30.510  0.00  0.00    -0.023 C 
ATOM     23  C   UNL A   1      30.800 -37.919 -29.906  0.00  0.00    -0.059 C 
ATOM     24  C   UNL A   1      33.155 -37.237 -30.805  0.00  0.00    -0.020 C 
ATOM     25  C   UNL A   1      33.986 -36.114 -31.531  0.00  0.00    -0.059 C 
ATOM     26  C   UNL A   1      33.911 -37.491 -29.472  0.00  0.00    -0.009 C 
ATOM     27  C   UNL A   1      35.084 -38.447 -29.651  0.00  0.00    +0.109 C 
ENDROOT
BRANCH   1  29
ATOM     28  C   UNL A   1      33.543 -41.338 -34.454  0.00  0.00    -0.099 C 
ATOM     29  C   UNL A   1      33.039 -41.417 -33.210  0.00  0.00    -0.076 C 
ATOM     30  C   UNL A   1      31.639 -41.934 -32.992  0.00  0.00    -0.044 C 
ENDBRANCH   1  29
BRANCH  15  31
ATOM     31  O   UNL A   1      27.247 -31.856 -32.112  0.00  0.00    -0.461 OA
BRANCH  31  32
ATOM     32  C   UNL A   1      27.126 -31.010 -33.172  0.00  0.00    +0.307 C 
ATOM     33  O   UNL A   1      26.105 -30.834 -33.826  0.00  0.00    -0.251 OA
BRANCH  32  34
ATOM     34  C   UNL A   1      28.436 -30.319 -33.445  0.00  0.00    +0.045 C 
BRANCH  34  35
ATOM     35  C   UNL A   1      28.420 -28.887 -32.928  0.00  0.00    -0.042 C 
BRANCH  35  36
ATOM     36  C   UNL A   1      29.034 -28.801 -31.531  0.00  0.00    -0.042 C 
BRANCH  36  37
ATOM     37  C   UNL A   1      27.979 -28.496 -30.473  0.00  0.00    +0.049 C 
BRANCH  37  38
ATOM     38  C   UNL A   1      28.524 -27.939 -29.153  0.00  0.00    +0.356 C 
ATOM     39  O   UNL A   1      28.431 -26.682 -29.045  0.00  0.00    -0.246 OA
ATOM     40  O   UNL A   1      28.996 -28.778 -28.337  0.00  0.00    -0.246 OA
ENDBRANCH  37  38
ENDBRANCH  36  37
ENDBRANCH  35  36
ENDBRANCH  34  35
ENDBRANCH  32  34
ENDBRANCH  31  32
ENDBRANCH  15  31
BRANCH  27  41
ATOM     41  O   UNL A   1      36.074 -38.375 -28.595  0.00  0.00    -0.461 OA
BRANCH  41  42
ATOM     42  C   UNL A   1      37.329 -37.895 -28.810  0.00  0.00    +0.307 C 
ATOM     43  O   UNL A   1      38.303 -38.100 -28.100  0.00  0.00    -0.251 OA
BRANCH  42  44
ATOM     44  C   UNL A   1      37.337 -37.051 -30.063  0.00  0.00    +0.045 C 
BRANCH  44  45
ATOM     45  C   UNL A   1      38.750 -36.926 -30.637  0.00  0.00    -0.042 C 
BRANCH  45  46
ATOM     46  C   UNL A   1      38.840 -35.966 -31.825  0.00  0.00    -0.042 C 
BRANCH  46  47
ATOM     47  C   UNL A   1      39.786 -34.794 -31.591  0.00  0.00    +0.049 C 
BRANCH  47  48
ATOM     48  C   UNL A   1      41.270 -35.169 -31.499  0.00  0.00    +0.356 C 
ATOM     49  O   UNL A   1      41.947 -34.846 -32.519  0.00  0.00    -0.246 OA
ATOM     50  O   UNL A   1      41.646 -35.737 -30.438  0.00  0.00    -0.246 OA
ENDBRANCH  47  48
ENDBRANCH  46  47
ENDBRANCH  45  46
ENDBRANCH  44  45
ENDBRANCH  42  44
ENDBRANCH  41  42
ENDBRANCH  27  41
TORSDOF 15
ENDMDL
MODEL 20
REMARK VINA RESULT:    -6.218     22.774     26.720
REMARK INTER + INTRA:         -13.672
REMARK INTER:                 -10.919
REMARK INTRA:                  -2.753
REMARK UNBOUND:                -2.001
REMARK  Name = cpd284.pdb
REMARK  22 active torsions:
REMARK  status: ('A' for Active; 'I' for Inactive)
REMARK    1  A    between atoms: C_2  and  C_3
REMARK    2  A    between atoms: C_2  and  C_4
REMARK    3  A    between atoms: C_7  and  C_8
REMARK    4  A    between atoms: C_14  and  C_15
REMARK    5  A    between atoms: C_18  and  O_19
REMARK    6  A    between atoms: O_19  and  C_20
REMARK    7  A    between atoms: C_20  and  C_22
REMARK    8  A    between atoms: C_22  and  C_23
REMARK    9  A    between atoms: C_23  and  C_24
REMARK   10  A    between atoms: C_24  and  C_25
REMARK   11  A    between atoms: C_25  and  C_26
REMARK   12  A    between atoms: C_29  and  C_30
REMARK   13  A    between atoms: C_29  and  C_31
REMARK   14  A    between atoms: C_35  and  C_36
REMARK   15  A    between atoms: C_37  and  C_38
REMARK   16  A    between atoms: C_40  and  O_41
REMARK   17  A    between atoms: O_41  and  C_42
REMARK   18  A    between atoms: C_42  and  C_44
REMARK   19  A    between atoms: C_44  and  C_45
REMARK   20  A    between atoms: C_45  and  C_46
REMARK   21  A    between atoms: C_46  and  C_47
REMARK   22  A    between atoms: C_47  and  C_48
REMARK                            x       y       z     vdW  Elec       q    Type
REMARK                         _______ _______ _______ _____ _____    ______ ____
ROOT
ATOM      1  C   UNL A   1      40.185 -15.466 -38.181  0.00  0.00    -0.017 C 
ATOM      2  C   UNL A   1      39.339 -16.629 -38.702  0.00  0.00    -0.046 C 
ATOM      3  C   UNL A   1      40.053 -17.852 -38.147  0.00  0.00    -0.043 C 
ATOM      4  C   UNL A   1      41.564 -17.475 -38.097  0.00  0.00    +0.009 C 
ATOM      5  C   UNL A   1      42.045 -17.637 -36.639  0.00  0.00    -0.056 C 
ATOM      6  C   UNL A   1      41.646 -15.943 -38.495  0.00  0.00    -0.022 C 
ATOM      7  C   UNL A   1      42.194 -15.687 -39.957  0.00  0.00    -0.031 C 
ATOM      8  C   UNL A   1      42.328 -14.175 -40.276  0.00  0.00    -0.049 C 
ATOM      9  C   UNL A   1      43.380 -13.707 -41.286  0.00  0.00    -0.049 C 
ATOM     10  C   UNL A   1      44.731 -14.454 -41.309  0.00  0.00    -0.029 C 
ATOM     11  C   UNL A   1      46.015 -13.554 -41.549  0.00  0.00    -0.025 C 
ATOM     12  C   UNL A   1      46.253 -12.596 -40.360  0.00  0.00    -0.059 C 
ATOM     13  C   UNL A   1      45.799 -12.690 -42.829  0.00  0.00    -0.044 C 
ATOM     14  C   UNL A   1      47.067 -12.016 -43.352  0.00  0.00    -0.015 C 
ATOM     15  C   UNL A   1      48.189 -13.021 -43.612  0.00  0.00    +0.108 C 
ATOM     16  C   UNL A   1      48.539 -13.884 -42.361  0.00  0.00    +0.005 C 
ATOM     17  C   UNL A   1      49.302 -13.068 -41.297  0.00  0.00    -0.056 C 
ATOM     18  C   UNL A   1      49.523 -14.992 -42.834  0.00  0.00    -0.056 C 
ATOM     19  C   UNL A   1      47.213 -14.541 -41.831  0.00  0.00    -0.027 C 
ATOM     20  C   UNL A   1      47.400 -15.546 -40.679  0.00  0.00    -0.049 C 
ATOM     21  C   UNL A   1      46.134 -16.381 -40.444  0.00  0.00    -0.047 C 
ATOM     22  C   UNL A   1      44.834 -15.554 -40.202  0.00  0.00    -0.023 C 
ATOM     23  C   UNL A   1      44.959 -14.950 -38.772  0.00  0.00    -0.059 C 
ATOM     24  C   UNL A   1      43.516 -16.482 -40.317  0.00  0.00    -0.020 C 
ATOM     25  C   UNL A   1      43.303 -17.002 -41.788  0.00  0.00    -0.059 C 
ATOM     26  C   UNL A   1      43.684 -17.769 -39.462  0.00  0.00    -0.009 C 
ATOM     27  C   UNL A   1      42.343 -18.380 -39.074  0.00  0.00    +0.109 C 
ENDROOT
BRANCH   1  29
ATOM     28  C   UNL A   1      38.876 -13.789 -39.552  0.00  0.00    -0.099 C 
ATOM     29  C   UNL A   1      39.730 -14.071 -38.552  0.00  0.00    -0.076 C 
ATOM     30  C   UNL A   1      40.228 -12.970 -37.649  0.00  0.00    -0.044 C 
ENDBRANCH   1  29
BRANCH  15  31
ATOM     31  O   UNL A   1      49.365 -12.309 -44.050  0.00  0.00    -0.461 OA
BRANCH  31  32
ATOM     32  C   UNL A   1      49.669 -12.391 -45.374  0.00  0.00    +0.307 C 
ATOM     33  O   UNL A   1      48.867 -12.292 -46.294  0.00  0.00    -0.251 OA
BRANCH  32  34
ATOM     34  C   UNL A   1      51.143 -12.637 -45.560  0.00  0.00    +0.045 C 
BRANCH  34  35
ATOM     35  C   UNL A   1      51.420 -14.100 -45.880  0.00  0.00    -0.042 C 
BRANCH  35  36
ATOM     36  C   UNL A   1      52.802 -14.519 -45.383  0.00  0.00    -0.042 C 
BRANCH  36  37
ATOM     37  C   UNL A   1      53.555 -15.328 -46.434  0.00  0.00    +0.049 C 
BRANCH  37  38
ATOM     38  C   UNL A   1      54.277 -16.572 -45.904  0.00  0.00    +0.356 C 
ATOM     39  O   UNL A   1      53.850 -17.661 -46.387  0.00  0.00    -0.246 OA
ATOM     40  O   UNL A   1      55.196 -16.377 -45.063  0.00  0.00    -0.246 OA
ENDBRANCH  37  38
ENDBRANCH  36  37
ENDBRANCH  35  36
ENDBRANCH  34  35
ENDBRANCH  32  34
ENDBRANCH  31  32
ENDBRANCH  15  31
BRANCH  27  41
ATOM     41  O   UNL A   1      42.417 -19.774 -38.686  0.00  0.00    -0.461 OA
BRANCH  41  42
ATOM     42  C   UNL A   1      43.386 -20.606 -39.155  0.00  0.00    +0.307 C 
ATOM     43  O   UNL A   1      44.380 -20.964 -38.540  0.00  0.00    -0.251 OA
BRANCH  42  44
ATOM     44  C   UNL A   1      43.054 -21.015 -40.572  0.00  0.00    +0.045 C 
BRANCH  44  45
ATOM     45  C   UNL A   1      44.311 -21.439 -41.333  0.00  0.00    -0.042 C 
BRANCH  45  46
ATOM     46  C   UNL A   1      44.968 -20.294 -42.108  0.00  0.00    -0.042 C 
BRANCH  46  47
ATOM     47  C   UNL A   1      46.343 -19.907 -41.577  0.00  0.00    +0.049 C 
BRANCH  47  48
ATOM     48  C   UNL A   1      47.213 -21.083 -41.119  0.00  0.00    +0.356 C 
ATOM     49  O   UNL A   1      47.373 -21.147 -39.865  0.00  0.00    -0.246 OA
ATOM     50  O   UNL A   1      47.654 -21.848 -42.020  0.00  0.00    -0.246 OA
ENDBRANCH  47  48
ENDBRANCH  46  47
ENDBRANCH  45  46
ENDBRANCH  44  45
ENDBRANCH  42  44
ENDBRANCH  41  42
ENDBRANCH  27  41
TORSDOF 15
ENDMDL
