REMARK  Name = cpd284.pdb
REMARK  22 active torsions:
REMARK  status: ('A' for Active; 'I' for Inactive)
REMARK    1  A    between atoms: C_2  and  C_3
REMARK    2  A    between atoms: C_2  and  C_4
REMARK    3  A    between atoms: C_7  and  C_8
REMARK    4  A    between atoms: C_14  and  C_15
REMARK    5  A    between atoms: C_18  and  O_19
REMARK    6  A    between atoms: O_19  and  C_20
REMARK    7  A    between atoms: C_20  and  C_22
REMARK    8  A    between atoms: C_22  and  C_23
REMARK    9  A    between atoms: C_23  and  C_24
REMARK   10  A    between atoms: C_24  and  C_25
REMARK   11  A    between atoms: C_25  and  C_26
REMARK   12  A    between atoms: C_29  and  C_30
REMARK   13  A    between atoms: C_29  and  C_31
REMARK   14  A    between atoms: C_35  and  C_36
REMARK   15  A    between atoms: C_37  and  C_38
REMARK   16  A    between atoms: C_40  and  O_41
REMARK   17  A    between atoms: O_41  and  C_42
REMARK   18  A    between atoms: C_42  and  C_44
REMARK   19  A    between atoms: C_44  and  C_45
REMARK   20  A    between atoms: C_45  and  C_46
REMARK   21  A    between atoms: C_46  and  C_47
REMARK   22  A    between atoms: C_47  and  C_48
REMARK                            x       y       z     vdW  Elec       q    Type
REMARK                         _______ _______ _______ _____ _____    ______ ____
ROOT
ATOM      1  C   UNL A   1      -3.510  -1.002  -0.253  0.00  0.00    -0.017 C 
ATOM      2  C   UNL A   1      -3.858   0.019   0.832  0.00  0.00    -0.046 C 
ATOM      3  C   UNL A   1      -3.132   1.274   0.370  0.00  0.00    -0.043 C 
ATOM      4  C   UNL A   1      -1.847   0.778  -0.358  0.00  0.00    +0.009 C 
ATOM      5  C   UNL A   1      -1.870   1.339  -1.796  0.00  0.00    -0.056 C 
ATOM      6  C   UNL A   1      -1.964  -0.802  -0.423  0.00  0.00    -0.022 C 
ATOM      7  C   UNL A   1      -1.018  -1.559   0.594  0.00  0.00    -0.031 C 
ATOM      8  C   UNL A   1      -1.110  -3.100   0.443  0.00  0.00    -0.049 C 
ATOM      9  C   UNL A   1       0.098  -3.968   0.810  0.00  0.00    -0.049 C 
ATOM     10  C   UNL A   1       1.502  -3.409   0.492  0.00  0.00    -0.029 C 
ATOM     11  C   UNL A   1       2.567  -4.467  -0.022  0.00  0.00    -0.025 C 
ATOM     12  C   UNL A   1       2.174  -5.022  -1.410  0.00  0.00    -0.059 C 
ATOM     13  C   UNL A   1       2.621  -5.662   0.978  0.00  0.00    -0.044 C 
ATOM     14  C   UNL A   1       3.816  -6.594   0.777  0.00  0.00    -0.015 C 
ATOM     15  C   UNL A   1       5.147  -5.843   0.824  0.00  0.00    +0.108 C 
ATOM     16  C   UNL A   1       5.225  -4.671  -0.203  0.00  0.00    +0.005 C 
ATOM     17  C   UNL A   1       5.385  -5.186  -1.648  0.00  0.00    -0.056 C 
ATOM     18  C   UNL A   1       6.524  -3.876   0.112  0.00  0.00    -0.056 C 
ATOM     19  C   UNL A   1       3.971  -3.748   0.010  0.00  0.00    -0.027 C 
ATOM     20  C   UNL A   1       3.963  -2.457  -0.830  0.00  0.00    -0.049 C 
ATOM     21  C   UNL A   1       2.903  -1.464  -0.334  0.00  0.00    -0.047 C 
ATOM     22  C   UNL A   1       1.454  -2.034  -0.251  0.00  0.00    -0.023 C 
ATOM     23  C   UNL A   1       0.950  -2.168  -1.719  0.00  0.00    -0.059 C 
ATOM     24  C   UNL A   1       0.485  -1.058   0.598  0.00  0.00    -0.020 C 
ATOM     25  C   UNL A   1       0.904  -1.008   2.115  0.00  0.00    -0.059 C 
ATOM     26  C   UNL A   1       0.622   0.407   0.100  0.00  0.00    -0.009 C 
ATOM     27  C   UNL A   1      -0.607   1.244   0.433  0.00  0.00    +0.109 C 
ENDROOT
BRANCH   1  29
ATOM     28  C   UNL A   1      -4.605  -2.878   1.047  0.00  0.00    -0.099 C 
ATOM     29  C   UNL A   1      -4.099  -2.388  -0.099  0.00  0.00    -0.076 C 
ATOM     30  C   UNL A   1      -4.179  -3.198  -1.369  0.00  0.00    -0.044 C 
ENDBRANCH   1  29
BRANCH  15  31
ATOM     31  O   UNL A   1       6.220  -6.774   0.574  0.00  0.00    -0.461 OA
BRANCH  31  32
ATOM     32  C   UNL A   1       6.710  -7.443   1.654  0.00  0.00    +0.307 C 
ATOM     33  O   UNL A   1       6.294  -7.340   2.801  0.00  0.00    -0.251 OA
BRANCH  32  34
ATOM     34  C   UNL A   1       7.858  -8.329   1.246  0.00  0.00    +0.045 C 
BRANCH  34  35
ATOM     35  C   UNL A   1       7.359  -9.593   0.559  0.00  0.00    -0.042 C 
BRANCH  35  36
ATOM     36  C   UNL A   1       8.523 -10.506   0.176  0.00  0.00    -0.042 C 
BRANCH  36  37
ATOM     37  C   UNL A   1       8.035 -11.780  -0.506  0.00  0.00    +0.049 C 
BRANCH  37  38
ATOM     38  C   UNL A   1       9.139 -12.760  -0.919  0.00  0.00    +0.356 C 
ATOM     39  O   UNL A   1       8.712 -13.818  -1.465  0.00  0.00    -0.246 OA
ATOM     40  O   UNL A   1      10.326 -12.411  -0.673  0.00  0.00    -0.246 OA
ENDBRANCH  37  38
ENDBRANCH  36  37
ENDBRANCH  35  36
ENDBRANCH  34  35
ENDBRANCH  32  34
ENDBRANCH  31  32
ENDBRANCH  15  31
BRANCH  27  41
ATOM     41  O   UNL A   1      -0.374   2.674   0.412  0.00  0.00    -0.461 OA
BRANCH  41  42
ATOM     42  C   UNL A   1       0.427   3.264  -0.517  0.00  0.00    +0.307 C 
ATOM     43  O   UNL A   1       0.818   2.748  -1.554  0.00  0.00    -0.251 OA
BRANCH  42  44
ATOM     44  C   UNL A   1       0.777   4.662  -0.063  0.00  0.00    +0.045 C 
BRANCH  44  45
ATOM     45  C   UNL A   1       2.133   5.100  -0.620  0.00  0.00    -0.042 C 
BRANCH  45  46
ATOM     46  C   UNL A   1       2.774   6.243   0.171  0.00  0.00    -0.042 C 
BRANCH  46  47
ATOM     47  C   UNL A   1       1.940   7.519   0.184  0.00  0.00    +0.049 C 
BRANCH  47  48
ATOM     48  C   UNL A   1       2.575   8.698   0.930  0.00  0.00    +0.356 C 
ATOM     49  O   UNL A   1       1.894   9.764   0.882  0.00  0.00    -0.246 OA
ATOM     50  O   UNL A   1       3.675   8.479   1.506  0.00  0.00    -0.246 OA
ENDBRANCH  47  48
ENDBRANCH  46  47
ENDBRANCH  45  46
ENDBRANCH  44  45
ENDBRANCH  42  44
ENDBRANCH  41  42
ENDBRANCH  27  41
TORSDOF 15
