@<TRIPOS>MOLECULE
*****
 50 54 0 0 0
SMALL
GASTEIGER

@<TRIPOS>ATOM
      1 C          -4.0938   -1.8689    0.0000 C.2     1  UNL1       -0.0091
      2 C          -3.1679   -2.1167    0.0000 C.2     1  UNL1       -0.0442
      3 C          -2.9196   -3.0425    0.0000 C.3     1  UNL1        0.0263
      4 C          -2.4903   -1.4388    0.0000 C.3     1  UNL1        0.0184
      5 C          -2.4906   -0.4803    0.0000 C.3     1  UNL1        0.0041
      6 C          -1.6613   -0.0005    0.0000 C.3     1  UNL1        0.0038
      7 C          -0.8305   -0.4798    0.0000 C.3     1  UNL1        0.0372
      8 C          -0.8308    0.5071    0.0000 C.3     1  UNL1        0.0036
      9 C          -0.8302   -1.4383    0.0000 C.3     1  UNL1        0.0071
     10 C           0.0005   -1.9176    0.0000 C.3     1  UNL1        0.0005
     11 C           0.0008   -2.8767    0.0000 C.3     1  UNL1        0.0000
     12 C           0.8316   -3.3560    0.0000 C.3     1  UNL1        0.0000
     13 C           1.6621   -2.8762    0.0000 C.3     1  UNL1        0.0000
     14 C           2.4923   -3.3556    0.0000 C.3     1  UNL1        0.0002
     15 C           1.6379   -3.8495    0.0000 C.3     1  UNL1        0.0000
     16 C           2.4928   -4.3142    0.0000 C.3     1  UNL1        0.0037
     17 C           3.3233   -4.7930    0.0000 C.3     1  UNL1        0.0436
     18 C           4.1532   -4.3132    0.0000 C.3     1  UNL1        0.1686
     19 O           5.0143   -4.8097    0.0000 O.3     1  UNL1       -0.4523
     20 C           5.0148   -5.8036    0.0000 C.2     1  UNL1        0.3169
     21 O           4.1544   -6.3011    0.0000 O.2     1  UNL1       -0.2501
     22 C           5.8759   -6.3001    0.0000 C.3     1  UNL1        0.1096
     23 C           5.8765   -7.2940    0.0000 C.3     1  UNL1        0.0122
     24 C           6.7375   -7.7905    0.0000 C.3     1  UNL1        0.0124
     25 C           6.7381   -8.7844    0.0000 C.3     1  UNL1        0.1141
     26 C           7.5991   -9.2809    0.0000 C.2     1  UNL1        0.3649
     27 O           7.5997  -10.2748    0.0000 O.co2   1  UNL1       -0.2457
     28 O           8.4596   -8.7835    0.0000 O.co2   1  UNL1       -0.2457
     29 C           4.1527   -3.3546    0.0000 C.3     1  UNL1        0.0369
     30 C           5.1466   -3.3540    0.0000 C.3     1  UNL1        0.0036
     31 C           4.6491   -2.4936    0.0000 C.3     1  UNL1        0.0036
     32 C           3.3222   -2.8758    0.0000 C.3     1  UNL1        0.0034
     33 C           3.3219   -1.9167    0.0000 C.3     1  UNL1        0.0001
     34 C           2.4917   -1.4374    0.0000 C.3     1  UNL1        0.0000
     35 C           1.6618   -1.9171    0.0000 C.3     1  UNL1        0.0001
     36 C           1.6615   -0.9303    0.0000 C.3     1  UNL1        0.0000
     37 C           0.8310   -1.4378    0.0000 C.3     1  UNL1        0.0035
     38 C           2.5401   -0.4505    0.0000 C.3     1  UNL1        0.0001
     39 C           0.8308   -0.4793    0.0000 C.3     1  UNL1        0.0436
     40 C          -0.0000   -0.0000    0.0000 C.3     1  UNL1        0.1686
     41 O          -0.0003    0.9591    0.0000 O.3     1  UNL1       -0.4523
     42 C           0.9378    1.1588    0.0000 C.2     1  UNL1        0.3169
     43 O           1.2340    2.0711    0.0000 O.2     1  UNL1       -0.2501
     44 C           1.5798    0.4462    0.0000 C.3     1  UNL1        0.1096
     45 C           2.5179    0.6459    0.0000 C.3     1  UNL1        0.0122
     46 C           2.8141    1.5582    0.0000 C.3     1  UNL1        0.0124
     47 C           2.1721    2.2708    0.0000 C.3     1  UNL1        0.1141
     48 C           2.4682    3.1830    0.0000 C.2     1  UNL1        0.3649
     49 O           1.8262    3.8956    0.0000 O.co2   1  UNL1       -0.2457
     50 O           3.4063    3.3827    0.0000 O.co2   1  UNL1       -0.2457
@<TRIPOS>BOND
     1     1     2    2
     2     2     3    1
     3     2     4    1
     4     4     5    1
     5     5     6    1
     6     6     7    1
     7     7     8    1
     8     7     9    1
     9     4     9    1
    10     9    10    1
    11    10    11    1
    12    11    12    1
    13    12    13    1
    14    13    14    1
    15    14    15    1
    16    14    16    1
    17    16    17    1
    18    17    18    1
    19    18    19    1
    20    19    20    1
    21    20    21    2
    22    20    22    1
    23    22    23    1
    24    23    24    1
    25    24    25    1
    26    25    26    1
    27    26    27   ar
    28    26    28   ar
    29    18    29    1
    30    29    30    1
    31    29    31    1
    32    29    32    1
    33    14    32    1
    34    32    33    1
    35    33    34    1
    36    34    35    1
    37    13    35    1
    38    35    36    1
    39    35    37    1
    40    10    37    1
    41    37    38    1
    42    37    39    1
    43    39    40    1
    44     7    40    1
    45    40    41    1
    46    41    42    1
    47    42    43    2
    48    42    44    1
    49    44    45    1
    50    45    46    1
    51    46    47    1
    52    47    48    1
    53    48    49   ar
    54    48    50   ar
