@<TRIPOS>MOLECULE
*****
 36 36 0 0 0
SMALL
GASTEIGER

@<TRIPOS>ATOM
      1 C          -1.5000   -0.1340    0.0000 C.3     1  UNL1        0.0671
      2 C          -1.0000   -1.0000    0.0000 C.3     1  UNL1        0.1088
      3 N           0.0000   -1.0000    0.0000 N.4     1  UNL1        0.2998
      4 C          -0.0000   -2.0000    0.0000 C.3     1  UNL1        0.1088
      5 C           0.8660   -2.5000    0.0000 C.3     1  UNL1        0.0671
      6 C           1.0000   -1.0000    0.0000 C.3     1  UNL1        0.1088
      7 C           1.5000   -0.1340    0.0000 C.3     1  UNL1        0.0671
      8 C           0.0000   -0.0000    0.0000 C.3     1  UNL1        0.1566
      9 C           0.8660    0.5000    0.0000 C.3     1  UNL1        0.2659
     10 O           0.8660    1.5000    0.0000 O.3     1  UNL1       -0.4659
     11 C           1.7321    2.0000    0.0000 C.ar    1  UNL1        0.1756
     12 C           1.7321    3.0000    0.0000 C.ar    1  UNL1        0.0403
     13 C           2.5981    3.5000    0.0000 C.ar    1  UNL1        0.0064
     14 C           3.4641    3.0000    0.0000 C.ar    1  UNL1        0.0403
     15 C           3.4641    2.0000    0.0000 C.ar    1  UNL1        0.1756
     16 O           4.3301    1.5000    0.0000 O.3     1  UNL1       -0.4659
     17 C           5.1962    2.0000    0.0000 C.3     1  UNL1        0.2659
     18 C           6.0622    1.5000    0.0000 C.3     1  UNL1        0.1566
     19 N           6.9282    2.0000    0.0000 N.4     1  UNL1        0.2998
     20 C           7.4282    1.1340    0.0000 C.3     1  UNL1        0.1088
     21 C           8.4282    1.1340    0.0000 C.3     1  UNL1        0.0671
     22 C           7.7942    2.5000    0.0000 C.3     1  UNL1        0.1088
     23 C           7.7942    3.5000    0.0000 C.3     1  UNL1        0.0671
     24 C           6.4282    2.8660    0.0000 C.3     1  UNL1        0.1088
     25 C           6.9282    3.7321    0.0000 C.3     1  UNL1        0.0671
     26 C           2.5981    1.5000    0.0000 C.ar    1  UNL1        0.2061
     27 O           2.5981    0.5000    0.0000 O.3     1  UNL1       -0.4630
     28 C           3.4641   -0.0000    0.0000 C.3     1  UNL1        0.2661
     29 C           4.3301    0.5000    0.0000 C.3     1  UNL1        0.1566
     30 N           5.1962   -0.0000    0.0000 N.4     1  UNL1        0.2998
     31 C           4.6962   -0.8660    0.0000 C.3     1  UNL1        0.1088
     32 C           5.1962   -1.7321    0.0000 C.3     1  UNL1        0.0671
     33 C           6.0622   -0.5000    0.0000 C.3     1  UNL1        0.1088
     34 C           6.9282   -0.0000    0.0000 C.3     1  UNL1        0.0671
     35 C           5.6962    0.8660    0.0000 C.3     1  UNL1        0.1088
     36 C           6.6962    0.8660    0.0000 C.3     1  UNL1        0.0671
@<TRIPOS>UNITY_ATOM_ATTR
3 1
charge 1
19 1
charge 1
30 1
charge 1
@<TRIPOS>BOND
     1     1     2    1
     2     2     3    1
     3     3     4    1
     4     4     5    1
     5     3     6    1
     6     6     7    1
     7     3     8    1
     8     8     9    1
     9     9    10    1
    10    10    11    1
    11    11    12   ar
    12    12    13   ar
    13    13    14   ar
    14    14    15   ar
    15    15    16    1
    16    16    17    1
    17    17    18    1
    18    18    19    1
    19    19    20    1
    20    20    21    1
    21    19    22    1
    22    22    23    1
    23    19    24    1
    24    24    25    1
    25    15    26   ar
    26    11    26   ar
    27    26    27    1
    28    27    28    1
    29    28    29    1
    30    29    30    1
    31    30    31    1
    32    31    32    1
    33    30    33    1
    34    33    34    1
    35    30    35    1
    36    35    36    1
