REMARK  Name = cpd368.pdb
REMARK  30 active torsions:
REMARK  status: ('A' for Active; 'I' for Inactive)
REMARK    1  A    between atoms: C_1  and  C_2
REMARK    2  A    between atoms: C_2  and  N_3
REMARK    3  A    between atoms: N_3  and  C_4
REMARK    4  A    between atoms: N_3  and  C_6
REMARK    5  A    between atoms: N_3  and  C_8
REMARK    6  A    between atoms: C_4  and  C_5
REMARK    7  A    between atoms: C_6  and  C_7
REMARK    8  A    between atoms: C_8  and  C_9
REMARK    9  A    between atoms: C_9  and  O_10
REMARK   10  A    between atoms: O_10  and  C_11
REMARK   11  A    between atoms: C_15  and  O_16
REMARK   12  A    between atoms: O_16  and  C_17
REMARK   13  A    between atoms: C_17  and  C_18
REMARK   14  A    between atoms: C_18  and  N_19
REMARK   15  A    between atoms: N_19  and  C_20
REMARK   16  A    between atoms: N_19  and  C_22
REMARK   17  A    between atoms: N_19  and  C_24
REMARK   18  A    between atoms: C_20  and  C_21
REMARK   19  A    between atoms: C_22  and  C_23
REMARK   20  A    between atoms: C_24  and  C_25
REMARK   21  A    between atoms: C_26  and  O_27
REMARK   22  A    between atoms: O_27  and  C_28
REMARK   23  A    between atoms: C_28  and  C_29
REMARK   24  A    between atoms: C_29  and  N_30
REMARK   25  A    between atoms: N_30  and  C_31
REMARK   26  A    between atoms: N_30  and  C_33
REMARK   27  A    between atoms: N_30  and  C_35
REMARK   28  A    between atoms: C_31  and  C_32
REMARK   29  A    between atoms: C_33  and  C_34
REMARK   30  A    between atoms: C_35  and  C_36
REMARK                            x       y       z     vdW  Elec       q    Type
REMARK                         _______ _______ _______ _____ _____    ______ ____
ROOT
ATOM      1  C   UNL     1       1.911   2.295   2.388  0.00  0.00    +0.165 A 
ATOM      2  C   UNL     1       1.640   2.090   3.736  0.00  0.00    -0.016 A 
ATOM      3  C   UNL     1       2.598   2.431   4.705  0.00  0.00    -0.055 A 
ATOM      4  C   UNL     1       3.844   2.958   4.341  0.00  0.00    -0.016 A 
ATOM      5  C   UNL     1       4.126   3.172   2.999  0.00  0.00    +0.165 A 
ATOM      6  C   UNL     1       3.138   2.891   2.030  0.00  0.00    +0.204 A 
ENDROOT
BRANCH   6   7
ATOM      7  O   UNL     1       3.489   3.216   0.746  0.00  0.00    -0.487 OA
BRANCH   7   8
ATOM      8  C   UNL     1       3.133   2.352  -0.315  0.00  0.00    +0.076 C 
BRANCH   8   9
ATOM      9  C   UNL     1       3.476   0.841  -0.083  0.00  0.00    -0.053 C 
BRANCH   9  10
ATOM     10  N   UNL     1       5.196   0.000   0.000  0.00  0.00    +0.382 N 
BRANCH  10  11
ATOM     11  C   UNL     1       5.696   0.866   0.000  0.00  0.00    -0.091 C 
ATOM     12  C   UNL     1       5.734   0.732  -1.871  0.00  0.00    -0.080 C 
ENDBRANCH  10  11
BRANCH  10  13
ATOM     13  C   UNL     1       5.430  -0.285   1.871  0.00  0.00    -0.091 C 
ATOM     14  C   UNL     1       6.150  -1.575   2.266  0.00  0.00    -0.080 C 
ENDBRANCH  10  13
BRANCH  10  15
ATOM     15  C   UNL     1       4.696  -0.866   0.000  0.00  0.00    -0.091 C 
ATOM     16  C   UNL     1       5.559  -2.114  -0.478  0.00  0.00    -0.080 C 
ENDBRANCH  10  15
ENDBRANCH   9  10
ENDBRANCH   8   9
ENDBRANCH   7   8
ENDBRANCH   6   7
BRANCH   5  17
ATOM     17  O   UNL     1       5.342   3.668   2.568  0.00  0.00    -0.490 OA
BRANCH  17  18
ATOM     18  C   UNL     1       6.481   2.880   2.923  0.00  0.00    +0.076 C 
BRANCH  18  19
ATOM     19  C   UNL     1       7.541   2.480   1.770  0.00  0.00    -0.053 C 
BRANCH  19  20
ATOM     20  N   UNL     1       6.928   2.000   0.000  0.00  0.00    +0.382 N 
BRANCH  20  21
ATOM     21  C   UNL     1       7.428   1.134   0.000  0.00  0.00    -0.091 C 
ATOM     22  C   UNL     1       9.082   0.862   0.306  0.00  0.00    -0.080 C 
ENDBRANCH  20  21
BRANCH  20  23
ATOM     23  C   UNL     1       8.183   2.714  -1.246  0.00  0.00    -0.091 C 
ATOM     24  C   UNL     1       9.032   3.899  -0.762  0.00  0.00    -0.080 C 
ENDBRANCH  20  23
BRANCH  20  25
ATOM     25  C   UNL     1       6.428   2.866   0.000  0.00  0.00    -0.091 C 
ATOM     26  C   UNL     1       5.781   3.765  -1.194  0.00  0.00    -0.080 C 
ENDBRANCH  20  25
ENDBRANCH  19  20
ENDBRANCH  18  19
ENDBRANCH  17  18
ENDBRANCH   5  17
BRANCH   1  27
ATOM     27  O   UNL     1       1.079   1.944   1.360  0.00  0.00    -0.490 OA
BRANCH  27  28
ATOM     28  C   UNL     1       0.126   0.905   1.529  0.00  0.00    +0.076 C 
BRANCH  28  29
ATOM     29  C   UNL     1       0.000   0.000   0.000  0.00  0.00    -0.053 C 
BRANCH  29  30
ATOM     30  N   UNL     1       0.000  -1.000   0.000  0.00  0.00    +0.382 N 
BRANCH  30  31
ATOM     31  C   UNL     1       0.000  -2.000   0.000  0.00  0.00    -0.091 C 
ATOM     32  C   UNL     1      -0.365  -2.909  -1.398  0.00  0.00    -0.080 C 
ENDBRANCH  30  31
BRANCH  30  33
ATOM     33  C   UNL     1       1.000  -1.000   0.000  0.00  0.00    -0.091 C 
ATOM     34  C   UNL     1       1.762  -1.606   1.516  0.00  0.00    -0.080 C 
ENDBRANCH  30  33
BRANCH  30  36
ATOM     35  C   UNL     1      -1.933  -0.580  -1.390  0.00  0.00    -0.080 C 
ATOM     36  C   UNL     1      -1.000  -1.000   0.000  0.00  0.00    -0.091 C 
ENDBRANCH  30  36
ENDBRANCH  29  30
ENDBRANCH  28  29
ENDBRANCH  27  28
ENDBRANCH   1  27
TORSDOF 21
