REMARK  Name = cpd291.pdb
REMARK  19 active torsions:
REMARK  status: ('A' for Active; 'I' for Inactive)
REMARK    1  A    between atoms: C_1  and  C_2
REMARK    2  A    between atoms: C_2  and  C_3
REMARK    3  A    between atoms: C_2  and  C_20
REMARK    4  A    between atoms: C_3  and  C_4
REMARK    5  A    between atoms: C_4  and  C_5
REMARK    6  A    between atoms: C_6  and  C_7
REMARK    7  A    between atoms: C_7  and  O_8
REMARK    8  A    between atoms: C_12  and  C_13
REMARK    9  A    between atoms: C_12  and  C_14
REMARK   10  A    between atoms: C_18  and  C_19
REMARK   11  A    between atoms: C_20  and  C_21
REMARK   12  A    between atoms: C_21  and  O_23
REMARK   13  A    between atoms: O_23  and  C_24
REMARK   14  A    between atoms: C_24  and  C_25
REMARK   15  A    between atoms: C_25  and  C_26
REMARK   16  A    between atoms: C_26  and  C_27
REMARK   17  A    between atoms: C_27  and  C_28
REMARK   18  A    between atoms: C_28  and  C_29
REMARK   19  A    between atoms: C_29  and  N_30
REMARK                            x       y       z     vdW  Elec       q    Type
REMARK                         _______ _______ _______ _____ _____    ______ ____
ROOT
ATOM      1  C   UNL     1      -9.042   0.483   0.264  0.00  0.00    -0.062 C 
ATOM      2  C   UNL     1      -8.840  -1.023   0.441  0.00  0.00    -0.034 C 
ENDROOT
BRANCH   2   3
ATOM      3  C   UNL     1      -9.851  -1.629   1.440  0.00  0.00    -0.049 C 
BRANCH   3   4
ATOM      4  C   UNL     1     -11.341  -1.429   1.104  0.00  0.00    -0.046 C 
BRANCH   4   5
ATOM      5  C   UNL     1     -11.835  -1.844  -0.315  0.00  0.00    -0.012 C 
ATOM      6  C   UNL     1     -11.892  -3.377  -0.449  0.00  0.00    -0.045 C 
ATOM      7  C   UNL     1     -13.067  -4.037  -0.359  0.00  0.00    -0.082 C 
ATOM      8  C   UNL     1     -14.416  -3.396  -0.170  0.00  0.00    -0.031 C 
ATOM      9  C   UNL     1     -14.359  -1.886   0.126  0.00  0.00    -0.027 C 
ATOM     10  C   UNL     1     -15.749  -1.127   0.180  0.00  0.00    -0.031 C 
ATOM     11  C   UNL     1     -15.942  -0.557   1.611  0.00  0.00    -0.060 C 
ATOM     12  C   UNL     1     -16.962  -2.047  -0.086  0.00  0.00    -0.060 C 
ATOM     13  C   UNL     1     -15.841   0.054  -0.814  0.00  0.00    -0.048 C 
ATOM     14  C   UNL     1     -14.620   0.970  -0.877  0.00  0.00    -0.052 C 
ATOM     15  C   UNL     1     -13.303   0.318  -0.462  0.00  0.00    -0.047 C 
ATOM     16  C   UNL     1     -13.241  -1.203  -0.728  0.00  0.00    -0.022 C 
ATOM     17  C   UNL     1     -13.399  -1.431  -2.264  0.00  0.00    -0.059 C 
BRANCH   6  18
ATOM     18  C   UNL     1     -10.600  -4.065  -0.838  0.00  0.00    +0.066 C 
BRANCH  18  19
ATOM     19  O   UNL     1     -10.739  -5.477  -0.911  0.00  0.00    -0.391 OA
ATOM     20  H   UNL     1     -10.990  -5.823  -0.040  0.00  0.00    +0.000 HD
ENDBRANCH  18  19
ENDBRANCH   6  18
ENDBRANCH   4   5
ENDBRANCH   3   4
ENDBRANCH   2   3
BRANCH   2  21
ATOM     21  C   UNL     1      -7.383  -1.374   0.808  0.00  0.00    +0.048 C 
BRANCH  21  22
ATOM     22  C   UNL     1      -6.902  -0.810   2.128  0.00  0.00    +0.307 C 
ATOM     23  O   UNL     1      -7.234  -1.331   3.191  0.00  0.00    -0.251 OA
BRANCH  22  24
ATOM     24  O   UNL     1      -6.116   0.289   2.132  0.00  0.00    -0.465 OA
BRANCH  24  25
ATOM     25  C   UNL     1      -5.559   0.928   0.968  0.00  0.00    +0.092 C 
BRANCH  25  26
ATOM     26  C   UNL     1      -4.211   0.303   0.619  0.00  0.00    -0.019 C 
BRANCH  26  27
ATOM     27  C   UNL     1      -3.633   0.923  -0.653  0.00  0.00    -0.050 C 
BRANCH  27  28
ATOM     28  C   UNL     1      -2.271   0.349  -1.048  0.00  0.00    -0.052 C 
BRANCH  28  29
ATOM     29  C   UNL     1      -1.143   0.773  -0.102  0.00  0.00    -0.040 C 
BRANCH  29  30
ATOM     30  C   UNL     1       0.220   0.286  -0.614  0.00  0.00    -0.001 C 
BRANCH  30  31
ATOM     31  N   UNL     1       1.321   0.607   0.305  0.00  0.00    -0.298 N 
ATOM     32  C   UNL     1       1.504   2.067   0.474  0.00  0.00    +0.022 C 
ATOM     33  C   UNL     1       2.938   2.428   0.892  0.00  0.00    +0.060 C 
ATOM     34  O   UNL     1       3.906   2.078  -0.107  0.00  0.00    -0.377 OA
ATOM     35  C   UNL     1       3.528   0.927  -0.875  0.00  0.00    +0.060 C 
ATOM     36  C   UNL     1       2.590  -0.027  -0.118  0.00  0.00    +0.022 C 
ATOM     37  H   UNL     1       1.057   0.221   1.212  0.00  0.00    +0.000 HD
ENDBRANCH  30  31
ENDBRANCH  29  30
ENDBRANCH  28  29
ENDBRANCH  27  28
ENDBRANCH  26  27
ENDBRANCH  25  26
ENDBRANCH  24  25
ENDBRANCH  22  24
ENDBRANCH  21  22
ENDBRANCH   2  21
TORSDOF 15
