MODEL 1
REMARK VINA RESULT:    -5.892      0.000      0.000
REMARK INTER + INTRA:         -14.345
REMARK INTER:                 -10.887
REMARK INTRA:                  -3.458
REMARK UNBOUND:                -3.458
REMARK  Name = cpd291.pdb
REMARK  19 active torsions:
REMARK  status: ('A' for Active; 'I' for Inactive)
REMARK    1  A    between atoms: C_1  and  C_2
REMARK    2  A    between atoms: C_2  and  C_3
REMARK    3  A    between atoms: C_2  and  C_20
REMARK    4  A    between atoms: C_3  and  C_4
REMARK    5  A    between atoms: C_4  and  C_5
REMARK    6  A    between atoms: C_6  and  C_7
REMARK    7  A    between atoms: C_7  and  O_8
REMARK    8  A    between atoms: C_12  and  C_13
REMARK    9  A    between atoms: C_12  and  C_14
REMARK   10  A    between atoms: C_18  and  C_19
REMARK   11  A    between atoms: C_20  and  C_21
REMARK   12  A    between atoms: C_21  and  O_23
REMARK   13  A    between atoms: O_23  and  C_24
REMARK   14  A    between atoms: C_24  and  C_25
REMARK   15  A    between atoms: C_25  and  C_26
REMARK   16  A    between atoms: C_26  and  C_27
REMARK   17  A    between atoms: C_27  and  C_28
REMARK   18  A    between atoms: C_28  and  C_29
REMARK   19  A    between atoms: C_29  and  N_30
REMARK                            x       y       z     vdW  Elec       q    Type
REMARK                         _______ _______ _______ _____ _____    ______ ____
ROOT
ATOM      1  C   UNL     1      41.540 -19.368 -37.953  0.00  0.00    -0.062 C 
ATOM      2  C   UNL     1      42.297 -20.539 -37.323  0.00  0.00    -0.034 C 
ENDROOT
BRANCH   2   3
ATOM      3  C   UNL     1      43.746 -20.156 -36.947  0.00  0.00    -0.049 C 
BRANCH   3   4
ATOM      4  C   UNL     1      44.258 -18.812 -37.500  0.00  0.00    -0.046 C 
BRANCH   4   5
ATOM      5  C   UNL     1      45.608 -18.806 -38.279  0.00  0.00    -0.012 C 
ATOM      6  C   UNL     1      46.548 -19.909 -37.756  0.00  0.00    -0.045 C 
ATOM      7  C   UNL     1      46.700 -21.068 -38.432  0.00  0.00    -0.082 C 
ATOM      8  C   UNL     1      46.043 -21.406 -39.744  0.00  0.00    -0.031 C 
ATOM      9  C   UNL     1      44.981 -20.387 -40.196  0.00  0.00    -0.027 C 
ATOM     10  C   UNL     1      44.367 -20.606 -41.641  0.00  0.00    -0.031 C 
ATOM     11  C   UNL     1      42.845 -20.875 -41.491  0.00  0.00    -0.060 C 
ATOM     12  C   UNL     1      44.952 -21.831 -42.378  0.00  0.00    -0.060 C 
ATOM     13  C   UNL     1      44.540 -19.383 -42.572  0.00  0.00    -0.048 C 
ATOM     14  C   UNL     1      44.230 -18.022 -41.950  0.00  0.00    -0.052 C 
ATOM     15  C   UNL     1      44.388 -17.955 -40.433  0.00  0.00    -0.047 C 
ATOM     16  C   UNL     1      45.445 -18.930 -39.865  0.00  0.00    -0.022 C 
ATOM     17  C   UNL     1      46.828 -18.557 -40.485  0.00  0.00    -0.059 C 
BRANCH   6  18
ATOM     18  C   UNL     1      47.391 -19.554 -36.549  0.00  0.00    +0.066 C 
BRANCH  18  19
ATOM     19  O   UNL     1      47.191 -20.452 -35.466  0.00  0.00    -0.391 OA
ATOM     20  H   UNL     1      48.020 -20.919 -35.276  0.00  0.00    +0.000 HD
ENDBRANCH  18  19
ENDBRANCH   6  18
ENDBRANCH   4   5
ENDBRANCH   3   4
ENDBRANCH   2   3
BRANCH   2  21
ATOM     21  C   UNL     1      42.243 -21.805 -38.202  0.00  0.00    +0.048 C 
BRANCH  21  22
ATOM     22  C   UNL     1      41.064 -22.717 -37.939  0.00  0.00    +0.307 C 
ATOM     23  O   UNL     1      40.318 -23.058 -38.855  0.00  0.00    -0.251 OA
BRANCH  22  24
ATOM     24  O   UNL     1      40.823 -23.142 -36.679  0.00  0.00    -0.465 OA
BRANCH  24  25
ATOM     25  C   UNL     1      39.577 -23.005 -35.970  0.00  0.00    +0.092 C 
BRANCH  25  26
ATOM     26  C   UNL     1      39.256 -21.529 -35.749  0.00  0.00    -0.019 C 
BRANCH  26  27
ATOM     27  C   UNL     1      39.956 -20.998 -34.498  0.00  0.00    -0.050 C 
BRANCH  27  28
ATOM     28  C   UNL     1      39.663 -19.524 -34.214  0.00  0.00    -0.052 C 
BRANCH  28  29
ATOM     29  C   UNL     1      40.776 -18.833 -33.419  0.00  0.00    -0.040 C 
BRANCH  29  30
ATOM     30  C   UNL     1      41.611 -17.914 -34.323  0.00  0.00    -0.001 C 
BRANCH  30  31
ATOM     31  N   UNL     1      42.859 -17.471 -33.686  0.00  0.00    -0.298 N 
ATOM     32  C   UNL     1      43.862 -17.010 -34.674  0.00  0.00    +0.022 C 
ATOM     33  C   UNL     1      45.298 -17.129 -34.143  0.00  0.00    +0.060 C 
ATOM     34  O   UNL     1      45.677 -18.488 -33.883  0.00  0.00    -0.377 OA
ATOM     35  C   UNL     1      44.572 -19.313 -33.487  0.00  0.00    +0.060 C 
ATOM     36  C   UNL     1      43.435 -18.523 -32.818  0.00  0.00    +0.022 C 
ATOM     37  H   UNL     1      42.612 -16.673 -33.100  0.00  0.00    +0.000 HD
ENDBRANCH  30  31
ENDBRANCH  29  30
ENDBRANCH  28  29
ENDBRANCH  27  28
ENDBRANCH  26  27
ENDBRANCH  25  26
ENDBRANCH  24  25
ENDBRANCH  22  24
ENDBRANCH  21  22
ENDBRANCH   2  21
TORSDOF 15
ENDMDL
MODEL 2
REMARK VINA RESULT:    -5.698      2.018      5.207
REMARK INTER + INTRA:         -13.987
REMARK INTER:                 -11.137
REMARK INTRA:                  -2.850
REMARK UNBOUND:                -3.458
REMARK  Name = cpd291.pdb
REMARK  19 active torsions:
REMARK  status: ('A' for Active; 'I' for Inactive)
REMARK    1  A    between atoms: C_1  and  C_2
REMARK    2  A    between atoms: C_2  and  C_3
REMARK    3  A    between atoms: C_2  and  C_20
REMARK    4  A    between atoms: C_3  and  C_4
REMARK    5  A    between atoms: C_4  and  C_5
REMARK    6  A    between atoms: C_6  and  C_7
REMARK    7  A    between atoms: C_7  and  O_8
REMARK    8  A    between atoms: C_12  and  C_13
REMARK    9  A    between atoms: C_12  and  C_14
REMARK   10  A    between atoms: C_18  and  C_19
REMARK   11  A    between atoms: C_20  and  C_21
REMARK   12  A    between atoms: C_21  and  O_23
REMARK   13  A    between atoms: O_23  and  C_24
REMARK   14  A    between atoms: C_24  and  C_25
REMARK   15  A    between atoms: C_25  and  C_26
REMARK   16  A    between atoms: C_26  and  C_27
REMARK   17  A    between atoms: C_27  and  C_28
REMARK   18  A    between atoms: C_28  and  C_29
REMARK   19  A    between atoms: C_29  and  N_30
REMARK                            x       y       z     vdW  Elec       q    Type
REMARK                         _______ _______ _______ _____ _____    ______ ____
ROOT
ATOM      1  C   UNL     1      44.451 -20.183 -36.210  0.00  0.00    -0.062 C 
ATOM      2  C   UNL     1      45.862 -19.795 -36.656  0.00  0.00    -0.034 C 
ENDROOT
BRANCH   2   3
ATOM      3  C   UNL     1      46.319 -20.599 -37.894  0.00  0.00    -0.049 C 
BRANCH   3   4
ATOM      4  C   UNL     1      46.803 -19.772 -39.100  0.00  0.00    -0.046 C 
BRANCH   4   5
ATOM      5  C   UNL     1      45.944 -19.799 -40.400  0.00  0.00    -0.012 C 
ATOM      6  C   UNL     1      45.199 -21.140 -40.537  0.00  0.00    -0.045 C 
ATOM      7  C   UNL     1      43.888 -21.239 -40.227  0.00  0.00    -0.082 C 
ATOM      8  C   UNL     1      43.010 -20.104 -39.772  0.00  0.00    -0.031 C 
ATOM      9  C   UNL     1      43.772 -18.799 -39.476  0.00  0.00    -0.027 C 
ATOM     10  C   UNL     1      42.887 -17.528 -39.143  0.00  0.00    -0.031 C 
ATOM     11  C   UNL     1      43.210 -17.069 -37.696  0.00  0.00    -0.060 C 
ATOM     12  C   UNL     1      41.368 -17.811 -39.178  0.00  0.00    -0.060 C 
ATOM     13  C   UNL     1      43.153 -16.332 -40.087  0.00  0.00    -0.048 C 
ATOM     14  C   UNL     1      44.621 -16.025 -40.377  0.00  0.00    -0.052 C 
ATOM     15  C   UNL     1      45.569 -17.213 -40.234  0.00  0.00    -0.047 C 
ATOM     16  C   UNL     1      44.913 -18.582 -40.524  0.00  0.00    -0.022 C 
ATOM     17  C   UNL     1      44.412 -18.573 -42.002  0.00  0.00    -0.059 C 
BRANCH   6  18
ATOM     18  C   UNL     1      45.972 -22.273 -41.178  0.00  0.00    +0.066 C 
BRANCH  18  19
ATOM     19  O   UNL     1      46.690 -21.856 -42.331  0.00  0.00    -0.391 OA
ATOM     20  H   UNL     1      47.431 -22.462 -42.488  0.00  0.00    +0.000 HD
ENDBRANCH  18  19
ENDBRANCH   6  18
ENDBRANCH   4   5
ENDBRANCH   3   4
ENDBRANCH   2   3
BRANCH   2  21
ATOM     21  C   UNL     1      46.880 -19.883 -35.500  0.00  0.00    +0.048 C 
BRANCH  21  22
ATOM     22  C   UNL     1      47.156 -18.575 -34.789  0.00  0.00    +0.307 C 
ATOM     23  O   UNL     1      48.149 -17.906 -35.069  0.00  0.00    -0.251 OA
BRANCH  22  24
ATOM     24  O   UNL     1      46.308 -18.154 -33.825  0.00  0.00    -0.465 OA
BRANCH  24  25
ATOM     25  C   UNL     1      45.209 -17.243 -34.012  0.00  0.00    +0.092 C 
BRANCH  25  26
ATOM     26  C   UNL     1      44.073 -17.586 -33.052  0.00  0.00    -0.019 C 
BRANCH  26  27
ATOM     27  C   UNL     1      42.890 -18.200 -33.801  0.00  0.00    -0.050 C 
BRANCH  27  28
ATOM     28  C   UNL     1      41.618 -18.300 -32.957  0.00  0.00    -0.052 C 
BRANCH  28  29
ATOM     29  C   UNL     1      41.384 -19.703 -32.387  0.00  0.00    -0.040 C 
BRANCH  29  30
ATOM     30  C   UNL     1      41.704 -20.784 -33.429  0.00  0.00    -0.001 C 
BRANCH  30  31
ATOM     31  N   UNL     1      40.526 -21.188 -34.209  0.00  0.00    -0.298 N 
ATOM     32  C   UNL     1      40.116 -22.583 -33.925  0.00  0.00    +0.022 C 
ATOM     33  C   UNL     1      39.341 -23.210 -35.095  0.00  0.00    +0.060 C 
ATOM     34  O   UNL     1      40.137 -23.325 -36.283  0.00  0.00    -0.377 OA
ATOM     35  C   UNL     1      41.124 -22.291 -36.398  0.00  0.00    +0.060 C 
ATOM     36  C   UNL     1      40.738 -20.998 -35.661  0.00  0.00    +0.022 C 
ATOM     37  H   UNL     1      39.764 -20.576 -33.914  0.00  0.00    +0.000 HD
ENDBRANCH  30  31
ENDBRANCH  29  30
ENDBRANCH  28  29
ENDBRANCH  27  28
ENDBRANCH  26  27
ENDBRANCH  25  26
ENDBRANCH  24  25
ENDBRANCH  22  24
ENDBRANCH  21  22
ENDBRANCH   2  21
TORSDOF 15
ENDMDL
MODEL 3
REMARK VINA RESULT:    -5.645      2.449      7.985
REMARK INTER + INTRA:         -13.889
REMARK INTER:                 -11.705
REMARK INTRA:                  -2.184
REMARK UNBOUND:                -3.458
REMARK  Name = cpd291.pdb
REMARK  19 active torsions:
REMARK  status: ('A' for Active; 'I' for Inactive)
REMARK    1  A    between atoms: C_1  and  C_2
REMARK    2  A    between atoms: C_2  and  C_3
REMARK    3  A    between atoms: C_2  and  C_20
REMARK    4  A    between atoms: C_3  and  C_4
REMARK    5  A    between atoms: C_4  and  C_5
REMARK    6  A    between atoms: C_6  and  C_7
REMARK    7  A    between atoms: C_7  and  O_8
REMARK    8  A    between atoms: C_12  and  C_13
REMARK    9  A    between atoms: C_12  and  C_14
REMARK   10  A    between atoms: C_18  and  C_19
REMARK   11  A    between atoms: C_20  and  C_21
REMARK   12  A    between atoms: C_21  and  O_23
REMARK   13  A    between atoms: O_23  and  C_24
REMARK   14  A    between atoms: C_24  and  C_25
REMARK   15  A    between atoms: C_25  and  C_26
REMARK   16  A    between atoms: C_26  and  C_27
REMARK   17  A    between atoms: C_27  and  C_28
REMARK   18  A    between atoms: C_28  and  C_29
REMARK   19  A    between atoms: C_29  and  N_30
REMARK                            x       y       z     vdW  Elec       q    Type
REMARK                         _______ _______ _______ _____ _____    ______ ____
ROOT
ATOM      1  C   UNL     1      44.631 -20.221 -34.658  0.00  0.00    -0.062 C 
ATOM      2  C   UNL     1      44.853 -19.715 -36.084  0.00  0.00    -0.034 C 
ENDROOT
BRANCH   2   3
ATOM      3  C   UNL     1      43.681 -20.088 -37.020  0.00  0.00    -0.049 C 
BRANCH   3   4
ATOM      4  C   UNL     1      42.591 -20.993 -36.415  0.00  0.00    -0.046 C 
BRANCH   4   5
ATOM      5  C   UNL     1      41.102 -20.655 -36.726  0.00  0.00    -0.012 C 
ATOM      6  C   UNL     1      40.596 -21.467 -37.932  0.00  0.00    -0.045 C 
ATOM      7  C   UNL     1      39.823 -22.561 -37.756  0.00  0.00    -0.082 C 
ATOM      8  C   UNL     1      39.338 -23.083 -36.429  0.00  0.00    -0.031 C 
ATOM      9  C   UNL     1      39.965 -22.380 -35.211  0.00  0.00    -0.027 C 
ATOM     10  C   UNL     1      39.380 -22.778 -33.792  0.00  0.00    -0.031 C 
ATOM     11  C   UNL     1      40.516 -23.428 -32.958  0.00  0.00    -0.060 C 
ATOM     12  C   UNL     1      38.246 -23.826 -33.867  0.00  0.00    -0.060 C 
ATOM     13  C   UNL     1      38.839 -21.571 -32.992  0.00  0.00    -0.048 C 
ATOM     14  C   UNL     1      39.721 -20.324 -32.988  0.00  0.00    -0.052 C 
ATOM     15  C   UNL     1      40.653 -20.189 -34.190  0.00  0.00    -0.047 C 
ATOM     16  C   UNL     1      40.117 -20.848 -35.481  0.00  0.00    -0.022 C 
ATOM     17  C   UNL     1      38.777 -20.143 -35.861  0.00  0.00    -0.059 C 
BRANCH   6  18
ATOM     18  C   UNL     1      40.880 -20.884 -39.301  0.00  0.00    +0.066 C 
BRANCH  18  19
ATOM     19  O   UNL     1      41.495 -21.822 -40.172  0.00  0.00    -0.391 OA
ATOM     20  H   UNL     1      40.860 -22.520 -40.397  0.00  0.00    +0.000 HD
ENDBRANCH  18  19
ENDBRANCH   6  18
ENDBRANCH   4   5
ENDBRANCH   3   4
ENDBRANCH   2   3
BRANCH   2  21
ATOM     21  C   UNL     1      46.214 -20.165 -36.655  0.00  0.00    +0.048 C 
BRANCH  21  22
ATOM     22  C   UNL     1      47.270 -19.081 -36.722  0.00  0.00    +0.307 C 
ATOM     23  O   UNL     1      48.082 -18.940 -35.811  0.00  0.00    -0.251 OA
BRANCH  22  24
ATOM     24  O   UNL     1      47.301 -18.252 -37.789  0.00  0.00    -0.465 OA
BRANCH  24  25
ATOM     25  C   UNL     1      46.694 -16.948 -37.857  0.00  0.00    +0.092 C 
BRANCH  25  26
ATOM     26  C   UNL     1      45.404 -17.010 -38.670  0.00  0.00    -0.019 C 
BRANCH  26  27
ATOM     27  C   UNL     1      45.696 -17.326 -40.137  0.00  0.00    -0.050 C 
BRANCH  27  28
ATOM     28  C   UNL     1      44.483 -17.863 -40.899  0.00  0.00    -0.052 C 
BRANCH  28  29
ATOM     29  C   UNL     1      44.741 -19.222 -41.558  0.00  0.00    -0.040 C 
BRANCH  29  30
ATOM     30  C   UNL     1      44.924 -20.321 -40.502  0.00  0.00    -0.001 C 
BRANCH  30  31
ATOM     31  N   UNL     1      46.329 -20.722 -40.337  0.00  0.00    -0.298 N 
ATOM     32  C   UNL     1      47.137 -20.449 -41.547  0.00  0.00    +0.022 C 
ATOM     33  C   UNL     1      48.367 -21.365 -41.642  0.00  0.00    +0.060 C 
ATOM     34  O   UNL     1      48.013 -22.749 -41.776  0.00  0.00    -0.377 OA
ATOM     35  C   UNL     1      46.780 -23.078 -41.121  0.00  0.00    +0.060 C 
ATOM     36  C   UNL     1      46.449 -22.145 -39.945  0.00  0.00    +0.022 C 
ATOM     37  H   UNL     1      46.701 -20.149 -39.580  0.00  0.00    +0.000 HD
ENDBRANCH  30  31
ENDBRANCH  29  30
ENDBRANCH  28  29
ENDBRANCH  27  28
ENDBRANCH  26  27
ENDBRANCH  25  26
ENDBRANCH  24  25
ENDBRANCH  22  24
ENDBRANCH  21  22
ENDBRANCH   2  21
TORSDOF 15
ENDMDL
MODEL 4
REMARK VINA RESULT:    -5.596      2.397      7.322
REMARK INTER + INTRA:         -13.798
REMARK INTER:                 -10.712
REMARK INTRA:                  -3.086
REMARK UNBOUND:                -3.458
REMARK  Name = cpd291.pdb
REMARK  19 active torsions:
REMARK  status: ('A' for Active; 'I' for Inactive)
REMARK    1  A    between atoms: C_1  and  C_2
REMARK    2  A    between atoms: C_2  and  C_3
REMARK    3  A    between atoms: C_2  and  C_20
REMARK    4  A    between atoms: C_3  and  C_4
REMARK    5  A    between atoms: C_4  and  C_5
REMARK    6  A    between atoms: C_6  and  C_7
REMARK    7  A    between atoms: C_7  and  O_8
REMARK    8  A    between atoms: C_12  and  C_13
REMARK    9  A    between atoms: C_12  and  C_14
REMARK   10  A    between atoms: C_18  and  C_19
REMARK   11  A    between atoms: C_20  and  C_21
REMARK   12  A    between atoms: C_21  and  O_23
REMARK   13  A    between atoms: O_23  and  C_24
REMARK   14  A    between atoms: C_24  and  C_25
REMARK   15  A    between atoms: C_25  and  C_26
REMARK   16  A    between atoms: C_26  and  C_27
REMARK   17  A    between atoms: C_27  and  C_28
REMARK   18  A    between atoms: C_28  and  C_29
REMARK   19  A    between atoms: C_29  and  N_30
REMARK                            x       y       z     vdW  Elec       q    Type
REMARK                         _______ _______ _______ _____ _____    ______ ____
ROOT
ATOM      1  C   UNL     1      41.278 -17.430 -34.489  0.00  0.00    -0.062 C 
ATOM      2  C   UNL     1      42.168 -18.567 -33.983  0.00  0.00    -0.034 C 
ENDROOT
BRANCH   2   3
ATOM      3  C   UNL     1      41.340 -19.736 -33.406  0.00  0.00    -0.049 C 
BRANCH   3   4
ATOM      4  C   UNL     1      41.570 -21.116 -34.053  0.00  0.00    -0.046 C 
BRANCH   4   5
ATOM      5  C   UNL     1      40.359 -21.811 -34.746  0.00  0.00    -0.012 C 
ATOM      6  C   UNL     1      39.027 -21.276 -34.190  0.00  0.00    -0.045 C 
ATOM      7  C   UNL     1      38.302 -20.370 -34.881  0.00  0.00    -0.082 C 
ATOM      8  C   UNL     1      38.655 -19.821 -36.238  0.00  0.00    -0.031 C 
ATOM      9  C   UNL     1      40.057 -20.221 -36.733  0.00  0.00    -0.027 C 
ATOM     10  C   UNL     1      40.424 -19.805 -38.217  0.00  0.00    -0.031 C 
ATOM     11  C   UNL     1      41.629 -18.827 -38.169  0.00  0.00    -0.060 C 
ATOM     12  C   UNL     1      39.286 -19.053 -38.944  0.00  0.00    -0.060 C 
ATOM     13  C   UNL     1      40.826 -21.003 -39.108  0.00  0.00    -0.048 C 
ATOM     14  C   UNL     1      41.783 -22.013 -38.478  0.00  0.00    -0.052 C 
ATOM     15  C   UNL     1      41.743 -22.072 -36.952  0.00  0.00    -0.047 C 
ATOM     16  C   UNL     1      40.373 -21.702 -36.342  0.00  0.00    -0.022 C 
ATOM     17  C   UNL     1      39.319 -22.727 -36.866  0.00  0.00    -0.059 C 
BRANCH   6  18
ATOM     18  C   UNL     1      38.515 -21.933 -32.925  0.00  0.00    +0.066 C 
BRANCH  18  19
ATOM     19  O   UNL     1      38.883 -23.303 -32.840  0.00  0.00    -0.391 OA
ATOM     20  H   UNL     1      38.186 -23.797 -32.380  0.00  0.00    +0.000 HD
ENDBRANCH  18  19
ENDBRANCH   6  18
ENDBRANCH   4   5
ENDBRANCH   3   4
ENDBRANCH   2   3
BRANCH   2  21
ATOM     21  C   UNL     1      43.238 -18.069 -32.989  0.00  0.00    +0.048 C 
BRANCH  21  22
ATOM     22  C   UNL     1      44.670 -18.277 -33.432  0.00  0.00    +0.307 C 
ATOM     23  O   UNL     1      45.423 -17.319 -33.592  0.00  0.00    -0.251 OA
BRANCH  22  24
ATOM     24  O   UNL     1      45.114 -19.531 -33.672  0.00  0.00    -0.465 OA
BRANCH  24  25
ATOM     25  C   UNL     1      45.744 -19.981 -34.885  0.00  0.00    +0.092 C 
BRANCH  25  26
ATOM     26  C   UNL     1      44.727 -20.025 -36.022  0.00  0.00    -0.019 C 
BRANCH  26  27
ATOM     27  C   UNL     1      44.883 -18.816 -36.944  0.00  0.00    -0.050 C 
BRANCH  27  28
ATOM     28  C   UNL     1      46.227 -18.775 -37.674  0.00  0.00    -0.052 C 
BRANCH  28  29
ATOM     29  C   UNL     1      46.081 -18.741 -39.199  0.00  0.00    -0.040 C 
BRANCH  29  30
ATOM     30  C   UNL     1      45.294 -19.957 -39.706  0.00  0.00    -0.001 C 
BRANCH  30  31
ATOM     31  N   UNL     1      45.800 -20.469 -40.988  0.00  0.00    -0.298 N 
ATOM     32  C   UNL     1      44.798 -21.298 -41.696  0.00  0.00    +0.022 C 
ATOM     33  C   UNL     1      45.452 -22.301 -42.660  0.00  0.00    +0.060 C 
ATOM     34  O   UNL     1      46.269 -23.264 -41.980  0.00  0.00    -0.377 OA
ATOM     35  C   UNL     1      46.871 -22.745 -40.785  0.00  0.00    +0.060 C 
ATOM     36  C   UNL     1      47.064 -21.220 -40.816  0.00  0.00    +0.022 C 
ATOM     37  H   UNL     1      45.990 -19.650 -41.567  0.00  0.00    +0.000 HD
ENDBRANCH  30  31
ENDBRANCH  29  30
ENDBRANCH  28  29
ENDBRANCH  27  28
ENDBRANCH  26  27
ENDBRANCH  25  26
ENDBRANCH  24  25
ENDBRANCH  22  24
ENDBRANCH  21  22
ENDBRANCH   2  21
TORSDOF 15
ENDMDL
MODEL 5
REMARK VINA RESULT:    -5.424      1.813      3.623
REMARK INTER + INTRA:         -13.480
REMARK INTER:                 -10.682
REMARK INTRA:                  -2.798
REMARK UNBOUND:                -3.458
REMARK  Name = cpd291.pdb
REMARK  19 active torsions:
REMARK  status: ('A' for Active; 'I' for Inactive)
REMARK    1  A    between atoms: C_1  and  C_2
REMARK    2  A    between atoms: C_2  and  C_3
REMARK    3  A    between atoms: C_2  and  C_20
REMARK    4  A    between atoms: C_3  and  C_4
REMARK    5  A    between atoms: C_4  and  C_5
REMARK    6  A    between atoms: C_6  and  C_7
REMARK    7  A    between atoms: C_7  and  O_8
REMARK    8  A    between atoms: C_12  and  C_13
REMARK    9  A    between atoms: C_12  and  C_14
REMARK   10  A    between atoms: C_18  and  C_19
REMARK   11  A    between atoms: C_20  and  C_21
REMARK   12  A    between atoms: C_21  and  O_23
REMARK   13  A    between atoms: O_23  and  C_24
REMARK   14  A    between atoms: C_24  and  C_25
REMARK   15  A    between atoms: C_25  and  C_26
REMARK   16  A    between atoms: C_26  and  C_27
REMARK   17  A    between atoms: C_27  and  C_28
REMARK   18  A    between atoms: C_28  and  C_29
REMARK   19  A    between atoms: C_29  and  N_30
REMARK                            x       y       z     vdW  Elec       q    Type
REMARK                         _______ _______ _______ _____ _____    ______ ____
ROOT
ATOM      1  C   UNL     1      41.538 -19.222 -39.015  0.00  0.00    -0.062 C 
ATOM      2  C   UNL     1      42.117 -20.592 -38.657  0.00  0.00    -0.034 C 
ENDROOT
BRANCH   2   3
ATOM      3  C   UNL     1      42.961 -21.183 -39.809  0.00  0.00    -0.049 C 
BRANCH   3   4
ATOM      4  C   UNL     1      44.481 -21.254 -39.570  0.00  0.00    -0.046 C 
BRANCH   4   5
ATOM      5  C   UNL     1      45.424 -20.655 -40.658  0.00  0.00    -0.012 C 
ATOM      6  C   UNL     1      44.726 -20.625 -42.030  0.00  0.00    -0.045 C 
ATOM      7  C   UNL     1      44.206 -19.477 -42.518  0.00  0.00    -0.082 C 
ATOM      8  C   UNL     1      44.272 -18.133 -41.843  0.00  0.00    -0.031 C 
ATOM      9  C   UNL     1      44.820 -18.178 -40.405  0.00  0.00    -0.027 C 
ATOM     10  C   UNL     1      45.059 -16.779 -39.700  0.00  0.00    -0.031 C 
ATOM     11  C   UNL     1      44.131 -16.690 -38.458  0.00  0.00    -0.060 C 
ATOM     12  C   UNL     1      44.701 -15.571 -40.594  0.00  0.00    -0.060 C 
ATOM     13  C   UNL     1      46.514 -16.577 -39.216  0.00  0.00    -0.048 C 
ATOM     14  C   UNL     1      47.150 -17.766 -38.498  0.00  0.00    -0.052 C 
ATOM     15  C   UNL     1      46.564 -19.128 -38.864  0.00  0.00    -0.047 C 
ATOM     16  C   UNL     1      45.995 -19.205 -40.298  0.00  0.00    -0.022 C 
ATOM     17  C   UNL     1      47.162 -18.927 -41.296  0.00  0.00    -0.059 C 
BRANCH   6  18
ATOM     18  C   UNL     1      44.800 -21.897 -42.849  0.00  0.00    +0.066 C 
BRANCH  18  19
ATOM     19  O   UNL     1      46.067 -22.532 -42.749  0.00  0.00    -0.391 OA
ATOM     20  H   UNL     1      46.109 -23.270 -43.377  0.00  0.00    +0.000 HD
ENDBRANCH  18  19
ENDBRANCH   6  18
ENDBRANCH   4   5
ENDBRANCH   3   4
ENDBRANCH   2   3
BRANCH   2  21
ATOM     21  C   UNL     1      41.028 -21.574 -38.176  0.00  0.00    +0.048 C 
BRANCH  21  22
ATOM     22  C   UNL     1      41.166 -22.028 -36.738  0.00  0.00    +0.307 C 
ATOM     23  O   UNL     1      41.377 -23.209 -36.471  0.00  0.00    -0.251 OA
BRANCH  22  24
ATOM     24  O   UNL     1      41.036 -21.123 -35.743  0.00  0.00    -0.465 OA
BRANCH  24  25
ATOM     25  C   UNL     1      39.993 -20.136 -35.636  0.00  0.00    +0.092 C 
BRANCH  25  26
ATOM     26  C   UNL     1      40.482 -18.940 -34.824  0.00  0.00    -0.019 C 
BRANCH  26  27
ATOM     27  C   UNL     1      40.589 -19.291 -33.340  0.00  0.00    -0.050 C 
BRANCH  27  28
ATOM     28  C   UNL     1      41.535 -18.375 -32.562  0.00  0.00    -0.052 C 
BRANCH  28  29
ATOM     29  C   UNL     1      42.314 -17.411 -33.463  0.00  0.00    -0.040 C 
BRANCH  29  30
ATOM     30  C   UNL     1      43.820 -17.701 -33.412  0.00  0.00    -0.001 C 
BRANCH  30  31
ATOM     31  N   UNL     1      44.320 -18.335 -34.640  0.00  0.00    -0.298 N 
ATOM     32  C   UNL     1      44.623 -19.771 -34.448  0.00  0.00    +0.022 C 
ATOM     33  C   UNL     1      45.669 -20.284 -35.451  0.00  0.00    +0.060 C 
ATOM     34  O   UNL     1      46.942 -19.643 -35.292  0.00  0.00    -0.377 OA
ATOM     35  C   UNL     1      46.836 -18.294 -34.817  0.00  0.00    +0.060 C 
ATOM     36  C   UNL     1      45.501 -17.625 -35.181  0.00  0.00    +0.022 C 
ATOM     37  H   UNL     1      43.565 -18.267 -35.323  0.00  0.00    +0.000 HD
ENDBRANCH  30  31
ENDBRANCH  29  30
ENDBRANCH  28  29
ENDBRANCH  27  28
ENDBRANCH  26  27
ENDBRANCH  25  26
ENDBRANCH  24  25
ENDBRANCH  22  24
ENDBRANCH  21  22
ENDBRANCH   2  21
TORSDOF 15
ENDMDL
MODEL 6
REMARK VINA RESULT:    -5.300      2.033      3.414
REMARK INTER + INTRA:         -13.252
REMARK INTER:                 -10.046
REMARK INTRA:                  -3.206
REMARK UNBOUND:                -3.458
REMARK  Name = cpd291.pdb
REMARK  19 active torsions:
REMARK  status: ('A' for Active; 'I' for Inactive)
REMARK    1  A    between atoms: C_1  and  C_2
REMARK    2  A    between atoms: C_2  and  C_3
REMARK    3  A    between atoms: C_2  and  C_20
REMARK    4  A    between atoms: C_3  and  C_4
REMARK    5  A    between atoms: C_4  and  C_5
REMARK    6  A    between atoms: C_6  and  C_7
REMARK    7  A    between atoms: C_7  and  O_8
REMARK    8  A    between atoms: C_12  and  C_13
REMARK    9  A    between atoms: C_12  and  C_14
REMARK   10  A    between atoms: C_18  and  C_19
REMARK   11  A    between atoms: C_20  and  C_21
REMARK   12  A    between atoms: C_21  and  O_23
REMARK   13  A    between atoms: O_23  and  C_24
REMARK   14  A    between atoms: C_24  and  C_25
REMARK   15  A    between atoms: C_25  and  C_26
REMARK   16  A    between atoms: C_26  and  C_27
REMARK   17  A    between atoms: C_27  and  C_28
REMARK   18  A    between atoms: C_28  and  C_29
REMARK   19  A    between atoms: C_29  and  N_30
REMARK                            x       y       z     vdW  Elec       q    Type
REMARK                         _______ _______ _______ _____ _____    ______ ____
ROOT
ATOM      1  C   UNL     1      41.186 -19.379 -38.265  0.00  0.00    -0.062 C 
ATOM      2  C   UNL     1      41.800 -20.170 -37.108  0.00  0.00    -0.034 C 
ENDROOT
BRANCH   2   3
ATOM      3  C   UNL     1      43.037 -19.461 -36.514  0.00  0.00    -0.049 C 
BRANCH   3   4
ATOM      4  C   UNL     1      43.552 -18.231 -37.287  0.00  0.00    -0.046 C 
BRANCH   4   5
ATOM      5  C   UNL     1      45.029 -18.243 -37.784  0.00  0.00    -0.012 C 
ATOM      6  C   UNL     1      45.896 -19.163 -36.905  0.00  0.00    -0.045 C 
ATOM      7  C   UNL     1      46.237 -20.401 -37.324  0.00  0.00    -0.082 C 
ATOM      8  C   UNL     1      45.874 -21.003 -38.655  0.00  0.00    -0.031 C 
ATOM      9  C   UNL     1      44.878 -20.162 -39.474  0.00  0.00    -0.027 C 
ATOM     10  C   UNL     1      44.578 -20.665 -40.947  0.00  0.00    -0.031 C 
ATOM     11  C   UNL     1      43.072 -21.031 -41.044  0.00  0.00    -0.060 C 
ATOM     12  C   UNL     1      45.359 -21.943 -41.331  0.00  0.00    -0.060 C 
ATOM     13  C   UNL     1      44.876 -19.602 -42.030  0.00  0.00    -0.048 C 
ATOM     14  C   UNL     1      44.383 -18.188 -41.730  0.00  0.00    -0.052 C 
ATOM     15  C   UNL     1      44.229 -17.860 -40.246  0.00  0.00    -0.047 C 
ATOM     16  C   UNL     1      45.195 -18.638 -39.325  0.00  0.00    -0.022 C 
ATOM     17  C   UNL     1      46.655 -18.260 -39.726  0.00  0.00    -0.059 C 
BRANCH   6  18
ATOM     18  C   UNL     1      46.461 -18.547 -35.641  0.00  0.00    +0.066 C 
BRANCH  18  19
ATOM     19  O   UNL     1      46.067 -19.252 -34.472  0.00  0.00    -0.391 OA
ATOM     20  H   UNL     1      45.104 -19.373 -34.476  0.00  0.00    +0.000 HD
ENDBRANCH  18  19
ENDBRANCH   6  18
ENDBRANCH   4   5
ENDBRANCH   3   4
ENDBRANCH   2   3
BRANCH   2  21
ATOM     21  C   UNL     1      42.104 -21.631 -37.501  0.00  0.00    +0.048 C 
BRANCH  21  22
ATOM     22  C   UNL     1      40.982 -22.612 -37.233  0.00  0.00    +0.307 C 
ATOM     23  O   UNL     1      40.224 -22.960 -38.136  0.00  0.00    -0.251 OA
BRANCH  22  24
ATOM     24  O   UNL     1      40.806 -23.091 -35.981  0.00  0.00    -0.465 OA
BRANCH  24  25
ATOM     25  C   UNL     1      39.553 -23.157 -35.276  0.00  0.00    +0.092 C 
BRANCH  25  26
ATOM     26  C   UNL     1      39.773 -22.903 -33.787  0.00  0.00    -0.019 C 
BRANCH  26  27
ATOM     27  C   UNL     1      41.128 -22.239 -33.539  0.00  0.00    -0.050 C 
BRANCH  27  28
ATOM     28  C   UNL     1      41.022 -20.862 -32.882  0.00  0.00    -0.052 C 
BRANCH  28  29
ATOM     29  C   UNL     1      39.639 -20.223 -33.046  0.00  0.00    -0.040 C 
BRANCH  29  30
ATOM     30  C   UNL     1      39.596 -19.306 -34.276  0.00  0.00    -0.001 C 
BRANCH  30  31
ATOM     31  N   UNL     1      38.522 -19.662 -35.214  0.00  0.00    -0.298 N 
ATOM     32  C   UNL     1      38.111 -18.516 -36.058  0.00  0.00    +0.022 C 
ATOM     33  C   UNL     1      36.669 -18.659 -36.569  0.00  0.00    +0.060 C 
ATOM     34  O   UNL     1      35.707 -18.659 -35.505  0.00  0.00    -0.377 OA
ATOM     35  C   UNL     1      36.218 -19.218 -34.287  0.00  0.00    +0.060 C 
ATOM     36  C   UNL     1      37.350 -20.233 -34.513  0.00  0.00    +0.022 C 
ATOM     37  H   UNL     1      38.907 -20.378 -35.830  0.00  0.00    +0.000 HD
ENDBRANCH  30  31
ENDBRANCH  29  30
ENDBRANCH  28  29
ENDBRANCH  27  28
ENDBRANCH  26  27
ENDBRANCH  25  26
ENDBRANCH  24  25
ENDBRANCH  22  24
ENDBRANCH  21  22
ENDBRANCH   2  21
TORSDOF 15
ENDMDL
MODEL 7
REMARK VINA RESULT:    -5.296      2.534      8.215
REMARK INTER + INTRA:         -13.244
REMARK INTER:                 -10.293
REMARK INTRA:                  -2.950
REMARK UNBOUND:                -3.458
REMARK  Name = cpd291.pdb
REMARK  19 active torsions:
REMARK  status: ('A' for Active; 'I' for Inactive)
REMARK    1  A    between atoms: C_1  and  C_2
REMARK    2  A    between atoms: C_2  and  C_3
REMARK    3  A    between atoms: C_2  and  C_20
REMARK    4  A    between atoms: C_3  and  C_4
REMARK    5  A    between atoms: C_4  and  C_5
REMARK    6  A    between atoms: C_6  and  C_7
REMARK    7  A    between atoms: C_7  and  O_8
REMARK    8  A    between atoms: C_12  and  C_13
REMARK    9  A    between atoms: C_12  and  C_14
REMARK   10  A    between atoms: C_18  and  C_19
REMARK   11  A    between atoms: C_20  and  C_21
REMARK   12  A    between atoms: C_21  and  O_23
REMARK   13  A    between atoms: O_23  and  C_24
REMARK   14  A    between atoms: C_24  and  C_25
REMARK   15  A    between atoms: C_25  and  C_26
REMARK   16  A    between atoms: C_26  and  C_27
REMARK   17  A    between atoms: C_27  and  C_28
REMARK   18  A    between atoms: C_28  and  C_29
REMARK   19  A    between atoms: C_29  and  N_30
REMARK                            x       y       z     vdW  Elec       q    Type
REMARK                         _______ _______ _______ _____ _____    ______ ____
ROOT
ATOM      1  C   UNL     1      42.805 -18.004 -35.718  0.00  0.00    -0.062 C 
ATOM      2  C   UNL     1      43.270 -19.281 -35.016  0.00  0.00    -0.034 C 
ENDROOT
BRANCH   2   3
ATOM      3  C   UNL     1      42.400 -20.500 -35.395  0.00  0.00    -0.049 C 
BRANCH   3   4
ATOM      4  C   UNL     1      41.038 -20.187 -36.044  0.00  0.00    -0.046 C 
BRANCH   4   5
ATOM      5  C   UNL     1      39.747 -20.511 -35.233  0.00  0.00    -0.012 C 
ATOM      6  C   UNL     1      40.055 -21.479 -34.076  0.00  0.00    -0.045 C 
ATOM      7  C   UNL     1      40.176 -21.029 -32.808  0.00  0.00    -0.082 C 
ATOM      8  C   UNL     1      39.991 -19.601 -32.369  0.00  0.00    -0.031 C 
ATOM      9  C   UNL     1      39.844 -18.599 -33.529  0.00  0.00    -0.027 C 
ATOM     10  C   UNL     1      39.492 -17.107 -33.129  0.00  0.00    -0.031 C 
ATOM     11  C   UNL     1      40.658 -16.189 -33.583  0.00  0.00    -0.060 C 
ATOM     12  C   UNL     1      39.344 -16.897 -31.605  0.00  0.00    -0.060 C 
ATOM     13  C   UNL     1      38.196 -16.584 -33.792  0.00  0.00    -0.048 C 
ATOM     14  C   UNL     1      38.033 -16.898 -35.278  0.00  0.00    -0.052 C 
ATOM     15  C   UNL     1      38.789 -18.133 -35.763  0.00  0.00    -0.047 C 
ATOM     16  C   UNL     1      38.985 -19.218 -34.680  0.00  0.00    -0.022 C 
ATOM     17  C   UNL     1      37.573 -19.699 -34.219  0.00  0.00    -0.059 C 
BRANCH   6  18
ATOM     18  C   UNL     1      40.056 -22.955 -34.418  0.00  0.00    +0.066 C 
BRANCH  18  19
ATOM     19  O   UNL     1      41.089 -23.665 -33.749  0.00  0.00    -0.391 OA
ATOM     20  H   UNL     1      40.965 -23.590 -32.790  0.00  0.00    +0.000 HD
ENDBRANCH  18  19
ENDBRANCH   6  18
ENDBRANCH   4   5
ENDBRANCH   3   4
ENDBRANCH   2   3
BRANCH   2  21
ATOM     21  C   UNL     1      43.375 -19.098 -33.487  0.00  0.00    +0.048 C 
BRANCH  21  22
ATOM     22  C   UNL     1      44.524 -18.228 -33.025  0.00  0.00    +0.307 C 
ATOM     23  O   UNL     1      44.338 -17.320 -32.217  0.00  0.00    -0.251 OA
BRANCH  22  24
ATOM     24  O   UNL     1      45.761 -18.443 -33.523  0.00  0.00    -0.465 OA
BRANCH  24  25
ATOM     25  C   UNL     1      46.433 -17.615 -34.491  0.00  0.00    +0.092 C 
BRANCH  25  26
ATOM     26  C   UNL     1      47.487 -18.429 -35.238  0.00  0.00    -0.019 C 
BRANCH  26  27
ATOM     27  C   UNL     1      46.835 -19.521 -36.086  0.00  0.00    -0.050 C 
BRANCH  27  28
ATOM     28  C   UNL     1      46.754 -19.172 -37.574  0.00  0.00    -0.052 C 
BRANCH  28  29
ATOM     29  C   UNL     1      45.337 -19.293 -38.143  0.00  0.00    -0.040 C 
BRANCH  29  30
ATOM     30  C   UNL     1      45.329 -20.124 -39.434  0.00  0.00    -0.001 C 
BRANCH  30  31
ATOM     31  N   UNL     1      46.671 -20.577 -39.828  0.00  0.00    -0.298 N 
ATOM     32  C   UNL     1      47.063 -20.074 -41.164  0.00  0.00    +0.022 C 
ATOM     33  C   UNL     1      48.112 -20.973 -41.838  0.00  0.00    +0.060 C 
ATOM     34  O   UNL     1      47.615 -22.292 -42.104  0.00  0.00    -0.377 OA
ATOM     35  C   UNL     1      46.637 -22.726 -41.149  0.00  0.00    +0.060 C 
ATOM     36  C   UNL     1      46.789 -22.052 -39.776  0.00  0.00    +0.022 C 
ATOM     37  H   UNL     1      47.317 -20.180 -39.145  0.00  0.00    +0.000 HD
ENDBRANCH  30  31
ENDBRANCH  29  30
ENDBRANCH  28  29
ENDBRANCH  27  28
ENDBRANCH  26  27
ENDBRANCH  25  26
ENDBRANCH  24  25
ENDBRANCH  22  24
ENDBRANCH  21  22
ENDBRANCH   2  21
TORSDOF 15
ENDMDL
MODEL 8
REMARK VINA RESULT:    -5.217      2.847      8.226
REMARK INTER + INTRA:         -13.097
REMARK INTER:                 -10.560
REMARK INTRA:                  -2.537
REMARK UNBOUND:                -3.458
REMARK  Name = cpd291.pdb
REMARK  19 active torsions:
REMARK  status: ('A' for Active; 'I' for Inactive)
REMARK    1  A    between atoms: C_1  and  C_2
REMARK    2  A    between atoms: C_2  and  C_3
REMARK    3  A    between atoms: C_2  and  C_20
REMARK    4  A    between atoms: C_3  and  C_4
REMARK    5  A    between atoms: C_4  and  C_5
REMARK    6  A    between atoms: C_6  and  C_7
REMARK    7  A    between atoms: C_7  and  O_8
REMARK    8  A    between atoms: C_12  and  C_13
REMARK    9  A    between atoms: C_12  and  C_14
REMARK   10  A    between atoms: C_18  and  C_19
REMARK   11  A    between atoms: C_20  and  C_21
REMARK   12  A    between atoms: C_21  and  O_23
REMARK   13  A    between atoms: O_23  and  C_24
REMARK   14  A    between atoms: C_24  and  C_25
REMARK   15  A    between atoms: C_25  and  C_26
REMARK   16  A    between atoms: C_26  and  C_27
REMARK   17  A    between atoms: C_27  and  C_28
REMARK   18  A    between atoms: C_28  and  C_29
REMARK   19  A    between atoms: C_29  and  N_30
REMARK                            x       y       z     vdW  Elec       q    Type
REMARK                         _______ _______ _______ _____ _____    ______ ____
ROOT
ATOM      1  C   UNL     1      43.431 -19.891 -35.498  0.00  0.00    -0.062 C 
ATOM      2  C   UNL     1      42.159 -20.738 -35.432  0.00  0.00    -0.034 C 
ENDROOT
BRANCH   2   3
ATOM      3  C   UNL     1      41.873 -21.241 -33.999  0.00  0.00    -0.049 C 
BRANCH   3   4
ATOM      4  C   UNL     1      40.498 -20.872 -33.411  0.00  0.00    -0.046 C 
BRANCH   4   5
ATOM      5  C   UNL     1      39.241 -21.050 -34.316  0.00  0.00    -0.012 C 
ATOM      6  C   UNL     1      38.307 -22.134 -33.748  0.00  0.00    -0.045 C 
ATOM      7  C   UNL     1      37.190 -21.799 -33.067  0.00  0.00    -0.082 C 
ATOM      8  C   UNL     1      36.707 -20.394 -32.819  0.00  0.00    -0.031 C 
ATOM      9  C   UNL     1      37.709 -19.302 -33.237  0.00  0.00    -0.027 C 
ATOM     10  C   UNL     1      37.196 -17.806 -33.146  0.00  0.00    -0.031 C 
ATOM     11  C   UNL     1      38.073 -17.048 -32.113  0.00  0.00    -0.060 C 
ATOM     12  C   UNL     1      35.739 -17.685 -32.647  0.00  0.00    -0.060 C 
ATOM     13  C   UNL     1      37.286 -17.044 -34.489  0.00  0.00    -0.048 C 
ATOM     14  C   UNL     1      38.586 -17.223 -35.271  0.00  0.00    -0.052 C 
ATOM     15  C   UNL     1      39.337 -18.522 -34.987  0.00  0.00    -0.047 C 
ATOM     16  C   UNL     1      38.425 -19.698 -34.570  0.00  0.00    -0.022 C 
ATOM     17  C   UNL     1      37.442 -19.987 -35.747  0.00  0.00    -0.059 C 
BRANCH   6  18
ATOM     18  C   UNL     1      38.627 -23.564 -34.132  0.00  0.00    +0.066 C 
BRANCH  18  19
ATOM     19  O   UNL     1      38.828 -23.718 -35.530  0.00  0.00    -0.391 OA
ATOM     20  H   UNL     1      38.935 -24.659 -35.740  0.00  0.00    +0.000 HD
ENDBRANCH  18  19
ENDBRANCH   6  18
ENDBRANCH   4   5
ENDBRANCH   3   4
ENDBRANCH   2   3
BRANCH   2  21
ATOM     21  C   UNL     1      42.175 -21.890 -36.457  0.00  0.00    +0.048 C 
BRANCH  21  22
ATOM     22  C   UNL     1      41.096 -21.818 -37.517  0.00  0.00    +0.307 C 
ATOM     23  O   UNL     1      40.291 -22.737 -37.656  0.00  0.00    -0.251 OA
BRANCH  22  24
ATOM     24  O   UNL     1      41.036 -20.740 -38.329  0.00  0.00    -0.465 OA
BRANCH  24  25
ATOM     25  C   UNL     1      42.012 -20.382 -39.325  0.00  0.00    +0.092 C 
BRANCH  25  26
ATOM     26  C   UNL     1      42.585 -18.999 -39.026  0.00  0.00    -0.019 C 
BRANCH  26  27
ATOM     27  C   UNL     1      44.044 -18.903 -39.471  0.00  0.00    -0.050 C 
BRANCH  27  28
ATOM     28  C   UNL     1      44.972 -18.321 -38.403  0.00  0.00    -0.052 C 
BRANCH  28  29
ATOM     29  C   UNL     1      46.375 -18.937 -38.426  0.00  0.00    -0.040 C 
BRANCH  29  30
ATOM     30  C   UNL     1      46.860 -19.154 -39.866  0.00  0.00    -0.001 C 
BRANCH  30  31
ATOM     31  N   UNL     1      47.584 -20.422 -40.038  0.00  0.00    -0.298 N 
ATOM     32  C   UNL     1      47.903 -20.698 -41.458  0.00  0.00    +0.022 C 
ATOM     33  C   UNL     1      48.081 -22.200 -41.731  0.00  0.00    +0.060 C 
ATOM     34  O   UNL     1      46.878 -22.946 -41.502  0.00  0.00    -0.377 OA
ATOM     35  C   UNL     1      46.053 -22.380 -40.474  0.00  0.00    +0.060 C 
ATOM     36  C   UNL     1      46.846 -21.559 -39.444  0.00  0.00    +0.022 C 
ATOM     37  H   UNL     1      48.466 -20.316 -39.537  0.00  0.00    +0.000 HD
ENDBRANCH  30  31
ENDBRANCH  29  30
ENDBRANCH  28  29
ENDBRANCH  27  28
ENDBRANCH  26  27
ENDBRANCH  25  26
ENDBRANCH  24  25
ENDBRANCH  22  24
ENDBRANCH  21  22
ENDBRANCH   2  21
TORSDOF 15
ENDMDL
MODEL 9
REMARK VINA RESULT:    -5.186      2.634      4.355
REMARK INTER + INTRA:         -13.041
REMARK INTER:                 -10.518
REMARK INTRA:                  -2.522
REMARK UNBOUND:                -3.458
REMARK  Name = cpd291.pdb
REMARK  19 active torsions:
REMARK  status: ('A' for Active; 'I' for Inactive)
REMARK    1  A    between atoms: C_1  and  C_2
REMARK    2  A    between atoms: C_2  and  C_3
REMARK    3  A    between atoms: C_2  and  C_20
REMARK    4  A    between atoms: C_3  and  C_4
REMARK    5  A    between atoms: C_4  and  C_5
REMARK    6  A    between atoms: C_6  and  C_7
REMARK    7  A    between atoms: C_7  and  O_8
REMARK    8  A    between atoms: C_12  and  C_13
REMARK    9  A    between atoms: C_12  and  C_14
REMARK   10  A    between atoms: C_18  and  C_19
REMARK   11  A    between atoms: C_20  and  C_21
REMARK   12  A    between atoms: C_21  and  O_23
REMARK   13  A    between atoms: O_23  and  C_24
REMARK   14  A    between atoms: C_24  and  C_25
REMARK   15  A    between atoms: C_25  and  C_26
REMARK   16  A    between atoms: C_26  and  C_27
REMARK   17  A    between atoms: C_27  and  C_28
REMARK   18  A    between atoms: C_28  and  C_29
REMARK   19  A    between atoms: C_29  and  N_30
REMARK                            x       y       z     vdW  Elec       q    Type
REMARK                         _______ _______ _______ _____ _____    ______ ____
ROOT
ATOM      1  C   UNL     1      40.107 -20.952 -39.068  0.00  0.00    -0.062 C 
ATOM      2  C   UNL     1      41.567 -20.501 -38.998  0.00  0.00    -0.034 C 
ENDROOT
BRANCH   2   3
ATOM      3  C   UNL     1      42.400 -21.055 -40.176  0.00  0.00    -0.049 C 
BRANCH   3   4
ATOM      4  C   UNL     1      43.830 -21.520 -39.837  0.00  0.00    -0.046 C 
BRANCH   4   5
ATOM      5  C   UNL     1      45.013 -20.892 -40.633  0.00  0.00    -0.012 C 
ATOM      6  C   UNL     1      44.691 -20.831 -42.138  0.00  0.00    -0.045 C 
ATOM      7  C   UNL     1      44.301 -19.675 -42.717  0.00  0.00    -0.082 C 
ATOM      8  C   UNL     1      44.178 -18.347 -42.018  0.00  0.00    -0.031 C 
ATOM      9  C   UNL     1      44.340 -18.423 -40.489  0.00  0.00    -0.027 C 
ATOM     10  C   UNL     1      44.375 -17.041 -39.715  0.00  0.00    -0.031 C 
ATOM     11  C   UNL     1      43.159 -16.986 -38.752  0.00  0.00    -0.060 C 
ATOM     12  C   UNL     1      44.246 -15.813 -40.645  0.00  0.00    -0.060 C 
ATOM     13  C   UNL     1      45.655 -16.845 -38.871  0.00  0.00    -0.048 C 
ATOM     14  C   UNL     1      46.098 -18.048 -38.040  0.00  0.00    -0.052 C 
ATOM     15  C   UNL     1      45.640 -19.403 -38.574  0.00  0.00    -0.047 C 
ATOM     16  C   UNL     1      45.458 -19.448 -40.108  0.00  0.00    -0.022 C 
ATOM     17  C   UNL     1      46.839 -19.142 -40.766  0.00  0.00    -0.059 C 
BRANCH   6  18
ATOM     18  C   UNL     1      44.985 -22.083 -42.938  0.00  0.00    +0.066 C 
BRANCH  18  19
ATOM     19  O   UNL     1      46.368 -22.409 -42.944  0.00  0.00    -0.391 OA
ATOM     20  H   UNL     1      46.893 -21.594 -42.900  0.00  0.00    +0.000 HD
ENDBRANCH  18  19
ENDBRANCH   6  18
ENDBRANCH   4   5
ENDBRANCH   3   4
ENDBRANCH   2   3
BRANCH   2  21
ATOM     21  C   UNL     1      42.210 -20.824 -37.633  0.00  0.00    +0.048 C 
BRANCH  21  22
ATOM     22  C   UNL     1      41.495 -21.886 -36.824  0.00  0.00    +0.307 C 
ATOM     23  O   UNL     1      41.605 -23.075 -37.114  0.00  0.00    -0.251 OA
BRANCH  22  24
ATOM     24  O   UNL     1      40.713 -21.514 -35.786  0.00  0.00    -0.465 OA
BRANCH  24  25
ATOM     25  C   UNL     1      40.509 -22.267 -34.576  0.00  0.00    +0.092 C 
BRANCH  25  26
ATOM     26  C   UNL     1      39.124 -22.909 -34.584  0.00  0.00    -0.019 C 
BRANCH  26  27
ATOM     27  C   UNL     1      38.228 -22.291 -33.511  0.00  0.00    -0.050 C 
BRANCH  27  28
ATOM     28  C   UNL     1      38.802 -21.011 -32.899  0.00  0.00    -0.052 C 
BRANCH  28  29
ATOM     29  C   UNL     1      37.746 -19.923 -32.680  0.00  0.00    -0.040 C 
BRANCH  29  30
ATOM     30  C   UNL     1      37.391 -19.225 -34.000  0.00  0.00    -0.001 C 
BRANCH  30  31
ATOM     31  N   UNL     1      38.442 -19.363 -35.018  0.00  0.00    -0.298 N 
ATOM     32  C   UNL     1      39.293 -18.155 -35.113  0.00  0.00    +0.022 C 
ATOM     33  C   UNL     1      39.951 -18.015 -36.495  0.00  0.00    +0.060 C 
ATOM     34  O   UNL     1      38.991 -17.838 -37.546  0.00  0.00    -0.377 OA
ATOM     35  C   UNL     1      37.743 -18.493 -37.281  0.00  0.00    +0.060 C 
ATOM     36  C   UNL     1      37.879 -19.704 -36.344  0.00  0.00    +0.022 C 
ATOM     37  H   UNL     1      39.034 -20.136 -34.713  0.00  0.00    +0.000 HD
ENDBRANCH  30  31
ENDBRANCH  29  30
ENDBRANCH  28  29
ENDBRANCH  27  28
ENDBRANCH  26  27
ENDBRANCH  25  26
ENDBRANCH  24  25
ENDBRANCH  22  24
ENDBRANCH  21  22
ENDBRANCH   2  21
TORSDOF 15
ENDMDL
MODEL 10
REMARK VINA RESULT:    -5.058     17.368     21.372
REMARK INTER + INTRA:         -12.803
REMARK INTER:                 -10.114
REMARK INTRA:                  -2.690
REMARK UNBOUND:                -3.458
REMARK  Name = cpd291.pdb
REMARK  19 active torsions:
REMARK  status: ('A' for Active; 'I' for Inactive)
REMARK    1  A    between atoms: C_1  and  C_2
REMARK    2  A    between atoms: C_2  and  C_3
REMARK    3  A    between atoms: C_2  and  C_20
REMARK    4  A    between atoms: C_3  and  C_4
REMARK    5  A    between atoms: C_4  and  C_5
REMARK    6  A    between atoms: C_6  and  C_7
REMARK    7  A    between atoms: C_7  and  O_8
REMARK    8  A    between atoms: C_12  and  C_13
REMARK    9  A    between atoms: C_12  and  C_14
REMARK   10  A    between atoms: C_18  and  C_19
REMARK   11  A    between atoms: C_20  and  C_21
REMARK   12  A    between atoms: C_21  and  O_23
REMARK   13  A    between atoms: O_23  and  C_24
REMARK   14  A    between atoms: C_24  and  C_25
REMARK   15  A    between atoms: C_25  and  C_26
REMARK   16  A    between atoms: C_26  and  C_27
REMARK   17  A    between atoms: C_27  and  C_28
REMARK   18  A    between atoms: C_28  and  C_29
REMARK   19  A    between atoms: C_29  and  N_30
REMARK                            x       y       z     vdW  Elec       q    Type
REMARK                         _______ _______ _______ _____ _____    ______ ____
ROOT
ATOM      1  C   UNL     1      32.046 -38.505 -30.744  0.00  0.00    -0.062 C 
ATOM      2  C   UNL     1      33.337 -37.850 -31.242  0.00  0.00    -0.034 C 
ENDROOT
BRANCH   2   3
ATOM      3  C   UNL     1      33.103 -37.003 -32.512  0.00  0.00    -0.049 C 
BRANCH   3   4
ATOM      4  C   UNL     1      33.360 -35.490 -32.377  0.00  0.00    -0.046 C 
BRANCH   4   5
ATOM      5  C   UNL     1      33.785 -34.941 -30.981  0.00  0.00    -0.012 C 
ATOM      6  C   UNL     1      35.080 -34.115 -31.089  0.00  0.00    -0.045 C 
ATOM      7  C   UNL     1      35.043 -32.765 -31.089  0.00  0.00    -0.082 C 
ATOM      8  C   UNL     1      33.801 -31.926 -30.946  0.00  0.00    -0.031 C 
ATOM      9  C   UNL     1      32.489 -32.730 -31.000  0.00  0.00    -0.027 C 
ATOM     10  C   UNL     1      31.157 -31.924 -30.701  0.00  0.00    -0.031 C 
ATOM     11  C   UNL     1      30.263 -31.964 -31.969  0.00  0.00    -0.060 C 
ATOM     12  C   UNL     1      31.400 -30.430 -30.390  0.00  0.00    -0.060 C 
ATOM     13  C   UNL     1      30.338 -32.511 -29.528  0.00  0.00    -0.048 C 
ATOM     14  C   UNL     1      30.175 -34.030 -29.521  0.00  0.00    -0.052 C 
ATOM     15  C   UNL     1      31.276 -34.799 -30.247  0.00  0.00    -0.047 C 
ATOM     16  C   UNL     1      32.649 -34.089 -30.244  0.00  0.00    -0.022 C 
ATOM     17  C   UNL     1      33.106 -33.930 -28.760  0.00  0.00    -0.059 C 
BRANCH   6  18
ATOM     18  C   UNL     1      36.378 -34.893 -31.035  0.00  0.00    +0.066 C 
BRANCH  18  19
ATOM     19  O   UNL     1      37.281 -34.511 -32.063  0.00  0.00    -0.391 OA
ATOM     20  H   UNL     1      37.966 -35.192 -32.161  0.00  0.00    +0.000 HD
ENDBRANCH  18  19
ENDBRANCH   6  18
ENDBRANCH   4   5
ENDBRANCH   3   4
ENDBRANCH   2   3
BRANCH   2  21
ATOM     21  C   UNL     1      34.473 -38.877 -31.431  0.00  0.00    +0.048 C 
BRANCH  21  22
ATOM     22  C   UNL     1      34.426 -40.064 -30.492  0.00  0.00    +0.307 C 
ATOM     23  O   UNL     1      34.066 -41.168 -30.895  0.00  0.00    -0.251 OA
BRANCH  22  24
ATOM     24  O   UNL     1      34.766 -39.896 -29.195  0.00  0.00    -0.465 OA
BRANCH  24  25
ATOM     25  C   UNL     1      36.086 -40.059 -28.645  0.00  0.00    +0.092 C 
BRANCH  25  26
ATOM     26  C   UNL     1      36.868 -38.753 -28.756  0.00  0.00    -0.019 C 
BRANCH  26  27
ATOM     27  C   UNL     1      36.467 -37.780 -27.647  0.00  0.00    -0.050 C 
BRANCH  27  28
ATOM     28  C   UNL     1      35.383 -36.786 -28.069  0.00  0.00    -0.052 C 
BRANCH  28  29
ATOM     29  C   UNL     1      34.199 -36.740 -27.098  0.00  0.00    -0.040 C 
BRANCH  29  30
ATOM     30  C   UNL     1      34.425 -37.681 -25.906  0.00  0.00    -0.001 C 
BRANCH  30  31
ATOM     31  N   UNL     1      33.184 -37.993 -25.184  0.00  0.00    -0.298 N 
ATOM     32  C   UNL     1      32.474 -36.774 -24.733  0.00  0.00    +0.022 C 
ATOM     33  C   UNL     1      31.574 -37.043 -23.517  0.00  0.00    +0.060 C 
ATOM     34  O   UNL     1      32.320 -37.449 -22.361  0.00  0.00    -0.377 OA
ATOM     35  C   UNL     1      33.513 -38.174 -22.689  0.00  0.00    +0.060 C 
ATOM     36  C   UNL     1      33.429 -38.901 -24.041  0.00  0.00    +0.022 C 
ATOM     37  H   UNL     1      32.580 -38.475 -25.851  0.00  0.00    +0.000 HD
ENDBRANCH  30  31
ENDBRANCH  29  30
ENDBRANCH  28  29
ENDBRANCH  27  28
ENDBRANCH  26  27
ENDBRANCH  25  26
ENDBRANCH  24  25
ENDBRANCH  22  24
ENDBRANCH  21  22
ENDBRANCH   2  21
TORSDOF 15
ENDMDL
MODEL 11
REMARK VINA RESULT:    -5.042      2.190      5.087
REMARK INTER + INTRA:         -12.774
REMARK INTER:                 -10.555
REMARK INTRA:                  -2.220
REMARK UNBOUND:                -3.458
REMARK  Name = cpd291.pdb
REMARK  19 active torsions:
REMARK  status: ('A' for Active; 'I' for Inactive)
REMARK    1  A    between atoms: C_1  and  C_2
REMARK    2  A    between atoms: C_2  and  C_3
REMARK    3  A    between atoms: C_2  and  C_20
REMARK    4  A    between atoms: C_3  and  C_4
REMARK    5  A    between atoms: C_4  and  C_5
REMARK    6  A    between atoms: C_6  and  C_7
REMARK    7  A    between atoms: C_7  and  O_8
REMARK    8  A    between atoms: C_12  and  C_13
REMARK    9  A    between atoms: C_12  and  C_14
REMARK   10  A    between atoms: C_18  and  C_19
REMARK   11  A    between atoms: C_20  and  C_21
REMARK   12  A    between atoms: C_21  and  O_23
REMARK   13  A    between atoms: O_23  and  C_24
REMARK   14  A    between atoms: C_24  and  C_25
REMARK   15  A    between atoms: C_25  and  C_26
REMARK   16  A    between atoms: C_26  and  C_27
REMARK   17  A    between atoms: C_27  and  C_28
REMARK   18  A    between atoms: C_28  and  C_29
REMARK   19  A    between atoms: C_29  and  N_30
REMARK                            x       y       z     vdW  Elec       q    Type
REMARK                         _______ _______ _______ _____ _____    ______ ____
ROOT
ATOM      1  C   UNL     1      47.219 -18.194 -37.397  0.00  0.00    -0.062 C 
ATOM      2  C   UNL     1      45.837 -18.258 -36.744  0.00  0.00    -0.034 C 
ENDROOT
BRANCH   2   3
ATOM      3  C   UNL     1      44.755 -17.580 -37.614  0.00  0.00    -0.049 C 
BRANCH   3   4
ATOM      4  C   UNL     1      44.017 -18.491 -38.613  0.00  0.00    -0.046 C 
BRANCH   4   5
ATOM      5  C   UNL     1      44.149 -18.171 -40.133  0.00  0.00    -0.012 C 
ATOM      6  C   UNL     1      45.033 -16.930 -40.357  0.00  0.00    -0.045 C 
ATOM      7  C   UNL     1      46.319 -17.057 -40.750  0.00  0.00    -0.082 C 
ATOM      8  C   UNL     1      47.015 -18.358 -41.050  0.00  0.00    -0.031 C 
ATOM      9  C   UNL     1      46.199 -19.609 -40.677  0.00  0.00    -0.027 C 
ATOM     10  C   UNL     1      46.813 -21.004 -41.112  0.00  0.00    -0.031 C 
ATOM     11  C   UNL     1      47.106 -21.831 -39.831  0.00  0.00    -0.060 C 
ATOM     12  C   UNL     1      48.158 -20.876 -41.862  0.00  0.00    -0.060 C 
ATOM     13  C   UNL     1      45.866 -21.838 -42.005  0.00  0.00    -0.048 C 
ATOM     14  C   UNL     1      44.406 -21.899 -41.557  0.00  0.00    -0.052 C 
ATOM     15  C   UNL     1      43.942 -20.715 -40.710  0.00  0.00    -0.047 C 
ATOM     16  C   UNL     1      44.686 -19.395 -41.011  0.00  0.00    -0.022 C 
ATOM     17  C   UNL     1      44.421 -19.021 -42.503  0.00  0.00    -0.059 C 
BRANCH   6  18
ATOM     18  C   UNL     1      44.339 -15.587 -40.266  0.00  0.00    +0.066 C 
BRANCH  18  19
ATOM     19  O   UNL     1      44.746 -14.696 -41.295  0.00  0.00    -0.391 OA
ATOM     20  H   UNL     1      45.534 -14.208 -41.008  0.00  0.00    +0.000 HD
ENDBRANCH  18  19
ENDBRANCH   6  18
ENDBRANCH   4   5
ENDBRANCH   3   4
ENDBRANCH   2   3
BRANCH   2  21
ATOM     21  C   UNL     1      45.850 -17.706 -35.303  0.00  0.00    +0.048 C 
BRANCH  21  22
ATOM     22  C   UNL     1      44.943 -18.432 -34.332  0.00  0.00    +0.307 C 
ATOM     23  O   UNL     1      45.304 -19.481 -33.801  0.00  0.00    -0.251 OA
BRANCH  22  24
ATOM     24  O   UNL     1      43.718 -17.928 -34.066  0.00  0.00    -0.465 OA
BRANCH  24  25
ATOM     25  C   UNL     1      43.083 -17.902 -32.774  0.00  0.00    +0.092 C 
BRANCH  25  26
ATOM     26  C   UNL     1      41.713 -18.571 -32.848  0.00  0.00    -0.019 C 
BRANCH  26  27
ATOM     27  C   UNL     1      41.841 -20.092 -32.762  0.00  0.00    -0.050 C 
BRANCH  27  28
ATOM     28  C   UNL     1      40.581 -20.837 -33.207  0.00  0.00    -0.052 C 
BRANCH  28  29
ATOM     29  C   UNL     1      40.103 -20.428 -34.604  0.00  0.00    -0.040 C 
BRANCH  29  30
ATOM     30  C   UNL     1      40.529 -21.459 -35.658  0.00  0.00    -0.001 C 
BRANCH  30  31
ATOM     31  N   UNL     1      40.741 -20.863 -36.985  0.00  0.00    -0.298 N 
ATOM     32  C   UNL     1      39.523 -20.915 -37.825  0.00  0.00    +0.022 C 
ATOM     33  C   UNL     1      39.851 -20.883 -39.326  0.00  0.00    +0.060 C 
ATOM     34  O   UNL     1      40.603 -22.030 -39.748  0.00  0.00    -0.377 OA
ATOM     35  C   UNL     1      41.459 -22.548 -38.720  0.00  0.00    +0.060 C 
ATOM     36  C   UNL     1      41.882 -21.488 -37.690  0.00  0.00    +0.022 C 
ATOM     37  H   UNL     1      40.964 -19.880 -36.823  0.00  0.00    +0.000 HD
ENDBRANCH  30  31
ENDBRANCH  29  30
ENDBRANCH  28  29
ENDBRANCH  27  28
ENDBRANCH  26  27
ENDBRANCH  25  26
ENDBRANCH  24  25
ENDBRANCH  22  24
ENDBRANCH  21  22
ENDBRANCH   2  21
TORSDOF 15
ENDMDL
MODEL 12
REMARK VINA RESULT:    -5.029      1.812      2.513
REMARK INTER + INTRA:         -12.750
REMARK INTER:                  -9.450
REMARK INTRA:                  -3.300
REMARK UNBOUND:                -3.458
REMARK  Name = cpd291.pdb
REMARK  19 active torsions:
REMARK  status: ('A' for Active; 'I' for Inactive)
REMARK    1  A    between atoms: C_1  and  C_2
REMARK    2  A    between atoms: C_2  and  C_3
REMARK    3  A    between atoms: C_2  and  C_20
REMARK    4  A    between atoms: C_3  and  C_4
REMARK    5  A    between atoms: C_4  and  C_5
REMARK    6  A    between atoms: C_6  and  C_7
REMARK    7  A    between atoms: C_7  and  O_8
REMARK    8  A    between atoms: C_12  and  C_13
REMARK    9  A    between atoms: C_12  and  C_14
REMARK   10  A    between atoms: C_18  and  C_19
REMARK   11  A    between atoms: C_20  and  C_21
REMARK   12  A    between atoms: C_21  and  O_23
REMARK   13  A    between atoms: O_23  and  C_24
REMARK   14  A    between atoms: C_24  and  C_25
REMARK   15  A    between atoms: C_25  and  C_26
REMARK   16  A    between atoms: C_26  and  C_27
REMARK   17  A    between atoms: C_27  and  C_28
REMARK   18  A    between atoms: C_28  and  C_29
REMARK   19  A    between atoms: C_29  and  N_30
REMARK                            x       y       z     vdW  Elec       q    Type
REMARK                         _______ _______ _______ _____ _____    ______ ____
ROOT
ATOM      1  C   UNL     1      40.685 -19.618 -38.292  0.00  0.00    -0.062 C 
ATOM      2  C   UNL     1      41.086 -20.365 -37.018  0.00  0.00    -0.034 C 
ENDROOT
BRANCH   2   3
ATOM      3  C   UNL     1      42.345 -19.755 -36.361  0.00  0.00    -0.049 C 
BRANCH   3   4
ATOM      4  C   UNL     1      42.785 -18.376 -36.887  0.00  0.00    -0.046 C 
BRANCH   4   5
ATOM      5  C   UNL     1      44.288 -18.173 -37.246  0.00  0.00    -0.012 C 
ATOM      6  C   UNL     1      45.193 -18.965 -36.284  0.00  0.00    -0.045 C 
ATOM      7  C   UNL     1      45.744 -20.139 -36.661  0.00  0.00    -0.082 C 
ATOM      8  C   UNL     1      45.595 -20.778 -38.016  0.00  0.00    -0.031 C 
ATOM      9  C   UNL     1      44.569 -20.084 -38.930  0.00  0.00    -0.027 C 
ATOM     10  C   UNL     1      44.481 -20.615 -40.420  0.00  0.00    -0.031 C 
ATOM     11  C   UNL     1      43.059 -21.192 -40.653  0.00  0.00    -0.060 C 
ATOM     12  C   UNL     1      45.468 -21.766 -40.721  0.00  0.00    -0.060 C 
ATOM     13  C   UNL     1      44.723 -19.514 -41.478  0.00  0.00    -0.048 C 
ATOM     14  C   UNL     1      44.007 -18.186 -41.235  0.00  0.00    -0.052 C 
ATOM     15  C   UNL     1      43.671 -17.893 -39.774  0.00  0.00    -0.047 C 
ATOM     16  C   UNL     1      44.649 -18.531 -38.762  0.00  0.00    -0.022 C 
ATOM     17  C   UNL     1      46.071 -17.945 -39.030  0.00  0.00    -0.059 C 
BRANCH   6  18
ATOM     18  C   UNL     1      45.544 -18.283 -34.979  0.00  0.00    +0.066 C 
BRANCH  18  19
ATOM     19  O   UNL     1      45.514 -19.177 -33.875  0.00  0.00    -0.391 OA
ATOM     20  H   UNL     1      46.357 -19.128 -33.396  0.00  0.00    +0.000 HD
ENDBRANCH  18  19
ENDBRANCH   6  18
ENDBRANCH   4   5
ENDBRANCH   3   4
ENDBRANCH   2   3
BRANCH   2  21
ATOM     21  C   UNL     1      41.236 -21.882 -37.258  0.00  0.00    +0.048 C 
BRANCH  21  22
ATOM     22  C   UNL     1      40.477 -22.761 -36.289  0.00  0.00    +0.307 C 
ATOM     23  O   UNL     1      39.548 -23.467 -36.677  0.00  0.00    -0.251 OA
BRANCH  22  24
ATOM     24  O   UNL     1      40.815 -22.752 -34.981  0.00  0.00    -0.465 OA
BRANCH  24  25
ATOM     25  C   UNL     1      39.954 -23.123 -33.887  0.00  0.00    +0.092 C 
BRANCH  25  26
ATOM     26  C   UNL     1      40.264 -22.268 -32.661  0.00  0.00    -0.019 C 
BRANCH  26  27
ATOM     27  C   UNL     1      41.630 -21.596 -32.793  0.00  0.00    -0.050 C 
BRANCH  27  28
ATOM     28  C   UNL     1      41.576 -20.072 -32.661  0.00  0.00    -0.052 C 
BRANCH  28  29
ATOM     29  C   UNL     1      40.281 -19.467 -33.212  0.00  0.00    -0.040 C 
BRANCH  29  30
ATOM     30  C   UNL     1      39.820 -18.278 -32.358  0.00  0.00    -0.001 C 
BRANCH  30  31
ATOM     31  N   UNL     1      39.641 -17.048 -33.143  0.00  0.00    -0.298 N 
ATOM     32  C   UNL     1      39.806 -17.281 -34.596  0.00  0.00    +0.022 C 
ATOM     33  C   UNL     1      40.227 -16.006 -35.344  0.00  0.00    +0.060 C 
ATOM     34  O   UNL     1      41.513 -15.525 -34.929  0.00  0.00    -0.377 OA
ATOM     35  C   UNL     1      41.805 -15.818 -33.555  0.00  0.00    +0.060 C 
ATOM     36  C   UNL     1      40.546 -15.970 -32.686  0.00  0.00    +0.022 C 
ATOM     37  H   UNL     1      38.679 -16.747 -32.985  0.00  0.00    +0.000 HD
ENDBRANCH  30  31
ENDBRANCH  29  30
ENDBRANCH  28  29
ENDBRANCH  27  28
ENDBRANCH  26  27
ENDBRANCH  25  26
ENDBRANCH  24  25
ENDBRANCH  22  24
ENDBRANCH  21  22
ENDBRANCH   2  21
TORSDOF 15
ENDMDL
MODEL 13
REMARK VINA RESULT:    -4.985      2.940      7.426
REMARK INTER + INTRA:         -12.669
REMARK INTER:                  -9.323
REMARK INTRA:                  -3.346
REMARK UNBOUND:                -3.458
REMARK  Name = cpd291.pdb
REMARK  19 active torsions:
REMARK  status: ('A' for Active; 'I' for Inactive)
REMARK    1  A    between atoms: C_1  and  C_2
REMARK    2  A    between atoms: C_2  and  C_3
REMARK    3  A    between atoms: C_2  and  C_20
REMARK    4  A    between atoms: C_3  and  C_4
REMARK    5  A    between atoms: C_4  and  C_5
REMARK    6  A    between atoms: C_6  and  C_7
REMARK    7  A    between atoms: C_7  and  O_8
REMARK    8  A    between atoms: C_12  and  C_13
REMARK    9  A    between atoms: C_12  and  C_14
REMARK   10  A    between atoms: C_18  and  C_19
REMARK   11  A    between atoms: C_20  and  C_21
REMARK   12  A    between atoms: C_21  and  O_23
REMARK   13  A    between atoms: O_23  and  C_24
REMARK   14  A    between atoms: C_24  and  C_25
REMARK   15  A    between atoms: C_25  and  C_26
REMARK   16  A    between atoms: C_26  and  C_27
REMARK   17  A    between atoms: C_27  and  C_28
REMARK   18  A    between atoms: C_28  and  C_29
REMARK   19  A    between atoms: C_29  and  N_30
REMARK                            x       y       z     vdW  Elec       q    Type
REMARK                         _______ _______ _______ _____ _____    ______ ____
ROOT
ATOM      1  C   UNL     1      42.298 -16.367 -38.061  0.00  0.00    -0.062 C 
ATOM      2  C   UNL     1      42.174 -17.558 -39.013  0.00  0.00    -0.034 C 
ENDROOT
BRANCH   2   3
ATOM      3  C   UNL     1      41.553 -18.791 -38.319  0.00  0.00    -0.049 C 
BRANCH   3   4
ATOM      4  C   UNL     1      40.797 -18.522 -37.004  0.00  0.00    -0.046 C 
BRANCH   4   5
ATOM      5  C   UNL     1      41.138 -19.407 -35.767  0.00  0.00    -0.012 C 
ATOM      6  C   UNL     1      41.889 -20.681 -36.195  0.00  0.00    -0.045 C 
ATOM      7  C   UNL     1      43.228 -20.779 -36.047  0.00  0.00    -0.082 C 
ATOM      8  C   UNL     1      44.117 -19.730 -35.434  0.00  0.00    -0.031 C 
ATOM      9  C   UNL     1      43.408 -18.392 -35.150  0.00  0.00    -0.027 C 
ATOM     10  C   UNL     1      44.250 -17.304 -34.364  0.00  0.00    -0.031 C 
ATOM     11  C   UNL     1      44.427 -16.064 -35.281  0.00  0.00    -0.060 C 
ATOM     12  C   UNL     1      45.675 -17.776 -33.996  0.00  0.00    -0.060 C 
ATOM     13  C   UNL     1      43.571 -16.831 -33.058  0.00  0.00    -0.048 C 
ATOM     14  C   UNL     1      42.076 -16.530 -33.153  0.00  0.00    -0.052 C 
ATOM     15  C   UNL     1      41.339 -17.273 -34.265  0.00  0.00    -0.047 C 
ATOM     16  C   UNL     1      41.957 -18.643 -34.625  0.00  0.00    -0.022 C 
ATOM     17  C   UNL     1      41.897 -19.548 -33.355  0.00  0.00    -0.059 C 
BRANCH   6  18
ATOM     18  C   UNL     1      41.032 -21.850 -36.635  0.00  0.00    +0.066 C 
BRANCH  18  19
ATOM     19  O   UNL     1      41.533 -23.095 -36.168  0.00  0.00    -0.391 OA
ATOM     20  H   UNL     1      42.466 -22.996 -35.921  0.00  0.00    +0.000 HD
ENDBRANCH  18  19
ENDBRANCH   6  18
ENDBRANCH   4   5
ENDBRANCH   3   4
ENDBRANCH   2   3
BRANCH   2  21
ATOM     21  C   UNL     1      43.514 -17.895 -39.700  0.00  0.00    +0.048 C 
BRANCH  21  22
ATOM     22  C   UNL     1      43.940 -16.925 -40.781  0.00  0.00    +0.307 C 
ATOM     23  O   UNL     1      43.107 -16.404 -41.521  0.00  0.00    -0.251 OA
BRANCH  22  24
ATOM     24  O   UNL     1      45.252 -16.648 -40.943  0.00  0.00    -0.465 OA
BRANCH  24  25
ATOM     25  C   UNL     1      46.020 -15.725 -40.149  0.00  0.00    +0.092 C 
BRANCH  25  26
ATOM     26  C   UNL     1      47.150 -16.460 -39.433  0.00  0.00    -0.019 C 
BRANCH  26  27
ATOM     27  C   UNL     1      46.832 -16.641 -37.949  0.00  0.00    -0.050 C 
BRANCH  27  28
ATOM     28  C   UNL     1      46.575 -18.096 -37.552  0.00  0.00    -0.052 C 
BRANCH  28  29
ATOM     29  C   UNL     1      46.986 -19.096 -38.637  0.00  0.00    -0.040 C 
BRANCH  29  30
ATOM     30  C   UNL     1      46.110 -20.356 -38.587  0.00  0.00    -0.001 C 
BRANCH  30  31
ATOM     31  N   UNL     1      46.308 -21.234 -39.749  0.00  0.00    -0.298 N 
ATOM     32  C   UNL     1      47.690 -21.761 -39.826  0.00  0.00    +0.022 C 
ATOM     33  C   UNL     1      48.088 -22.139 -41.261  0.00  0.00    +0.060 C 
ATOM     34  O   UNL     1      48.107 -21.007 -42.143  0.00  0.00    -0.377 OA
ATOM     35  C   UNL     1      47.151 -20.000 -41.782  0.00  0.00    +0.060 C 
ATOM     36  C   UNL     1      45.942 -20.557 -41.014  0.00  0.00    +0.022 C 
ATOM     37  H   UNL     1      45.680 -22.028 -39.617  0.00  0.00    +0.000 HD
ENDBRANCH  30  31
ENDBRANCH  29  30
ENDBRANCH  28  29
ENDBRANCH  27  28
ENDBRANCH  26  27
ENDBRANCH  25  26
ENDBRANCH  24  25
ENDBRANCH  22  24
ENDBRANCH  21  22
ENDBRANCH   2  21
TORSDOF 15
ENDMDL
MODEL 14
REMARK VINA RESULT:    -4.973      2.685      8.402
REMARK INTER + INTRA:         -12.646
REMARK INTER:                 -10.841
REMARK INTRA:                  -1.805
REMARK UNBOUND:                -3.458
REMARK  Name = cpd291.pdb
REMARK  19 active torsions:
REMARK  status: ('A' for Active; 'I' for Inactive)
REMARK    1  A    between atoms: C_1  and  C_2
REMARK    2  A    between atoms: C_2  and  C_3
REMARK    3  A    between atoms: C_2  and  C_20
REMARK    4  A    between atoms: C_3  and  C_4
REMARK    5  A    between atoms: C_4  and  C_5
REMARK    6  A    between atoms: C_6  and  C_7
REMARK    7  A    between atoms: C_7  and  O_8
REMARK    8  A    between atoms: C_12  and  C_13
REMARK    9  A    between atoms: C_12  and  C_14
REMARK   10  A    between atoms: C_18  and  C_19
REMARK   11  A    between atoms: C_20  and  C_21
REMARK   12  A    between atoms: C_21  and  O_23
REMARK   13  A    between atoms: O_23  and  C_24
REMARK   14  A    between atoms: C_24  and  C_25
REMARK   15  A    between atoms: C_25  and  C_26
REMARK   16  A    between atoms: C_26  and  C_27
REMARK   17  A    between atoms: C_27  and  C_28
REMARK   18  A    between atoms: C_28  and  C_29
REMARK   19  A    between atoms: C_29  and  N_30
REMARK                            x       y       z     vdW  Elec       q    Type
REMARK                         _______ _______ _______ _____ _____    ______ ____
ROOT
ATOM      1  C   UNL     1      42.334 -15.864 -32.901  0.00  0.00    -0.062 C 
ATOM      2  C   UNL     1      42.045 -17.222 -33.542  0.00  0.00    -0.034 C 
ENDROOT
BRANCH   2   3
ATOM      3  C   UNL     1      40.545 -17.585 -33.478  0.00  0.00    -0.049 C 
BRANCH   3   4
ATOM      4  C   UNL     1      40.108 -18.461 -32.289  0.00  0.00    -0.046 C 
BRANCH   4   5
ATOM      5  C   UNL     1      38.795 -19.290 -32.432  0.00  0.00    -0.012 C 
ATOM      6  C   UNL     1      37.724 -18.492 -33.198  0.00  0.00    -0.045 C 
ATOM      7  C   UNL     1      37.472 -18.745 -34.501  0.00  0.00    -0.082 C 
ATOM      8  C   UNL     1      38.136 -19.814 -35.327  0.00  0.00    -0.031 C 
ATOM      9  C   UNL     1      39.317 -20.508 -34.625  0.00  0.00    -0.027 C 
ATOM     10  C   UNL     1      39.956 -21.745 -35.382  0.00  0.00    -0.031 C 
ATOM     11  C   UNL     1      41.433 -21.406 -35.718  0.00  0.00    -0.060 C 
ATOM     12  C   UNL     1      39.268 -22.063 -36.729  0.00  0.00    -0.060 C 
ATOM     13  C   UNL     1      39.950 -23.045 -34.545  0.00  0.00    -0.048 C 
ATOM     14  C   UNL     1      40.382 -22.902 -33.086  0.00  0.00    -0.052 C 
ATOM     15  C   UNL     1      40.177 -21.512 -32.487  0.00  0.00    -0.047 C 
ATOM     16  C   UNL     1      39.002 -20.724 -33.109  0.00  0.00    -0.022 C 
ATOM     17  C   UNL     1      37.690 -21.530 -32.851  0.00  0.00    -0.059 C 
BRANCH   6  18
ATOM     18  C   UNL     1      36.881 -17.540 -32.376  0.00  0.00    +0.066 C 
BRANCH  18  19
ATOM     19  O   UNL     1      35.636 -18.109 -31.996  0.00  0.00    -0.391 OA
ATOM     20  H   UNL     1      35.166 -17.496 -31.408  0.00  0.00    +0.000 HD
ENDBRANCH  18  19
ENDBRANCH   6  18
ENDBRANCH   4   5
ENDBRANCH   3   4
ENDBRANCH   2   3
BRANCH   2  21
ATOM     21  C   UNL     1      42.936 -18.340 -32.961  0.00  0.00    +0.048 C 
BRANCH  21  22
ATOM     22  C   UNL     1      44.424 -18.134 -33.146  0.00  0.00    +0.307 C 
ATOM     23  O   UNL     1      45.165 -18.002 -32.173  0.00  0.00    -0.251 OA
BRANCH  22  24
ATOM     24  O   UNL     1      44.935 -18.076 -34.395  0.00  0.00    -0.465 OA
BRANCH  24  25
ATOM     25  C   UNL     1      46.309 -18.316 -34.754  0.00  0.00    +0.092 C 
BRANCH  25  26
ATOM     26  C   UNL     1      46.846 -17.155 -35.586  0.00  0.00    -0.019 C 
BRANCH  26  27
ATOM     27  C   UNL     1      47.008 -17.561 -37.051  0.00  0.00    -0.050 C 
BRANCH  27  28
ATOM     28  C   UNL     1      45.790 -17.229 -37.915  0.00  0.00    -0.052 C 
BRANCH  28  29
ATOM     29  C   UNL     1      45.413 -18.357 -38.880  0.00  0.00    -0.040 C 
BRANCH  29  30
ATOM     30  C   UNL     1      44.597 -19.445 -38.167  0.00  0.00    -0.001 C 
BRANCH  30  31
ATOM     31  N   UNL     1      44.987 -20.804 -38.569  0.00  0.00    -0.298 N 
ATOM     32  C   UNL     1      46.385 -20.868 -39.054  0.00  0.00    +0.022 C 
ATOM     33  C   UNL     1      46.615 -22.049 -40.009  0.00  0.00    +0.060 C 
ATOM     34  O   UNL     1      45.842 -21.940 -41.213  0.00  0.00    -0.377 OA
ATOM     35  C   UNL     1      44.596 -21.257 -41.020  0.00  0.00    +0.060 C 
ATOM     36  C   UNL     1      44.063 -21.361 -39.582  0.00  0.00    +0.022 C 
ATOM     37  H   UNL     1      44.924 -21.379 -37.728  0.00  0.00    +0.000 HD
ENDBRANCH  30  31
ENDBRANCH  29  30
ENDBRANCH  28  29
ENDBRANCH  27  28
ENDBRANCH  26  27
ENDBRANCH  25  26
ENDBRANCH  24  25
ENDBRANCH  22  24
ENDBRANCH  21  22
ENDBRANCH   2  21
TORSDOF 15
ENDMDL
MODEL 15
REMARK VINA RESULT:    -4.900      2.669      6.278
REMARK INTER + INTRA:         -12.512
REMARK INTER:                  -9.768
REMARK INTRA:                  -2.745
REMARK UNBOUND:                -3.458
REMARK  Name = cpd291.pdb
REMARK  19 active torsions:
REMARK  status: ('A' for Active; 'I' for Inactive)
REMARK    1  A    between atoms: C_1  and  C_2
REMARK    2  A    between atoms: C_2  and  C_3
REMARK    3  A    between atoms: C_2  and  C_20
REMARK    4  A    between atoms: C_3  and  C_4
REMARK    5  A    between atoms: C_4  and  C_5
REMARK    6  A    between atoms: C_6  and  C_7
REMARK    7  A    between atoms: C_7  and  O_8
REMARK    8  A    between atoms: C_12  and  C_13
REMARK    9  A    between atoms: C_12  and  C_14
REMARK   10  A    between atoms: C_18  and  C_19
REMARK   11  A    between atoms: C_20  and  C_21
REMARK   12  A    between atoms: C_21  and  O_23
REMARK   13  A    between atoms: O_23  and  C_24
REMARK   14  A    between atoms: C_24  and  C_25
REMARK   15  A    between atoms: C_25  and  C_26
REMARK   16  A    between atoms: C_26  and  C_27
REMARK   17  A    between atoms: C_27  and  C_28
REMARK   18  A    between atoms: C_28  and  C_29
REMARK   19  A    between atoms: C_29  and  N_30
REMARK                            x       y       z     vdW  Elec       q    Type
REMARK                         _______ _______ _______ _____ _____    ______ ____
ROOT
ATOM      1  C   UNL     1      39.448 -19.869 -37.747  0.00  0.00    -0.062 C 
ATOM      2  C   UNL     1      40.324 -19.890 -36.493  0.00  0.00    -0.034 C 
ENDROOT
BRANCH   2   3
ATOM      3  C   UNL     1      41.223 -18.638 -36.394  0.00  0.00    -0.049 C 
BRANCH   3   4
ATOM      4  C   UNL     1      41.182 -17.875 -35.056  0.00  0.00    -0.046 C 
BRANCH   4   5
ATOM      5  C   UNL     1      42.437 -17.943 -34.134  0.00  0.00    -0.012 C 
ATOM      6  C   UNL     1      42.867 -19.403 -33.900  0.00  0.00    -0.045 C 
ATOM      7  C   UNL     1      43.912 -19.933 -34.572  0.00  0.00    -0.082 C 
ATOM      8  C   UNL     1      44.780 -19.198 -35.558  0.00  0.00    -0.031 C 
ATOM      9  C   UNL     1      44.267 -17.793 -35.922  0.00  0.00    -0.027 C 
ATOM     10  C   UNL     1      45.218 -16.911 -36.833  0.00  0.00    -0.031 C 
ATOM     11  C   UNL     1      44.485 -16.619 -38.170  0.00  0.00    -0.060 C 
ATOM     12  C   UNL     1      46.538 -17.620 -37.209  0.00  0.00    -0.060 C 
ATOM     13  C   UNL     1      45.591 -15.553 -36.194  0.00  0.00    -0.048 C 
ATOM     14  C   UNL     1      44.443 -14.783 -35.544  0.00  0.00    -0.052 C 
ATOM     15  C   UNL     1      43.276 -15.646 -35.069  0.00  0.00    -0.047 C 
ATOM     16  C   UNL     1      43.678 -17.081 -34.660  0.00  0.00    -0.022 C 
ATOM     17  C   UNL     1      44.684 -16.980 -33.472  0.00  0.00    -0.059 C 
BRANCH   6  18
ATOM     18  C   UNL     1      42.163 -20.138 -32.779  0.00  0.00    +0.066 C 
BRANCH  18  19
ATOM     19  O   UNL     1      42.115 -21.541 -32.997  0.00  0.00    -0.391 OA
ATOM     20  H   UNL     1      42.341 -22.004 -32.175  0.00  0.00    +0.000 HD
ENDBRANCH  18  19
ENDBRANCH   6  18
ENDBRANCH   4   5
ENDBRANCH   3   4
ENDBRANCH   2   3
BRANCH   2  21
ATOM     21  C   UNL     1      41.136 -21.197 -36.373  0.00  0.00    +0.048 C 
BRANCH  21  22
ATOM     22  C   UNL     1      40.562 -22.378 -37.127  0.00  0.00    +0.307 C 
ATOM     23  O   UNL     1      39.520 -22.913 -36.754  0.00  0.00    -0.251 OA
BRANCH  22  24
ATOM     24  O   UNL     1      41.217 -22.856 -38.207  0.00  0.00    -0.465 OA
BRANCH  24  25
ATOM     25  C   UNL     1      40.913 -22.546 -39.580  0.00  0.00    +0.092 C 
BRANCH  25  26
ATOM     26  C   UNL     1      42.143 -21.969 -40.275  0.00  0.00    -0.019 C 
BRANCH  26  27
ATOM     27  C   UNL     1      42.493 -20.591 -39.715  0.00  0.00    -0.050 C 
BRANCH  27  28
ATOM     28  C   UNL     1      43.840 -20.549 -38.992  0.00  0.00    -0.052 C 
BRANCH  28  29
ATOM     29  C   UNL     1      44.916 -19.783 -39.769  0.00  0.00    -0.040 C 
BRANCH  29  30
ATOM     30  C   UNL     1      46.260 -20.524 -39.728  0.00  0.00    -0.001 C 
BRANCH  30  31
ATOM     31  N   UNL     1      46.676 -21.023 -41.046  0.00  0.00    -0.298 N 
ATOM     32  C   UNL     1      45.727 -22.018 -41.595  0.00  0.00    +0.022 C 
ATOM     33  C   UNL     1      46.397 -22.965 -42.602  0.00  0.00    +0.060 C 
ATOM     34  O   UNL     1      47.421 -23.770 -42.002  0.00  0.00    -0.377 OA
ATOM     35  C   UNL     1      48.081 -23.114 -40.910  0.00  0.00    +0.060 C 
ATOM     36  C   UNL     1      48.047 -21.580 -41.013  0.00  0.00    +0.022 C 
ATOM     37  H   UNL     1      46.674 -20.215 -41.670  0.00  0.00    +0.000 HD
ENDBRANCH  30  31
ENDBRANCH  29  30
ENDBRANCH  28  29
ENDBRANCH  27  28
ENDBRANCH  26  27
ENDBRANCH  25  26
ENDBRANCH  24  25
ENDBRANCH  22  24
ENDBRANCH  21  22
ENDBRANCH   2  21
TORSDOF 15
ENDMDL
MODEL 16
REMARK VINA RESULT:    -4.889      2.364      4.575
REMARK INTER + INTRA:         -12.492
REMARK INTER:                  -8.851
REMARK INTRA:                  -3.641
REMARK UNBOUND:                -3.458
REMARK  Name = cpd291.pdb
REMARK  19 active torsions:
REMARK  status: ('A' for Active; 'I' for Inactive)
REMARK    1  A    between atoms: C_1  and  C_2
REMARK    2  A    between atoms: C_2  and  C_3
REMARK    3  A    between atoms: C_2  and  C_20
REMARK    4  A    between atoms: C_3  and  C_4
REMARK    5  A    between atoms: C_4  and  C_5
REMARK    6  A    between atoms: C_6  and  C_7
REMARK    7  A    between atoms: C_7  and  O_8
REMARK    8  A    between atoms: C_12  and  C_13
REMARK    9  A    between atoms: C_12  and  C_14
REMARK   10  A    between atoms: C_18  and  C_19
REMARK   11  A    between atoms: C_20  and  C_21
REMARK   12  A    between atoms: C_21  and  O_23
REMARK   13  A    between atoms: O_23  and  C_24
REMARK   14  A    between atoms: C_24  and  C_25
REMARK   15  A    between atoms: C_25  and  C_26
REMARK   16  A    between atoms: C_26  and  C_27
REMARK   17  A    between atoms: C_27  and  C_28
REMARK   18  A    between atoms: C_28  and  C_29
REMARK   19  A    between atoms: C_29  and  N_30
REMARK                            x       y       z     vdW  Elec       q    Type
REMARK                         _______ _______ _______ _____ _____    ______ ____
ROOT
ATOM      1  C   UNL     1      46.389 -17.941 -34.577  0.00  0.00    -0.062 C 
ATOM      2  C   UNL     1      45.580 -19.050 -35.251  0.00  0.00    -0.034 C 
ENDROOT
BRANCH   2   3
ATOM      3  C   UNL     1      46.347 -19.693 -36.428  0.00  0.00    -0.049 C 
BRANCH   3   4
ATOM      4  C   UNL     1      45.603 -19.743 -37.776  0.00  0.00    -0.046 C 
BRANCH   4   5
ATOM      5  C   UNL     1      46.396 -19.372 -39.066  0.00  0.00    -0.012 C 
ATOM      6  C   UNL     1      46.133 -20.397 -40.185  0.00  0.00    -0.045 C 
ATOM      7  C   UNL     1      45.279 -20.118 -41.193  0.00  0.00    -0.082 C 
ATOM      8  C   UNL     1      44.539 -18.820 -41.377  0.00  0.00    -0.031 C 
ATOM      9  C   UNL     1      44.665 -17.850 -40.187  0.00  0.00    -0.027 C 
ATOM     10  C   UNL     1      44.039 -16.408 -40.385  0.00  0.00    -0.031 C 
ATOM     11  C   UNL     1      42.899 -16.221 -39.348  0.00  0.00    -0.060 C 
ATOM     12  C   UNL     1      43.395 -16.204 -41.776  0.00  0.00    -0.060 C 
ATOM     13  C   UNL     1      45.058 -15.264 -40.178  0.00  0.00    -0.048 C 
ATOM     14  C   UNL     1      45.972 -15.397 -38.961  0.00  0.00    -0.052 C 
ATOM     15  C   UNL     1      46.202 -16.828 -38.481  0.00  0.00    -0.047 C 
ATOM     16  C   UNL     1      46.114 -17.891 -39.600  0.00  0.00    -0.022 C 
ATOM     17  C   UNL     1      47.224 -17.578 -40.651  0.00  0.00    -0.059 C 
BRANCH   6  18
ATOM     18  C   UNL     1      46.994 -21.643 -40.169  0.00  0.00    +0.066 C 
BRANCH  18  19
ATOM     19  O   UNL     1      48.354 -21.358 -39.873  0.00  0.00    -0.391 OA
ATOM     20  H   UNL     1      48.919 -22.053 -40.246  0.00  0.00    +0.000 HD
ENDBRANCH  18  19
ENDBRANCH   6  18
ENDBRANCH   4   5
ENDBRANCH   3   4
ENDBRANCH   2   3
BRANCH   2  21
ATOM     21  C   UNL     1      44.174 -18.572 -35.668  0.00  0.00    +0.048 C 
BRANCH  21  22
ATOM     22  C   UNL     1      43.039 -19.097 -34.815  0.00  0.00    +0.307 C 
ATOM     23  O   UNL     1      42.788 -18.589 -33.724  0.00  0.00    -0.251 OA
BRANCH  22  24
ATOM     24  O   UNL     1      42.312 -20.149 -35.253  0.00  0.00    -0.465 OA
BRANCH  24  25
ATOM     25  C   UNL     1      42.754 -21.140 -36.199  0.00  0.00    +0.092 C 
BRANCH  25  26
ATOM     26  C   UNL     1      41.584 -22.024 -36.620  0.00  0.00    -0.019 C 
BRANCH  26  27
ATOM     27  C   UNL     1      41.397 -22.000 -38.137  0.00  0.00    -0.050 C 
BRANCH  27  28
ATOM     28  C   UNL     1      42.270 -20.961 -38.843  0.00  0.00    -0.052 C 
BRANCH  28  29
ATOM     29  C   UNL     1      41.496 -19.703 -39.250  0.00  0.00    -0.040 C 
BRANCH  29  30
ATOM     30  C   UNL     1      39.984 -19.902 -39.071  0.00  0.00    -0.001 C 
BRANCH  30  31
ATOM     31  N   UNL     1      39.377 -18.891 -38.194  0.00  0.00    -0.298 N 
ATOM     32  C   UNL     1      40.390 -18.139 -37.418  0.00  0.00    +0.022 C 
ATOM     33  C   UNL     1      39.812 -17.557 -36.118  0.00  0.00    +0.060 C 
ATOM     34  O   UNL     1      39.373 -18.575 -35.208  0.00  0.00    -0.377 OA
ATOM     35  C   UNL     1      38.903 -19.757 -35.872  0.00  0.00    +0.060 C 
ATOM     36  C   UNL     1      38.369 -19.486 -37.288  0.00  0.00    +0.022 C 
ATOM     37  H   UNL     1      38.904 -18.228 -38.808  0.00  0.00    +0.000 HD
ENDBRANCH  30  31
ENDBRANCH  29  30
ENDBRANCH  28  29
ENDBRANCH  27  28
ENDBRANCH  26  27
ENDBRANCH  25  26
ENDBRANCH  24  25
ENDBRANCH  22  24
ENDBRANCH  21  22
ENDBRANCH   2  21
TORSDOF 15
ENDMDL
MODEL 17
REMARK VINA RESULT:    -4.877      2.530      7.876
REMARK INTER + INTRA:         -12.469
REMARK INTER:                  -9.531
REMARK INTRA:                  -2.938
REMARK UNBOUND:                -3.458
REMARK  Name = cpd291.pdb
REMARK  19 active torsions:
REMARK  status: ('A' for Active; 'I' for Inactive)
REMARK    1  A    between atoms: C_1  and  C_2
REMARK    2  A    between atoms: C_2  and  C_3
REMARK    3  A    between atoms: C_2  and  C_20
REMARK    4  A    between atoms: C_3  and  C_4
REMARK    5  A    between atoms: C_4  and  C_5
REMARK    6  A    between atoms: C_6  and  C_7
REMARK    7  A    between atoms: C_7  and  O_8
REMARK    8  A    between atoms: C_12  and  C_13
REMARK    9  A    between atoms: C_12  and  C_14
REMARK   10  A    between atoms: C_18  and  C_19
REMARK   11  A    between atoms: C_20  and  C_21
REMARK   12  A    between atoms: C_21  and  O_23
REMARK   13  A    between atoms: O_23  and  C_24
REMARK   14  A    between atoms: C_24  and  C_25
REMARK   15  A    between atoms: C_25  and  C_26
REMARK   16  A    between atoms: C_26  and  C_27
REMARK   17  A    between atoms: C_27  and  C_28
REMARK   18  A    between atoms: C_28  and  C_29
REMARK   19  A    between atoms: C_29  and  N_30
REMARK                            x       y       z     vdW  Elec       q    Type
REMARK                         _______ _______ _______ _____ _____    ______ ____
ROOT
ATOM      1  C   UNL     1      41.569 -16.038 -33.249  0.00  0.00    -0.062 C 
ATOM      2  C   UNL     1      42.718 -16.742 -33.973  0.00  0.00    -0.034 C 
ENDROOT
BRANCH   2   3
ATOM      3  C   UNL     1      42.355 -17.087 -35.435  0.00  0.00    -0.049 C 
BRANCH   3   4
ATOM      4  C   UNL     1      40.857 -17.045 -35.791  0.00  0.00    -0.046 C 
BRANCH   4   5
ATOM      5  C   UNL     1      40.201 -18.341 -36.356  0.00  0.00    -0.012 C 
ATOM      6  C   UNL     1      41.269 -19.290 -36.931  0.00  0.00    -0.045 C 
ATOM      7  C   UNL     1      41.688 -20.367 -36.231  0.00  0.00    -0.082 C 
ATOM      8  C   UNL     1      41.165 -20.791 -34.885  0.00  0.00    -0.031 C 
ATOM      9  C   UNL     1      40.219 -19.769 -34.228  0.00  0.00    -0.027 C 
ATOM     10  C   UNL     1      39.515 -20.225 -32.883  0.00  0.00    -0.031 C 
ATOM     11  C   UNL     1      39.980 -19.283 -31.741  0.00  0.00    -0.060 C 
ATOM     12  C   UNL     1      39.897 -21.657 -32.445  0.00  0.00    -0.060 C 
ATOM     13  C   UNL     1      37.971 -20.161 -32.948  0.00  0.00    -0.048 C 
ATOM     14  C   UNL     1      37.381 -18.900 -33.576  0.00  0.00    -0.052 C 
ATOM     15  C   UNL     1      38.297 -18.184 -34.567  0.00  0.00    -0.047 C 
ATOM     16  C   UNL     1      39.285 -19.119 -35.301  0.00  0.00    -0.022 C 
ATOM     17  C   UNL     1      38.452 -20.157 -36.116  0.00  0.00    -0.059 C 
BRANCH   6  18
ATOM     18  C   UNL     1      41.692 -19.035 -38.363  0.00  0.00    +0.066 C 
BRANCH  18  19
ATOM     19  O   UNL     1      43.071 -19.303 -38.575  0.00  0.00    -0.391 OA
ATOM     20  H   UNL     1      43.380 -18.813 -39.354  0.00  0.00    +0.000 HD
ENDBRANCH  18  19
ENDBRANCH   6  18
ENDBRANCH   4   5
ENDBRANCH   3   4
ENDBRANCH   2   3
BRANCH   2  21
ATOM     21  C   UNL     1      43.224 -17.975 -33.196  0.00  0.00    +0.048 C 
BRANCH  21  22
ATOM     22  C   UNL     1      44.726 -18.165 -33.207  0.00  0.00    +0.307 C 
ATOM     23  O   UNL     1      45.479 -17.226 -32.956  0.00  0.00    -0.251 OA
BRANCH  22  24
ATOM     24  O   UNL     1      45.239 -19.377 -33.514  0.00  0.00    -0.465 OA
BRANCH  24  25
ATOM     25  C   UNL     1      45.171 -20.015 -34.803  0.00  0.00    +0.092 C 
BRANCH  25  26
ATOM     26  C   UNL     1      45.388 -18.988 -35.911  0.00  0.00    -0.019 C 
BRANCH  26  27
ATOM     27  C   UNL     1      46.876 -18.814 -36.213  0.00  0.00    -0.050 C 
BRANCH  27  28
ATOM     28  C   UNL     1      47.305 -19.429 -37.546  0.00  0.00    -0.052 C 
BRANCH  28  29
ATOM     29  C   UNL     1      46.995 -18.533 -38.749  0.00  0.00    -0.040 C 
BRANCH  29  30
ATOM     30  C   UNL     1      46.736 -19.371 -40.009  0.00  0.00    -0.001 C 
BRANCH  30  31
ATOM     31  N   UNL     1      46.832 -20.816 -39.762  0.00  0.00    -0.298 N 
ATOM     32  C   UNL     1      47.907 -21.452 -40.559  0.00  0.00    +0.022 C 
ATOM     33  C   UNL     1      47.648 -22.948 -40.795  0.00  0.00    +0.060 C 
ATOM     34  O   UNL     1      46.465 -23.184 -41.572  0.00  0.00    -0.377 OA
ATOM     35  C   UNL     1      45.455 -22.185 -41.373  0.00  0.00    +0.060 C 
ATOM     36  C   UNL     1      45.541 -21.500 -40.000  0.00  0.00    +0.022 C 
ATOM     37  H   UNL     1      47.074 -20.921 -38.776  0.00  0.00    +0.000 HD
ENDBRANCH  30  31
ENDBRANCH  29  30
ENDBRANCH  28  29
ENDBRANCH  27  28
ENDBRANCH  26  27
ENDBRANCH  25  26
ENDBRANCH  24  25
ENDBRANCH  22  24
ENDBRANCH  21  22
ENDBRANCH   2  21
TORSDOF 15
ENDMDL
MODEL 18
REMARK VINA RESULT:    -4.803      2.425      3.619
REMARK INTER + INTRA:         -12.333
REMARK INTER:                  -9.432
REMARK INTRA:                  -2.901
REMARK UNBOUND:                -3.458
REMARK  Name = cpd291.pdb
REMARK  19 active torsions:
REMARK  status: ('A' for Active; 'I' for Inactive)
REMARK    1  A    between atoms: C_1  and  C_2
REMARK    2  A    between atoms: C_2  and  C_3
REMARK    3  A    between atoms: C_2  and  C_20
REMARK    4  A    between atoms: C_3  and  C_4
REMARK    5  A    between atoms: C_4  and  C_5
REMARK    6  A    between atoms: C_6  and  C_7
REMARK    7  A    between atoms: C_7  and  O_8
REMARK    8  A    between atoms: C_12  and  C_13
REMARK    9  A    between atoms: C_12  and  C_14
REMARK   10  A    between atoms: C_18  and  C_19
REMARK   11  A    between atoms: C_20  and  C_21
REMARK   12  A    between atoms: C_21  and  O_23
REMARK   13  A    between atoms: O_23  and  C_24
REMARK   14  A    between atoms: C_24  and  C_25
REMARK   15  A    between atoms: C_25  and  C_26
REMARK   16  A    between atoms: C_26  and  C_27
REMARK   17  A    between atoms: C_27  and  C_28
REMARK   18  A    between atoms: C_28  and  C_29
REMARK   19  A    between atoms: C_29  and  N_30
REMARK                            x       y       z     vdW  Elec       q    Type
REMARK                         _______ _______ _______ _____ _____    ______ ____
ROOT
ATOM      1  C   UNL     1      43.332 -19.597 -36.918  0.00  0.00    -0.062 C 
ATOM      2  C   UNL     1      42.833 -20.683 -37.873  0.00  0.00    -0.034 C 
ENDROOT
BRANCH   2   3
ATOM      3  C   UNL     1      43.916 -21.099 -38.893  0.00  0.00    -0.049 C 
BRANCH   3   4
ATOM      4  C   UNL     1      45.351 -20.624 -38.592  0.00  0.00    -0.046 C 
BRANCH   4   5
ATOM      5  C   UNL     1      46.162 -19.965 -39.748  0.00  0.00    -0.012 C 
ATOM      6  C   UNL     1      45.860 -20.653 -41.092  0.00  0.00    -0.045 C 
ATOM      7  C   UNL     1      45.021 -20.087 -41.987  0.00  0.00    -0.082 C 
ATOM      8  C   UNL     1      44.338 -18.756 -41.822  0.00  0.00    -0.031 C 
ATOM      9  C   UNL     1      44.502 -18.134 -40.423  0.00  0.00    -0.027 C 
ATOM     10  C   UNL     1      43.939 -16.664 -40.237  0.00  0.00    -0.031 C 
ATOM     11  C   UNL     1      42.806 -16.703 -39.176  0.00  0.00    -0.060 C 
ATOM     12  C   UNL     1      43.309 -16.080 -41.521  0.00  0.00    -0.060 C 
ATOM     13  C   UNL     1      45.006 -15.657 -39.749  0.00  0.00    -0.048 C 
ATOM     14  C   UNL     1      45.910 -16.138 -38.616  0.00  0.00    -0.052 C 
ATOM     15  C   UNL     1      46.077 -17.654 -38.524  0.00  0.00    -0.047 C 
ATOM     16  C   UNL     1      45.946 -18.386 -39.878  0.00  0.00    -0.022 C 
ATOM     17  C   UNL     1      47.072 -17.859 -40.822  0.00  0.00    -0.059 C 
BRANCH   6  18
ATOM     18  C   UNL     1      46.666 -21.896 -41.406  0.00  0.00    +0.066 C 
BRANCH  18  19
ATOM     19  O   UNL     1      46.319 -22.464 -42.661  0.00  0.00    -0.391 OA
ATOM     20  H   UNL     1      47.127 -22.710 -43.140  0.00  0.00    +0.000 HD
ENDBRANCH  18  19
ENDBRANCH   6  18
ENDBRANCH   4   5
ENDBRANCH   3   4
ENDBRANCH   2   3
BRANCH   2  21
ATOM     21  C   UNL     1      41.511 -20.288 -38.562  0.00  0.00    +0.048 C 
BRANCH  21  22
ATOM     22  C   UNL     1      40.372 -21.267 -38.372  0.00  0.00    +0.307 C 
ATOM     23  O   UNL     1      39.259 -21.034 -38.839  0.00  0.00    -0.251 OA
BRANCH  22  24
ATOM     24  O   UNL     1      40.582 -22.398 -37.664  0.00  0.00    -0.465 OA
BRANCH  24  25
ATOM     25  C   UNL     1      39.888 -22.777 -36.460  0.00  0.00    +0.092 C 
BRANCH  25  26
ATOM     26  C   UNL     1      40.422 -21.982 -35.272  0.00  0.00    -0.019 C 
BRANCH  26  27
ATOM     27  C   UNL     1      39.277 -21.398 -34.445  0.00  0.00    -0.050 C 
BRANCH  27  28
ATOM     28  C   UNL     1      38.524 -20.271 -35.154  0.00  0.00    -0.052 C 
BRANCH  28  29
ATOM     29  C   UNL     1      39.450 -19.175 -35.692  0.00  0.00    -0.040 C 
BRANCH  29  30
ATOM     30  C   UNL     1      38.753 -17.807 -35.679  0.00  0.00    -0.001 C 
BRANCH  30  31
ATOM     31  N   UNL     1      39.286 -16.907 -34.647  0.00  0.00    -0.298 N 
ATOM     32  C   UNL     1      40.664 -17.270 -34.243  0.00  0.00    +0.022 C 
ATOM     33  C   UNL     1      41.000 -16.786 -32.823  0.00  0.00    +0.060 C 
ATOM     34  O   UNL     1      40.178 -17.405 -31.824  0.00  0.00    -0.377 OA
ATOM     35  C   UNL     1      38.867 -17.737 -32.302  0.00  0.00    +0.060 C 
ATOM     36  C   UNL     1      38.400 -16.844 -33.463  0.00  0.00    +0.022 C 
ATOM     37  H   UNL     1      39.322 -15.979 -35.070  0.00  0.00    +0.000 HD
ENDBRANCH  30  31
ENDBRANCH  29  30
ENDBRANCH  28  29
ENDBRANCH  27  28
ENDBRANCH  26  27
ENDBRANCH  25  26
ENDBRANCH  24  25
ENDBRANCH  22  24
ENDBRANCH  21  22
ENDBRANCH   2  21
TORSDOF 15
ENDMDL
MODEL 19
REMARK VINA RESULT:    -4.741      2.992      7.994
REMARK INTER + INTRA:         -12.218
REMARK INTER:                 -10.154
REMARK INTRA:                  -2.064
REMARK UNBOUND:                -3.458
REMARK  Name = cpd291.pdb
REMARK  19 active torsions:
REMARK  status: ('A' for Active; 'I' for Inactive)
REMARK    1  A    between atoms: C_1  and  C_2
REMARK    2  A    between atoms: C_2  and  C_3
REMARK    3  A    between atoms: C_2  and  C_20
REMARK    4  A    between atoms: C_3  and  C_4
REMARK    5  A    between atoms: C_4  and  C_5
REMARK    6  A    between atoms: C_6  and  C_7
REMARK    7  A    between atoms: C_7  and  O_8
REMARK    8  A    between atoms: C_12  and  C_13
REMARK    9  A    between atoms: C_12  and  C_14
REMARK   10  A    between atoms: C_18  and  C_19
REMARK   11  A    between atoms: C_20  and  C_21
REMARK   12  A    between atoms: C_21  and  O_23
REMARK   13  A    between atoms: O_23  and  C_24
REMARK   14  A    between atoms: C_24  and  C_25
REMARK   15  A    between atoms: C_25  and  C_26
REMARK   16  A    between atoms: C_26  and  C_27
REMARK   17  A    between atoms: C_27  and  C_28
REMARK   18  A    between atoms: C_28  and  C_29
REMARK   19  A    between atoms: C_29  and  N_30
REMARK                            x       y       z     vdW  Elec       q    Type
REMARK                         _______ _______ _______ _____ _____    ______ ____
ROOT
ATOM      1  C   UNL     1      43.171 -16.495 -37.766  0.00  0.00    -0.062 C 
ATOM      2  C   UNL     1      42.783 -17.835 -38.394  0.00  0.00    -0.034 C 
ENDROOT
BRANCH   2   3
ATOM      3  C   UNL     1      42.890 -19.000 -37.385  0.00  0.00    -0.049 C 
BRANCH   3   4
ATOM      4  C   UNL     1      41.709 -19.166 -36.411  0.00  0.00    -0.046 C 
BRANCH   4   5
ATOM      5  C   UNL     1      41.958 -19.943 -35.082  0.00  0.00    -0.012 C 
ATOM      6  C   UNL     1      42.408 -18.986 -33.963  0.00  0.00    -0.045 C 
ATOM      7  C   UNL     1      41.541 -18.574 -33.013  0.00  0.00    -0.082 C 
ATOM      8  C   UNL     1      40.104 -19.006 -32.897  0.00  0.00    -0.031 C 
ATOM      9  C   UNL     1      39.596 -19.831 -34.094  0.00  0.00    -0.027 C 
ATOM     10  C   UNL     1      38.141 -20.445 -33.958  0.00  0.00    -0.031 C 
ATOM     11  C   UNL     1      37.244 -19.829 -35.066  0.00  0.00    -0.060 C 
ATOM     12  C   UNL     1      37.457 -20.112 -32.613  0.00  0.00    -0.060 C 
ATOM     13  C   UNL     1      38.107 -21.982 -34.124  0.00  0.00    -0.048 C 
ATOM     14  C   UNL     1      38.929 -22.547 -35.281  0.00  0.00    -0.052 C 
ATOM     15  C   UNL     1      40.104 -21.677 -35.722  0.00  0.00    -0.047 C 
ATOM     16  C   UNL     1      40.707 -20.812 -34.593  0.00  0.00    -0.022 C 
ATOM     17  C   UNL     1      41.240 -21.771 -33.482  0.00  0.00    -0.059 C 
BRANCH   6  18
ATOM     18  C   UNL     1      43.889 -18.671 -33.906  0.00  0.00    +0.066 C 
BRANCH  18  19
ATOM     19  O   UNL     1      44.459 -18.977 -32.641  0.00  0.00    -0.391 OA
ATOM     20  H   UNL     1      45.162 -18.340 -32.441  0.00  0.00    +0.000 HD
ENDBRANCH  18  19
ENDBRANCH   6  18
ENDBRANCH   4   5
ENDBRANCH   3   4
ENDBRANCH   2   3
BRANCH   2  21
ATOM     21  C   UNL     1      43.570 -18.118 -39.691  0.00  0.00    +0.048 C 
BRANCH  21  22
ATOM     22  C   UNL     1      43.938 -16.890 -40.497  0.00  0.00    +0.307 C 
ATOM     23  O   UNL     1      43.065 -16.190 -41.007  0.00  0.00    -0.251 OA
BRANCH  22  24
ATOM     24  O   UNL     1      45.241 -16.577 -40.670  0.00  0.00    -0.465 OA
BRANCH  24  25
ATOM     25  C   UNL     1      46.095 -15.962 -39.688  0.00  0.00    +0.092 C 
BRANCH  25  26
ATOM     26  C   UNL     1      47.071 -16.989 -39.122  0.00  0.00    -0.019 C 
BRANCH  26  27
ATOM     27  C   UNL     1      46.678 -17.393 -37.701  0.00  0.00    -0.050 C 
BRANCH  27  28
ATOM     28  C   UNL     1      46.475 -18.899 -37.527  0.00  0.00    -0.052 C 
BRANCH  28  29
ATOM     29  C   UNL     1      47.097 -19.723 -38.659  0.00  0.00    -0.040 C 
BRANCH  29  30
ATOM     30  C   UNL     1      46.094 -20.744 -39.215  0.00  0.00    -0.001 C 
BRANCH  30  31
ATOM     31  N   UNL     1      46.151 -20.859 -40.679  0.00  0.00    -0.298 N 
ATOM     32  C   UNL     1      44.967 -21.556 -41.234  0.00  0.00    +0.022 C 
ATOM     33  C   UNL     1      45.264 -22.213 -42.590  0.00  0.00    +0.060 C 
ATOM     34  O   UNL     1      46.253 -23.248 -42.495  0.00  0.00    -0.377 OA
ATOM     35  C   UNL     1      47.214 -23.011 -41.457  0.00  0.00    +0.060 C 
ATOM     36  C   UNL     1      47.397 -21.520 -41.128  0.00  0.00    +0.022 C 
ATOM     37  H   UNL     1      46.146 -19.905 -41.040  0.00  0.00    +0.000 HD
ENDBRANCH  30  31
ENDBRANCH  29  30
ENDBRANCH  28  29
ENDBRANCH  27  28
ENDBRANCH  26  27
ENDBRANCH  25  26
ENDBRANCH  24  25
ENDBRANCH  22  24
ENDBRANCH  21  22
ENDBRANCH   2  21
TORSDOF 15
ENDMDL
MODEL 20
REMARK VINA RESULT:    -4.576      2.753      7.705
REMARK INTER + INTRA:         -11.913
REMARK INTER:                  -9.369
REMARK INTRA:                  -2.544
REMARK UNBOUND:                -3.458
REMARK  Name = cpd291.pdb
REMARK  19 active torsions:
REMARK  status: ('A' for Active; 'I' for Inactive)
REMARK    1  A    between atoms: C_1  and  C_2
REMARK    2  A    between atoms: C_2  and  C_3
REMARK    3  A    between atoms: C_2  and  C_20
REMARK    4  A    between atoms: C_3  and  C_4
REMARK    5  A    between atoms: C_4  and  C_5
REMARK    6  A    between atoms: C_6  and  C_7
REMARK    7  A    between atoms: C_7  and  O_8
REMARK    8  A    between atoms: C_12  and  C_13
REMARK    9  A    between atoms: C_12  and  C_14
REMARK   10  A    between atoms: C_18  and  C_19
REMARK   11  A    between atoms: C_20  and  C_21
REMARK   12  A    between atoms: C_21  and  O_23
REMARK   13  A    between atoms: O_23  and  C_24
REMARK   14  A    between atoms: C_24  and  C_25
REMARK   15  A    between atoms: C_25  and  C_26
REMARK   16  A    between atoms: C_26  and  C_27
REMARK   17  A    between atoms: C_27  and  C_28
REMARK   18  A    between atoms: C_28  and  C_29
REMARK   19  A    between atoms: C_29  and  N_30
REMARK                            x       y       z     vdW  Elec       q    Type
REMARK                         _______ _______ _______ _____ _____    ______ ____
ROOT
ATOM      1  C   UNL     1      40.559 -19.462 -38.120  0.00  0.00    -0.062 C 
ATOM      2  C   UNL     1      41.552 -18.506 -37.457  0.00  0.00    -0.034 C 
ENDROOT
BRANCH   2   3
ATOM      3  C   UNL     1      42.671 -19.262 -36.707  0.00  0.00    -0.049 C 
BRANCH   3   4
ATOM      4  C   UNL     1      42.312 -20.668 -36.190  0.00  0.00    -0.046 C 
BRANCH   4   5
ATOM      5  C   UNL     1      42.340 -20.913 -34.651  0.00  0.00    -0.012 C 
ATOM      6  C   UNL     1      42.947 -19.704 -33.915  0.00  0.00    -0.045 C 
ATOM      7  C   UNL     1      42.156 -18.808 -33.285  0.00  0.00    -0.082 C 
ATOM      8  C   UNL     1      40.656 -18.887 -33.184  0.00  0.00    -0.031 C 
ATOM      9  C   UNL     1      40.025 -19.996 -34.047  0.00  0.00    -0.027 C 
ATOM     10  C   UNL     1      38.469 -20.229 -33.863  0.00  0.00    -0.031 C 
ATOM     11  C   UNL     1      37.764 -19.927 -35.213  0.00  0.00    -0.060 C 
ATOM     12  C   UNL     1      37.825 -19.289 -32.819  0.00  0.00    -0.060 C 
ATOM     13  C   UNL     1      38.110 -21.679 -33.459  0.00  0.00    -0.048 C 
ATOM     14  C   UNL     1      38.831 -22.784 -34.229  0.00  0.00    -0.052 C 
ATOM     15  C   UNL     1      40.181 -22.382 -34.820  0.00  0.00    -0.047 C 
ATOM     16  C   UNL     1      40.916 -21.281 -34.023  0.00  0.00    -0.022 C 
ATOM     17  C   UNL     1      41.191 -21.826 -32.587  0.00  0.00    -0.059 C 
BRANCH   6  18
ATOM     18  C   UNL     1      44.457 -19.672 -33.809  0.00  0.00    +0.066 C 
BRANCH  18  19
ATOM     19  O   UNL     1      45.023 -20.973 -33.733  0.00  0.00    -0.391 OA
ATOM     20  H   UNL     1      44.795 -21.375 -32.880  0.00  0.00    +0.000 HD
ENDBRANCH  18  19
ENDBRANCH   6  18
ENDBRANCH   4   5
ENDBRANCH   3   4
ENDBRANCH   2   3
BRANCH   2  21
ATOM     21  C   UNL     1      40.847 -17.471 -36.555  0.00  0.00    +0.048 C 
BRANCH  21  22
ATOM     22  C   UNL     1      41.655 -16.226 -36.258  0.00  0.00    +0.307 C 
ATOM     23  O   UNL     1      41.387 -15.521 -35.287  0.00  0.00    -0.251 OA
BRANCH  22  24
ATOM     24  O   UNL     1      42.666 -15.880 -37.084  0.00  0.00    -0.465 OA
BRANCH  24  25
ATOM     25  C   UNL     1      42.520 -15.300 -38.394  0.00  0.00    +0.092 C 
BRANCH  25  26
ATOM     26  C   UNL     1      43.892 -14.987 -38.987  0.00  0.00    -0.019 C 
BRANCH  26  27
ATOM     27  C   UNL     1      44.678 -16.270 -39.256  0.00  0.00    -0.050 C 
BRANCH  27  28
ATOM     28  C   UNL     1      44.345 -16.920 -40.600  0.00  0.00    -0.052 C 
BRANCH  28  29
ATOM     29  C   UNL     1      45.285 -18.076 -40.958  0.00  0.00    -0.040 C 
BRANCH  29  30
ATOM     30  C   UNL     1      45.816 -18.767 -39.695  0.00  0.00    -0.001 C 
BRANCH  30  31
ATOM     31  N   UNL     1      46.818 -19.802 -39.991  0.00  0.00    -0.298 N 
ATOM     32  C   UNL     1      47.044 -19.965 -41.445  0.00  0.00    +0.022 C 
ATOM     33  C   UNL     1      47.569 -21.365 -41.798  0.00  0.00    +0.060 C 
ATOM     34  O   UNL     1      46.628 -22.401 -41.482  0.00  0.00    -0.377 OA
ATOM     35  C   UNL     1      45.801 -22.082 -40.354  0.00  0.00    +0.060 C 
ATOM     36  C   UNL     1      46.463 -21.100 -39.374  0.00  0.00    +0.022 C 
ATOM     37  H   UNL     1      47.692 -19.478 -39.576  0.00  0.00    +0.000 HD
ENDBRANCH  30  31
ENDBRANCH  29  30
ENDBRANCH  28  29
ENDBRANCH  27  28
ENDBRANCH  26  27
ENDBRANCH  25  26
ENDBRANCH  24  25
ENDBRANCH  22  24
ENDBRANCH  21  22
ENDBRANCH   2  21
TORSDOF 15
ENDMDL
