REMARK  Name = cpd266.pdb
REMARK  6 active torsions:
REMARK  status: ('A' for Active; 'I' for Inactive)
REMARK    1  A    between atoms: C_1  and  N_2
REMARK    2  A    between atoms: C_6  and  O_7
REMARK    3  A    between atoms: O_7  and  C_8
REMARK    4  A    between atoms: N_10  and  C_11
REMARK    5  A    between atoms: C_19  and  C_20
REMARK    6  A    between atoms: N_23  and  C_24
REMARK                            x       y       z     vdW  Elec       q    Type
REMARK                         _______ _______ _______ _____ _____    ______ ____
ROOT
ATOM      1  C   UNL A   1      -0.370  -1.360  -2.191  0.00  0.00    -0.001 C 
ATOM      2  N   UNL A   1       0.249  -0.248  -1.494  0.00  0.00    -0.341 N 
ATOM      3  C   UNL A   1       1.665  -0.125  -1.511  0.00  0.00    +0.032 A 
ATOM      4  C   UNL A   1       2.597  -0.763  -2.307  0.00  0.00    -0.037 A 
ATOM      5  C   UNL A   1       3.950  -0.457  -2.118  0.00  0.00    -0.017 A 
ATOM      6  C   UNL A   1       4.333   0.482  -1.144  0.00  0.00    +0.134 A 
ATOM      7  C   UNL A   1       3.402   1.168  -0.367  0.00  0.00    -0.014 A 
ATOM      8  C   UNL A   1       2.076   0.843  -0.568  0.00  0.00    -0.017 A 
ATOM      9  C   UNL A   1       0.815   1.411   0.000  0.00  0.00    +0.002 C 
ATOM     10  C   UNL A   1       0.371   2.575  -0.930  0.00  0.00    -0.055 C 
ATOM     11  C   UNL A   1       0.667   1.789   1.447  0.00  0.00    -0.054 C 
ATOM     12  C   UNL A   1      -0.843   1.674   1.610  0.00  0.00    -0.048 C 
ATOM     13  N   UNL A   1      -1.332   0.614   0.604  0.00  0.00    +0.433 N 
ATOM     14  C   UNL A   1      -2.121  -0.420   1.378  0.00  0.00    -0.060 C 
ATOM     15  O   UNL A   1      -2.185   1.157  -0.321  0.00  0.00    -0.289 OA
ATOM     16  C   UNL A   1       0.000   0.000   0.000  0.00  0.00    +0.039 C 
ENDROOT
BRANCH   6  17
ATOM     17  O   UNL A   1       5.686   0.814  -1.020  0.00  0.00    -0.411 OA
BRANCH  17  18
ATOM     18  C   UNL A   1       6.394  -0.015  -0.156  0.00  0.00    +0.410 C 
ATOM     19  O   UNL A   1       5.908  -0.941   0.478  0.00  0.00    -0.226 OA
ATOM     20  N   UNL A   1       7.700   0.404  -0.152  0.00  0.00    -0.251 N 
ATOM     21  H   UNL A   1       7.900   1.186  -0.716  0.00  0.00    +0.000 HD
BRANCH  20  22
ATOM     22  C   UNL A   1       8.790  -0.135   0.551  0.00  0.00    +0.036 A 
ATOM     23  C   UNL A   1      10.031   0.495   0.388  0.00  0.00    -0.040 A 
ATOM     24  C   UNL A   1      11.165   0.018   1.050  0.00  0.00    -0.060 A 
ATOM     25  C   UNL A   1      11.070  -1.096   1.879  0.00  0.00    -0.062 A 
ATOM     26  C   UNL A   1       9.840  -1.729   2.047  0.00  0.00    -0.060 A 
ATOM     27  C   UNL A   1       8.704  -1.250   1.386  0.00  0.00    -0.040 A 
ENDBRANCH  20  22
ENDBRANCH  17  18
ENDBRANCH   6  17
TORSDOF 3
