@<TRIPOS>MOLECULE
*****
 26 29 0 0 0
SMALL
GASTEIGER

@<TRIPOS>ATOM
      1 C           0.8179   -1.4704    0.0000 C.3     1  UNL1        0.1174
      2 N           0.8148   -0.4704    0.0000 N.pl3   1  UNL1       -0.2662
      3 C           1.6361    0.0105    0.0000 C.ar    1  UNL1        0.0484
      4 C           2.4448   -0.4489    0.0000 C.ar    1  UNL1        0.0175
      5 C           3.2471    0.0218    0.0000 C.ar    1  UNL1        0.0389
      6 C           3.2405    0.9519    0.0000 C.ar    1  UNL1        0.1499
      7 O           4.1181    1.4668    0.0000 O.3     1  UNL1       -0.4089
      8 C           5.0028    0.9643    0.0000 C.2     1  UNL1        0.4300
      9 O           5.0100   -0.0531    0.0000 O.2     1  UNL1       -0.2238
     10 N           5.8803    1.4792    0.0000 N.am    1  UNL1       -0.1421
     11 C           6.7651    0.9767    0.0000 C.ar    1  UNL1        0.0767
     12 C           7.6426    1.4916    0.0000 C.ar    1  UNL1        0.0167
     13 C           8.5273    0.9891    0.0000 C.ar    1  UNL1        0.0013
     14 C           8.5345   -0.0283    0.0000 C.ar    1  UNL1        0.0001
     15 C           7.6569   -0.5432    0.0000 C.ar    1  UNL1        0.0013
     16 C           6.7722   -0.0407    0.0000 C.ar    1  UNL1        0.0167
     17 C           2.4318    1.4113    0.0000 C.ar    1  UNL1        0.0349
     18 C           1.6295    0.9406    0.0000 C.ar    1  UNL1        0.0010
     19 C           0.8147    1.4111    0.0000 C.3     1  UNL1        0.0894
     20 C           1.3147    2.2771    0.0000 C.3     1  UNL1        0.0123
     21 C          -0.0004    1.8816    0.0000 C.3     1  UNL1        0.0723
     22 C          -0.8216    1.4007    0.0000 C.3     1  UNL1        0.1067
     23 N          -0.8151    0.4706    0.0000 N.3     1  UNL1        0.2728
     24 C          -1.6793   -0.0325    0.0000 C.3     1  UNL1        0.1677
     25 O          -1.6811    0.9706    0.0000 O.co2   1  UNL1       -0.7702
     26 C           0.0000   -0.0000    0.0000 C.3     1  UNL1        0.1391
@<TRIPOS>UNITY_ATOM_ATTR
23 1
charge 1
25 1
charge -1
@<TRIPOS>BOND
     1     1     2    1
     2     2     3    1
     3     3     4   ar
     4     4     5   ar
     5     5     6   ar
     6     6     7    1
     7     7     8    1
     8     8     9    2
     9     8    10   am
    10    10    11    1
    11    11    12   ar
    12    12    13   ar
    13    13    14   ar
    14    14    15   ar
    15    15    16   ar
    16    11    16   ar
    17     6    17   ar
    18    17    18   ar
    19     3    18   ar
    20    18    19    1
    21    19    20    1
    22    19    21    1
    23    21    22    1
    24    22    23    1
    25    23    24    1
    26    23    25    1
    27    23    26    1
    28     2    26    1
    29    19    26    1
