MODEL 1
REMARK VINA RESULT:    -7.832      0.000      0.000
REMARK INTER + INTRA:          -9.066
REMARK INTER:                  -9.206
REMARK INTRA:                   0.140
REMARK UNBOUND:                 0.140
REMARK  Name = cpd266.pdb
REMARK  6 active torsions:
REMARK  status: ('A' for Active; 'I' for Inactive)
REMARK    1  A    between atoms: C_1  and  N_2
REMARK    2  A    between atoms: C_6  and  O_7
REMARK    3  A    between atoms: O_7  and  C_8
REMARK    4  A    between atoms: N_10  and  C_11
REMARK    5  A    between atoms: C_19  and  C_20
REMARK    6  A    between atoms: N_23  and  C_24
REMARK                            x       y       z     vdW  Elec       q    Type
REMARK                         _______ _______ _______ _____ _____    ______ ____
ROOT
ATOM      1  C   UNL A   1      40.373 -38.033 -28.537  0.00  0.00    -0.001 C 
ATOM      2  N   UNL A   1      40.019 -37.103 -29.594  0.00  0.00    -0.341 N 
ATOM      3  C   UNL A   1      38.646 -36.886 -29.891  0.00  0.00    +0.032 A 
ATOM      4  C   UNL A   1      37.521 -37.231 -29.167  0.00  0.00    -0.037 A 
ATOM      5  C   UNL A   1      36.267 -36.896 -29.691  0.00  0.00    -0.017 A 
ATOM      6  C   UNL A   1      36.172 -36.221 -30.921  0.00  0.00    +0.134 A 
ATOM      7  C   UNL A   1      37.299 -35.825 -31.640  0.00  0.00    -0.014 A 
ATOM      8  C   UNL A   1      38.522 -36.173 -31.104  0.00  0.00    -0.017 A 
ATOM      9  C   UNL A   1      39.920 -35.859 -31.529  0.00  0.00    +0.002 C 
ATOM     10  C   UNL A   1      40.324 -34.524 -30.842  0.00  0.00    -0.055 C 
ATOM     11  C   UNL A   1      40.364 -35.883 -32.965  0.00  0.00    -0.054 C 
ATOM     12  C   UNL A   1      41.856 -36.136 -32.790  0.00  0.00    -0.048 C 
ATOM     13  N   UNL A   1      42.034 -36.927 -31.479  0.00  0.00    +0.433 N 
ATOM     14  C   UNL A   1      42.823 -38.177 -31.803  0.00  0.00    -0.060 C 
ATOM     15  O   UNL A   1      42.767 -36.218 -30.562  0.00  0.00    -0.289 OA
ATOM     16  C   UNL A   1      40.554 -37.272 -31.022  0.00  0.00    +0.039 C 
ENDROOT
BRANCH   6  17
ATOM     17  O   UNL A   1      34.910 -35.844 -31.391  0.00  0.00    -0.411 OA
BRANCH  17  18
ATOM     18  C   UNL A   1      34.222 -34.988 -30.536  0.00  0.00    +0.410 C 
ATOM     19  O   UNL A   1      34.209 -35.081 -29.317  0.00  0.00    -0.226 OA
ATOM     20  N   UNL A   1      33.579 -34.055 -31.309  0.00  0.00    -0.251 N 
ATOM     21  H   UNL A   1      33.692 -34.154 -32.282  0.00  0.00    +0.000 HD
BRANCH  20  22
ATOM     22  C   UNL A   1      32.778 -32.978 -30.895  0.00  0.00    +0.036 A 
ATOM     23  C   UNL A   1      31.417 -33.236 -30.685  0.00  0.00    -0.040 A 
ATOM     24  C   UNL A   1      30.553 -32.217 -30.276  0.00  0.00    -0.060 A 
ATOM     25  C   UNL A   1      31.041 -30.929 -30.077  0.00  0.00    -0.062 A 
ATOM     26  C   UNL A   1      32.393 -30.663 -30.284  0.00  0.00    -0.060 A 
ATOM     27  C   UNL A   1      33.259 -31.683 -30.691  0.00  0.00    -0.040 A 
ENDBRANCH  20  22
ENDBRANCH  17  18
ENDBRANCH   6  17
TORSDOF 3
ENDMDL
MODEL 2
REMARK VINA RESULT:    -7.801     15.915     17.328
REMARK INTER + INTRA:          -9.029
REMARK INTER:                  -8.712
REMARK INTRA:                  -0.317
REMARK UNBOUND:                 0.140
REMARK  Name = cpd266.pdb
REMARK  6 active torsions:
REMARK  status: ('A' for Active; 'I' for Inactive)
REMARK    1  A    between atoms: C_1  and  N_2
REMARK    2  A    between atoms: C_6  and  O_7
REMARK    3  A    between atoms: O_7  and  C_8
REMARK    4  A    between atoms: N_10  and  C_11
REMARK    5  A    between atoms: C_19  and  C_20
REMARK    6  A    between atoms: N_23  and  C_24
REMARK                            x       y       z     vdW  Elec       q    Type
REMARK                         _______ _______ _______ _____ _____    ______ ____
ROOT
ATOM      1  C   UNL A   1      47.183 -19.903 -38.326  0.00  0.00    -0.001 C 
ATOM      2  N   UNL A   1      46.120 -20.153 -39.282  0.00  0.00    -0.341 N 
ATOM      3  C   UNL A   1      44.784 -20.278 -38.811  0.00  0.00    +0.032 A 
ATOM      4  C   UNL A   1      44.248 -19.951 -37.581  0.00  0.00    -0.037 A 
ATOM      5  C   UNL A   1      42.882 -20.177 -37.372  0.00  0.00    -0.017 A 
ATOM      6  C   UNL A   1      42.090 -20.717 -38.401  0.00  0.00    +0.134 A 
ATOM      7  C   UNL A   1      42.607 -21.007 -39.662  0.00  0.00    -0.014 A 
ATOM      8  C   UNL A   1      43.956 -20.782 -39.839  0.00  0.00    -0.017 A 
ATOM      9  C   UNL A   1      44.833 -20.888 -41.045  0.00  0.00    +0.002 C 
ATOM     10  C   UNL A   1      44.804 -19.509 -41.763  0.00  0.00    -0.055 C 
ATOM     11  C   UNL A   1      44.731 -22.014 -42.035  0.00  0.00    -0.054 C 
ATOM     12  C   UNL A   1      46.140 -22.005 -42.612  0.00  0.00    -0.048 C 
ATOM     13  N   UNL A   1      47.080 -21.472 -41.514  0.00  0.00    +0.433 N 
ATOM     14  C   UNL A   1      48.184 -22.491 -41.324  0.00  0.00    -0.060 C 
ATOM     15  O   UNL A   1      47.680 -20.300 -41.893  0.00  0.00    -0.289 OA
ATOM     16  C   UNL A   1      46.160 -21.362 -40.226  0.00  0.00    +0.039 C 
ENDROOT
BRANCH   6  17
ATOM     17  O   UNL A   1      40.717 -20.873 -38.186  0.00  0.00    -0.411 OA
BRANCH  17  18
ATOM     18  C   UNL A   1      40.380 -22.043 -37.512  0.00  0.00    +0.410 C 
ATOM     19  O   UNL A   1      40.348 -23.156 -38.019  0.00  0.00    -0.226 OA
ATOM     20  N   UNL A   1      40.096 -21.709 -36.213  0.00  0.00    -0.251 N 
ATOM     21  H   UNL A   1      40.158 -20.751 -35.994  0.00  0.00    +0.000 HD
BRANCH  20  22
ATOM     22  C   UNL A   1      39.727 -22.554 -35.153  0.00  0.00    +0.036 A 
ATOM     23  C   UNL A   1      40.534 -22.533 -34.008  0.00  0.00    -0.040 A 
ATOM     24  C   UNL A   1      40.237 -23.346 -32.911  0.00  0.00    -0.060 A 
ATOM     25  C   UNL A   1      39.131 -24.190 -32.950  0.00  0.00    -0.062 A 
ATOM     26  C   UNL A   1      38.323 -24.218 -34.085  0.00  0.00    -0.060 A 
ATOM     27  C   UNL A   1      38.619 -23.402 -35.182  0.00  0.00    -0.040 A 
ENDBRANCH  20  22
ENDBRANCH  17  18
ENDBRANCH   6  17
TORSDOF 3
ENDMDL
MODEL 3
REMARK VINA RESULT:    -7.742      3.001     10.038
REMARK INTER + INTRA:          -8.960
REMARK INTER:                  -8.665
REMARK INTRA:                  -0.295
REMARK UNBOUND:                 0.140
REMARK  Name = cpd266.pdb
REMARK  6 active torsions:
REMARK  status: ('A' for Active; 'I' for Inactive)
REMARK    1  A    between atoms: C_1  and  N_2
REMARK    2  A    between atoms: C_6  and  O_7
REMARK    3  A    between atoms: O_7  and  C_8
REMARK    4  A    between atoms: N_10  and  C_11
REMARK    5  A    between atoms: C_19  and  C_20
REMARK    6  A    between atoms: N_23  and  C_24
REMARK                            x       y       z     vdW  Elec       q    Type
REMARK                         _______ _______ _______ _____ _____    ______ ____
ROOT
ATOM      1  C   UNL A   1      27.882 -33.931 -30.902  0.00  0.00    -0.001 C 
ATOM      2  N   UNL A   1      28.818 -32.826 -30.813  0.00  0.00    -0.341 N 
ATOM      3  C   UNL A   1      30.163 -33.026 -31.229  0.00  0.00    +0.032 A 
ATOM      4  C   UNL A   1      30.716 -34.058 -31.963  0.00  0.00    -0.037 A 
ATOM      5  C   UNL A   1      32.088 -34.013 -32.240  0.00  0.00    -0.017 A 
ATOM      6  C   UNL A   1      32.866 -32.936 -31.781  0.00  0.00    +0.134 A 
ATOM      7  C   UNL A   1      32.314 -31.865 -31.081  0.00  0.00    -0.014 A 
ATOM      8  C   UNL A   1      30.962 -31.937 -30.815  0.00  0.00    -0.017 A 
ATOM      9  C   UNL A   1      30.020 -30.966 -30.180  0.00  0.00    +0.002 C 
ATOM     10  C   UNL A   1      29.455 -30.061 -31.310  0.00  0.00    -0.055 C 
ATOM     11  C   UNL A   1      30.376 -30.156 -28.965  0.00  0.00    -0.054 C 
ATOM     12  C   UNL A   1      28.989 -29.885 -28.397  0.00  0.00    -0.048 C 
ATOM     13  N   UNL A   1      28.085 -31.061 -28.816  0.00  0.00    +0.433 N 
ATOM     14  C   UNL A   1      27.455 -31.622 -27.560  0.00  0.00    -0.060 C 
ATOM     15  O   UNL A   1      27.061 -30.642 -29.624  0.00  0.00    -0.289 OA
ATOM     16  C   UNL A   1      29.078 -32.101 -29.486  0.00  0.00    +0.039 C 
ENDROOT
BRANCH   6  17
ATOM     17  O   UNL A   1      34.221 -32.886 -32.125  0.00  0.00    -0.411 OA
BRANCH  17  18
ATOM     18  C   UNL A   1      35.074 -33.353 -31.131  0.00  0.00    +0.410 C 
ATOM     19  O   UNL A   1      35.219 -32.832 -30.034  0.00  0.00    -0.226 OA
ATOM     20  N   UNL A   1      35.705 -34.471 -31.613  0.00  0.00    -0.251 N 
ATOM     21  H   UNL A   1      35.473 -34.730 -32.534  0.00  0.00    +0.000 HD
BRANCH  20  22
ATOM     22  C   UNL A   1      36.639 -35.297 -30.966  0.00  0.00    +0.036 A 
ATOM     23  C   UNL A   1      37.924 -35.365 -31.519  0.00  0.00    -0.040 A 
ATOM     24  C   UNL A   1      38.910 -36.166 -30.937  0.00  0.00    -0.060 A 
ATOM     25  C   UNL A   1      38.619 -36.910 -29.797  0.00  0.00    -0.062 A 
ATOM     26  C   UNL A   1      37.343 -36.848 -29.240  0.00  0.00    -0.060 A 
ATOM     27  C   UNL A   1      36.357 -36.044 -29.821  0.00  0.00    -0.040 A 
ENDBRANCH  20  22
ENDBRANCH  17  18
ENDBRANCH   6  17
TORSDOF 3
ENDMDL
MODEL 4
REMARK VINA RESULT:    -7.736     16.239     17.713
REMARK INTER + INTRA:          -8.954
REMARK INTER:                  -8.427
REMARK INTRA:                  -0.527
REMARK UNBOUND:                 0.140
REMARK  Name = cpd266.pdb
REMARK  6 active torsions:
REMARK  status: ('A' for Active; 'I' for Inactive)
REMARK    1  A    between atoms: C_1  and  N_2
REMARK    2  A    between atoms: C_6  and  O_7
REMARK    3  A    between atoms: O_7  and  C_8
REMARK    4  A    between atoms: N_10  and  C_11
REMARK    5  A    between atoms: C_19  and  C_20
REMARK    6  A    between atoms: N_23  and  C_24
REMARK                            x       y       z     vdW  Elec       q    Type
REMARK                         _______ _______ _______ _____ _____    ______ ____
ROOT
ATOM      1  C   UNL A   1      44.182 -19.821 -42.828  0.00  0.00    -0.001 C 
ATOM      2  N   UNL A   1      44.349 -20.229 -41.446  0.00  0.00    -0.341 N 
ATOM      3  C   UNL A   1      43.305 -20.956 -40.810  0.00  0.00    +0.032 A 
ATOM      4  C   UNL A   1      42.206 -21.587 -41.361  0.00  0.00    -0.037 A 
ATOM      5  C   UNL A   1      41.318 -22.242 -40.500  0.00  0.00    -0.017 A 
ATOM      6  C   UNL A   1      41.556 -22.254 -39.114  0.00  0.00    +0.134 A 
ATOM      7  C   UNL A   1      42.684 -21.663 -38.549  0.00  0.00    -0.014 A 
ATOM      8  C   UNL A   1      43.540 -21.018 -39.419  0.00  0.00    -0.017 A 
ATOM      9  C   UNL A   1      44.864 -20.358 -39.205  0.00  0.00    +0.002 C 
ATOM     10  C   UNL A   1      45.960 -21.446 -39.390  0.00  0.00    -0.055 C 
ATOM     11  C   UNL A   1      45.162 -19.488 -38.016  0.00  0.00    -0.054 C 
ATOM     12  C   UNL A   1      46.279 -18.620 -38.581  0.00  0.00    -0.048 C 
ATOM     13  N   UNL A   1      46.052 -18.516 -40.102  0.00  0.00    +0.433 N 
ATOM     14  C   UNL A   1      46.016 -17.045 -40.458  0.00  0.00    -0.060 C 
ATOM     15  O   UNL A   1      47.091 -19.071 -40.803  0.00  0.00    -0.289 OA
ATOM     16  C   UNL A   1      44.645 -19.208 -40.339  0.00  0.00    +0.039 C 
ENDROOT
BRANCH   6  17
ATOM     17  O   UNL A   1      40.685 -22.968 -38.285  0.00  0.00    -0.411 OA
BRANCH  17  18
ATOM     18  C   UNL A   1      39.918 -22.166 -37.447  0.00  0.00    +0.410 C 
ATOM     19  O   UNL A   1      39.212 -21.240 -37.820  0.00  0.00    -0.226 OA
ATOM     20  N   UNL A   1      40.111 -22.602 -36.161  0.00  0.00    -0.251 N 
ATOM     21  H   UNL A   1      40.737 -23.355 -36.053  0.00  0.00    +0.000 HD
BRANCH  20  22
ATOM     22  C   UNL A   1      39.534 -22.116 -34.976  0.00  0.00    +0.036 A 
ATOM     23  C   UNL A   1      40.221 -21.100 -34.299  0.00  0.00    -0.040 A 
ATOM     24  C   UNL A   1      39.716 -20.565 -33.112  0.00  0.00    -0.060 A 
ATOM     25  C   UNL A   1      38.519 -21.043 -32.587  0.00  0.00    -0.062 A 
ATOM     26  C   UNL A   1      37.828 -22.054 -33.253  0.00  0.00    -0.060 A 
ATOM     27  C   UNL A   1      38.333 -22.588 -34.443  0.00  0.00    -0.040 A 
ENDBRANCH  20  22
ENDBRANCH  17  18
ENDBRANCH   6  17
TORSDOF 3
ENDMDL
MODEL 5
REMARK VINA RESULT:    -7.602      1.999      8.992
REMARK INTER + INTRA:          -8.796
REMARK INTER:                  -9.195
REMARK INTRA:                   0.399
REMARK UNBOUND:                 0.140
REMARK  Name = cpd266.pdb
REMARK  6 active torsions:
REMARK  status: ('A' for Active; 'I' for Inactive)
REMARK    1  A    between atoms: C_1  and  N_2
REMARK    2  A    between atoms: C_6  and  O_7
REMARK    3  A    between atoms: O_7  and  C_8
REMARK    4  A    between atoms: N_10  and  C_11
REMARK    5  A    between atoms: C_19  and  C_20
REMARK    6  A    between atoms: N_23  and  C_24
REMARK                            x       y       z     vdW  Elec       q    Type
REMARK                         _______ _______ _______ _____ _____    ______ ____
ROOT
ATOM      1  C   UNL A   1      33.134 -31.336 -30.736  0.00  0.00    -0.001 C 
ATOM      2  N   UNL A   1      33.018 -32.693 -30.236  0.00  0.00    -0.341 N 
ATOM      3  C   UNL A   1      34.122 -33.577 -30.379  0.00  0.00    +0.032 A 
ATOM      4  C   UNL A   1      35.436 -33.303 -30.705  0.00  0.00    -0.037 A 
ATOM      5  C   UNL A   1      36.337 -34.372 -30.780  0.00  0.00    -0.017 A 
ATOM      6  C   UNL A   1      35.901 -35.683 -30.521  0.00  0.00    +0.134 A 
ATOM      7  C   UNL A   1      34.591 -35.969 -30.144  0.00  0.00    -0.014 A 
ATOM      8  C   UNL A   1      33.722 -34.899 -30.084  0.00  0.00    -0.017 A 
ATOM      9  C   UNL A   1      32.296 -34.799 -29.647  0.00  0.00    +0.002 C 
ATOM     10  C   UNL A   1      32.299 -34.510 -28.119  0.00  0.00    -0.055 C 
ATOM     11  C   UNL A   1      31.257 -35.826 -30.001  0.00  0.00    -0.054 C 
ATOM     12  C   UNL A   1      29.991 -34.984 -29.905  0.00  0.00    -0.048 C 
ATOM     13  N   UNL A   1      30.383 -33.530 -30.234  0.00  0.00    +0.433 N 
ATOM     14  C   UNL A   1      29.480 -33.055 -31.351  0.00  0.00    -0.060 C 
ATOM     15  O   UNL A   1      30.168 -32.699 -29.165  0.00  0.00    -0.289 OA
ATOM     16  C   UNL A   1      31.895 -33.627 -30.706  0.00  0.00    +0.039 C 
ENDROOT
BRANCH   6  17
ATOM     17  O   UNL A   1      36.836 -36.723 -30.542  0.00  0.00    -0.411 OA
BRANCH  17  18
ATOM     18  C   UNL A   1      37.984 -36.436 -31.274  0.00  0.00    +0.410 C 
ATOM     19  O   UNL A   1      37.996 -35.877 -32.362  0.00  0.00    -0.226 OA
ATOM     20  N   UNL A   1      39.061 -36.897 -30.560  0.00  0.00    -0.251 N 
ATOM     21  H   UNL A   1      38.850 -37.341 -29.707  0.00  0.00    +0.000 HD
BRANCH  20  22
ATOM     22  C   UNL A   1      40.425 -36.818 -30.885  0.00  0.00    +0.036 A 
ATOM     23  C   UNL A   1      41.224 -37.922 -30.562  0.00  0.00    -0.040 A 
ATOM     24  C   UNL A   1      42.592 -37.920 -30.849  0.00  0.00    -0.060 A 
ATOM     25  C   UNL A   1      43.173 -36.813 -31.460  0.00  0.00    -0.062 A 
ATOM     26  C   UNL A   1      42.386 -35.711 -31.785  0.00  0.00    -0.060 A 
ATOM     27  C   UNL A   1      41.016 -35.713 -31.500  0.00  0.00    -0.040 A 
ENDBRANCH  20  22
ENDBRANCH  17  18
ENDBRANCH   6  17
TORSDOF 3
ENDMDL
MODEL 6
REMARK VINA RESULT:    -7.562     16.281     19.002
REMARK INTER + INTRA:          -8.748
REMARK INTER:                  -8.429
REMARK INTRA:                  -0.319
REMARK UNBOUND:                 0.140
REMARK  Name = cpd266.pdb
REMARK  6 active torsions:
REMARK  status: ('A' for Active; 'I' for Inactive)
REMARK    1  A    between atoms: C_1  and  N_2
REMARK    2  A    between atoms: C_6  and  O_7
REMARK    3  A    between atoms: O_7  and  C_8
REMARK    4  A    between atoms: N_10  and  C_11
REMARK    5  A    between atoms: C_19  and  C_20
REMARK    6  A    between atoms: N_23  and  C_24
REMARK                            x       y       z     vdW  Elec       q    Type
REMARK                         _______ _______ _______ _____ _____    ______ ____
ROOT
ATOM      1  C   UNL A   1      43.382 -19.920 -34.085  0.00  0.00    -0.001 C 
ATOM      2  N   UNL A   1      42.598 -20.427 -35.195  0.00  0.00    -0.341 N 
ATOM      3  C   UNL A   1      42.994 -20.107 -36.523  0.00  0.00    +0.032 A 
ATOM      4  C   UNL A   1      44.183 -19.578 -36.986  0.00  0.00    -0.037 A 
ATOM      5  C   UNL A   1      44.318 -19.357 -38.361  0.00  0.00    -0.017 A 
ATOM      6  C   UNL A   1      43.265 -19.677 -39.236  0.00  0.00    +0.134 A 
ATOM      7  C   UNL A   1      42.079 -20.256 -38.789  0.00  0.00    -0.014 A 
ATOM      8  C   UNL A   1      41.968 -20.457 -37.429  0.00  0.00    -0.017 A 
ATOM      9  C   UNL A   1      40.909 -21.115 -36.603  0.00  0.00    +0.002 C 
ATOM     10  C   UNL A   1      41.270 -22.624 -36.504  0.00  0.00    -0.055 C 
ATOM     11  C   UNL A   1      39.440 -20.926 -36.855  0.00  0.00    -0.054 C 
ATOM     12  C   UNL A   1      38.881 -21.224 -35.469  0.00  0.00    -0.048 C 
ATOM     13  N   UNL A   1      39.969 -20.843 -34.446  0.00  0.00    +0.433 N 
ATOM     14  C   UNL A   1      39.347 -19.885 -33.454  0.00  0.00    -0.060 C 
ATOM     15  O   UNL A   1      40.392 -21.936 -33.735  0.00  0.00    -0.289 OA
ATOM     16  C   UNL A   1      41.095 -20.137 -35.312  0.00  0.00    +0.039 C 
ENDROOT
BRANCH   6  17
ATOM     17  O   UNL A   1      43.451 -19.504 -40.611  0.00  0.00    -0.411 OA
BRANCH  17  18
ATOM     18  C   UNL A   1      44.725 -19.845 -41.056  0.00  0.00    +0.410 C 
ATOM     19  O   UNL A   1      45.521 -19.064 -41.558  0.00  0.00    -0.226 OA
ATOM     20  N   UNL A   1      44.900 -21.187 -40.833  0.00  0.00    -0.251 N 
ATOM     21  H   UNL A   1      44.132 -21.657 -40.434  0.00  0.00    +0.000 HD
BRANCH  20  22
ATOM     22  C   UNL A   1      46.029 -21.978 -41.098  0.00  0.00    +0.036 A 
ATOM     23  C   UNL A   1      46.085 -22.614 -42.345  0.00  0.00    -0.040 A 
ATOM     24  C   UNL A   1      47.174 -23.422 -42.685  0.00  0.00    -0.060 A 
ATOM     25  C   UNL A   1      48.215 -23.604 -41.780  0.00  0.00    -0.062 A 
ATOM     26  C   UNL A   1      48.167 -22.975 -40.537  0.00  0.00    -0.060 A 
ATOM     27  C   UNL A   1      47.079 -22.165 -40.198  0.00  0.00    -0.040 A 
ENDBRANCH  20  22
ENDBRANCH  17  18
ENDBRANCH   6  17
TORSDOF 3
ENDMDL
MODEL 7
REMARK VINA RESULT:    -7.545      2.488      9.461
REMARK INTER + INTRA:          -8.728
REMARK INTER:                  -8.801
REMARK INTRA:                   0.073
REMARK UNBOUND:                 0.140
REMARK  Name = cpd266.pdb
REMARK  6 active torsions:
REMARK  status: ('A' for Active; 'I' for Inactive)
REMARK    1  A    between atoms: C_1  and  N_2
REMARK    2  A    between atoms: C_6  and  O_7
REMARK    3  A    between atoms: O_7  and  C_8
REMARK    4  A    between atoms: N_10  and  C_11
REMARK    5  A    between atoms: C_19  and  C_20
REMARK    6  A    between atoms: N_23  and  C_24
REMARK                            x       y       z     vdW  Elec       q    Type
REMARK                         _______ _______ _______ _____ _____    ______ ____
ROOT
ATOM      1  C   UNL A   1      31.160 -30.461 -29.513  0.00  0.00    -0.001 C 
ATOM      2  N   UNL A   1      31.126 -31.770 -30.138  0.00  0.00    -0.341 N 
ATOM      3  C   UNL A   1      32.351 -32.428 -30.429  0.00  0.00    +0.032 A 
ATOM      4  C   UNL A   1      33.630 -32.147 -29.989  0.00  0.00    -0.037 A 
ATOM      5  C   UNL A   1      34.678 -32.964 -30.432  0.00  0.00    -0.017 A 
ATOM      6  C   UNL A   1      34.416 -34.041 -31.297  0.00  0.00    +0.134 A 
ATOM      7  C   UNL A   1      33.126 -34.366 -31.711  0.00  0.00    -0.014 A 
ATOM      8  C   UNL A   1      32.113 -33.541 -31.266  0.00  0.00    -0.017 A 
ATOM      9  C   UNL A   1      30.628 -33.615 -31.423  0.00  0.00    +0.002 C 
ATOM     10  C   UNL A   1      30.078 -34.452 -30.233  0.00  0.00    -0.055 C 
ATOM     11  C   UNL A   1      29.960 -34.004 -32.711  0.00  0.00    -0.054 C 
ATOM     12  C   UNL A   1      28.607 -33.326 -32.537  0.00  0.00    -0.048 C 
ATOM     13  N   UNL A   1      28.826 -32.094 -31.637  0.00  0.00    +0.433 N 
ATOM     14  C   UNL A   1      28.272 -30.891 -32.369  0.00  0.00    -0.060 C 
ATOM     15  O   UNL A   1      28.129 -32.202 -30.462  0.00  0.00    -0.289 OA
ATOM     16  C   UNL A   1      30.400 -32.003 -31.470  0.00  0.00    +0.039 C 
ENDROOT
BRANCH   6  17
ATOM     17  O   UNL A   1      35.472 -34.878 -31.674  0.00  0.00    -0.411 OA
BRANCH  17  18
ATOM     18  C   UNL A   1      35.930 -35.705 -30.653  0.00  0.00    +0.410 C 
ATOM     19  O   UNL A   1      35.236 -36.144 -29.747  0.00  0.00    -0.226 OA
ATOM     20  N   UNL A   1      37.270 -35.915 -30.855  0.00  0.00    -0.251 N 
ATOM     21  H   UNL A   1      37.662 -35.458 -31.634  0.00  0.00    +0.000 HD
BRANCH  20  22
ATOM     22  C   UNL A   1      38.157 -36.697 -30.097  0.00  0.00    +0.036 A 
ATOM     23  C   UNL A   1      39.485 -36.769 -30.540  0.00  0.00    -0.040 A 
ATOM     24  C   UNL A   1      40.428 -37.529 -29.843  0.00  0.00    -0.060 A 
ATOM     25  C   UNL A   1      40.053 -38.225 -28.698  0.00  0.00    -0.062 A 
ATOM     26  C   UNL A   1      38.735 -38.159 -28.250  0.00  0.00    -0.060 A 
ATOM     27  C   UNL A   1      37.791 -37.397 -28.946  0.00  0.00    -0.040 A 
ENDBRANCH  20  22
ENDBRANCH  17  18
ENDBRANCH   6  17
TORSDOF 3
ENDMDL
MODEL 8
REMARK VINA RESULT:    -7.437     15.951     18.826
REMARK INTER + INTRA:          -8.602
REMARK INTER:                  -8.580
REMARK INTRA:                  -0.022
REMARK UNBOUND:                 0.140
REMARK  Name = cpd266.pdb
REMARK  6 active torsions:
REMARK  status: ('A' for Active; 'I' for Inactive)
REMARK    1  A    between atoms: C_1  and  N_2
REMARK    2  A    between atoms: C_6  and  O_7
REMARK    3  A    between atoms: O_7  and  C_8
REMARK    4  A    between atoms: N_10  and  C_11
REMARK    5  A    between atoms: C_19  and  C_20
REMARK    6  A    between atoms: N_23  and  C_24
REMARK                            x       y       z     vdW  Elec       q    Type
REMARK                         _______ _______ _______ _____ _____    ______ ____
ROOT
ATOM      1  C   UNL A   1      41.632 -19.959 -32.792  0.00  0.00    -0.001 C 
ATOM      2  N   UNL A   1      41.864 -20.436 -34.142  0.00  0.00    -0.341 N 
ATOM      3  C   UNL A   1      43.180 -20.381 -34.676  0.00  0.00    +0.032 A 
ATOM      4  C   UNL A   1      44.385 -20.168 -34.035  0.00  0.00    -0.037 A 
ATOM      5  C   UNL A   1      45.554 -20.161 -34.806  0.00  0.00    -0.017 A 
ATOM      6  C   UNL A   1      45.486 -20.373 -36.194  0.00  0.00    +0.134 A 
ATOM      7  C   UNL A   1      44.284 -20.636 -36.847  0.00  0.00    -0.014 A 
ATOM      8  C   UNL A   1      43.147 -20.630 -36.066  0.00  0.00    -0.017 A 
ATOM      9  C   UNL A   1      41.720 -20.946 -36.383  0.00  0.00    +0.002 C 
ATOM     10  C   UNL A   1      41.522 -22.471 -36.153  0.00  0.00    -0.055 C 
ATOM     11  C   UNL A   1      41.045 -20.499 -37.649  0.00  0.00    -0.054 C 
ATOM     12  C   UNL A   1      39.590 -20.493 -37.199  0.00  0.00    -0.048 C 
ATOM     13  N   UNL A   1      39.581 -20.210 -35.684  0.00  0.00    +0.433 N 
ATOM     14  C   UNL A   1      38.671 -19.024 -35.447  0.00  0.00    -0.060 C 
ATOM     15  O   UNL A   1      39.056 -21.263 -34.981  0.00  0.00    -0.289 OA
ATOM     16  C   UNL A   1      41.090 -19.867 -35.338  0.00  0.00    +0.039 C 
ENDROOT
BRANCH   6  17
ATOM     17  O   UNL A   1      46.675 -20.423 -36.929  0.00  0.00    -0.411 OA
BRANCH  17  18
ATOM     18  C   UNL A   1      46.488 -20.403 -38.307  0.00  0.00    +0.410 C 
ATOM     19  O   UNL A   1      46.125 -19.427 -38.949  0.00  0.00    -0.226 OA
ATOM     20  N   UNL A   1      46.776 -21.655 -38.786  0.00  0.00    -0.251 N 
ATOM     21  H   UNL A   1      47.035 -22.322 -38.110  0.00  0.00    +0.000 HD
BRANCH  20  22
ATOM     22  C   UNL A   1      46.749 -22.112 -40.114  0.00  0.00    +0.036 A 
ATOM     23  C   UNL A   1      47.872 -22.815 -40.571  0.00  0.00    -0.040 A 
ATOM     24  C   UNL A   1      47.925 -23.300 -41.880  0.00  0.00    -0.060 A 
ATOM     25  C   UNL A   1      46.857 -23.084 -42.746  0.00  0.00    -0.062 A 
ATOM     26  C   UNL A   1      45.737 -22.386 -42.300  0.00  0.00    -0.060 A 
ATOM     27  C   UNL A   1      45.683 -21.902 -40.989  0.00  0.00    -0.040 A 
ENDBRANCH  20  22
ENDBRANCH  17  18
ENDBRANCH   6  17
TORSDOF 3
ENDMDL
MODEL 9
REMARK VINA RESULT:    -7.396      2.569      8.749
REMARK INTER + INTRA:          -8.554
REMARK INTER:                  -8.103
REMARK INTRA:                  -0.451
REMARK UNBOUND:                 0.140
REMARK  Name = cpd266.pdb
REMARK  6 active torsions:
REMARK  status: ('A' for Active; 'I' for Inactive)
REMARK    1  A    between atoms: C_1  and  N_2
REMARK    2  A    between atoms: C_6  and  O_7
REMARK    3  A    between atoms: O_7  and  C_8
REMARK    4  A    between atoms: N_10  and  C_11
REMARK    5  A    between atoms: C_19  and  C_20
REMARK    6  A    between atoms: N_23  and  C_24
REMARK                            x       y       z     vdW  Elec       q    Type
REMARK                         _______ _______ _______ _____ _____    ______ ____
ROOT
ATOM      1  C   UNL A   1      28.833 -34.218 -30.019  0.00  0.00    -0.001 C 
ATOM      2  N   UNL A   1      30.254 -33.996 -30.215  0.00  0.00    -0.341 N 
ATOM      3  C   UNL A   1      31.178 -34.955 -29.719  0.00  0.00    +0.032 A 
ATOM      4  C   UNL A   1      30.957 -36.244 -29.272  0.00  0.00    -0.037 A 
ATOM      5  C   UNL A   1      32.057 -36.989 -28.830  0.00  0.00    -0.017 A 
ATOM      6  C   UNL A   1      33.346 -36.428 -28.853  0.00  0.00    +0.134 A 
ATOM      7  C   UNL A   1      33.590 -35.147 -29.345  0.00  0.00    -0.014 A 
ATOM      8  C   UNL A   1      32.489 -34.432 -29.768  0.00  0.00    -0.017 A 
ATOM      9  C   UNL A   1      32.363 -33.093 -30.421  0.00  0.00    +0.002 C 
ATOM     10  C   UNL A   1      32.446 -33.317 -31.957  0.00  0.00    -0.055 C 
ATOM     11  C   UNL A   1      33.175 -31.899 -30.004  0.00  0.00    -0.054 C 
ATOM     12  C   UNL A   1      32.266 -30.769 -30.469  0.00  0.00    -0.048 C 
ATOM     13  N   UNL A   1      30.819 -31.297 -30.418  0.00  0.00    +0.433 N 
ATOM     14  C   UNL A   1      30.010 -30.331 -29.579  0.00  0.00    -0.060 C 
ATOM     15  O   UNL A   1      30.249 -31.317 -31.664  0.00  0.00    -0.289 OA
ATOM     16  C   UNL A   1      30.941 -32.716 -29.720  0.00  0.00    +0.039 C 
ENDROOT
BRANCH   6  17
ATOM     17  O   UNL A   1      34.434 -37.216 -28.464  0.00  0.00    -0.411 OA
BRANCH  17  18
ATOM     18  C   UNL A   1      35.376 -37.413 -29.468  0.00  0.00    +0.410 C 
ATOM     19  O   UNL A   1      35.170 -38.021 -30.509  0.00  0.00    -0.226 OA
ATOM     20  N   UNL A   1      36.544 -36.817 -29.068  0.00  0.00    -0.251 N 
ATOM     21  H   UNL A   1      36.524 -36.389 -28.181  0.00  0.00    +0.000 HD
BRANCH  20  22
ATOM     22  C   UNL A   1      37.766 -36.735 -29.755  0.00  0.00    +0.036 A 
ATOM     23  C   UNL A   1      38.819 -37.532 -29.285  0.00  0.00    -0.040 A 
ATOM     24  C   UNL A   1      40.068 -37.506 -29.912  0.00  0.00    -0.060 A 
ATOM     25  C   UNL A   1      40.276 -36.681 -31.013  0.00  0.00    -0.062 A 
ATOM     26  C   UNL A   1      39.235 -35.885 -31.488  0.00  0.00    -0.060 A 
ATOM     27  C   UNL A   1      37.985 -35.913 -30.862  0.00  0.00    -0.040 A 
ENDBRANCH  20  22
ENDBRANCH  17  18
ENDBRANCH   6  17
TORSDOF 3
ENDMDL
MODEL 10
REMARK VINA RESULT:    -7.201      4.082      8.670
REMARK INTER + INTRA:          -8.325
REMARK INTER:                  -8.166
REMARK INTRA:                  -0.158
REMARK UNBOUND:                 0.140
REMARK  Name = cpd266.pdb
REMARK  6 active torsions:
REMARK  status: ('A' for Active; 'I' for Inactive)
REMARK    1  A    between atoms: C_1  and  N_2
REMARK    2  A    between atoms: C_6  and  O_7
REMARK    3  A    between atoms: O_7  and  C_8
REMARK    4  A    between atoms: N_10  and  C_11
REMARK    5  A    between atoms: C_19  and  C_20
REMARK    6  A    between atoms: N_23  and  C_24
REMARK                            x       y       z     vdW  Elec       q    Type
REMARK                         _______ _______ _______ _____ _____    ______ ____
ROOT
ATOM      1  C   UNL A   1      30.878 -39.439 -28.231  0.00  0.00    -0.001 C 
ATOM      2  N   UNL A   1      31.831 -38.475 -27.714  0.00  0.00    -0.341 N 
ATOM      3  C   UNL A   1      32.794 -37.916 -28.597  0.00  0.00    +0.032 A 
ATOM      4  C   UNL A   1      32.844 -37.937 -29.978  0.00  0.00    -0.037 A 
ATOM      5  C   UNL A   1      33.917 -37.300 -30.612  0.00  0.00    -0.017 A 
ATOM      6  C   UNL A   1      34.906 -36.654 -29.850  0.00  0.00    +0.134 A 
ATOM      7  C   UNL A   1      34.844 -36.583 -28.460  0.00  0.00    -0.014 A 
ATOM      8  C   UNL A   1      33.781 -37.225 -27.859  0.00  0.00    -0.017 A 
ATOM      9  C   UNL A   1      33.338 -37.295 -26.433  0.00  0.00    +0.002 C 
ATOM     10  C   UNL A   1      32.381 -36.096 -26.185  0.00  0.00    -0.055 C 
ATOM     11  C   UNL A   1      34.295 -37.469 -25.287  0.00  0.00    -0.054 C 
ATOM     12  C   UNL A   1      33.373 -38.098 -24.250  0.00  0.00    -0.048 C 
ATOM     13  N   UNL A   1      32.286 -38.875 -25.017  0.00  0.00    +0.433 N 
ATOM     14  C   UNL A   1      32.285 -40.296 -24.493  0.00  0.00    -0.060 C 
ATOM     15  O   UNL A   1      31.038 -38.361 -24.776  0.00  0.00    -0.289 OA
ATOM     16  C   UNL A   1      32.750 -38.812 -26.532  0.00  0.00    +0.039 C 
ENDROOT
BRANCH   6  17
ATOM     17  O   UNL A   1      35.932 -35.972 -30.512  0.00  0.00    -0.411 OA
BRANCH  17  18
ATOM     18  C   UNL A   1      37.006 -36.780 -30.872  0.00  0.00    +0.410 C 
ATOM     19  O   UNL A   1      36.976 -38.002 -30.920  0.00  0.00    -0.226 OA
ATOM     20  N   UNL A   1      38.072 -35.961 -31.145  0.00  0.00    -0.251 N 
ATOM     21  H   UNL A   1      37.910 -34.996 -31.031  0.00  0.00    +0.000 HD
BRANCH  20  22
ATOM     22  C   UNL A   1      39.364 -36.316 -31.567  0.00  0.00    +0.036 A 
ATOM     23  C   UNL A   1      40.128 -37.101 -30.693  0.00  0.00    -0.040 A 
ATOM     24  C   UNL A   1      41.424 -37.493 -31.036  0.00  0.00    -0.060 A 
ATOM     25  C   UNL A   1      41.970 -37.103 -32.256  0.00  0.00    -0.062 A 
ATOM     26  C   UNL A   1      41.217 -36.323 -33.131  0.00  0.00    -0.060 A 
ATOM     27  C   UNL A   1      39.918 -35.932 -32.788  0.00  0.00    -0.040 A 
ENDBRANCH  20  22
ENDBRANCH  17  18
ENDBRANCH   6  17
TORSDOF 3
ENDMDL
MODEL 11
REMARK VINA RESULT:    -6.995     24.188     27.409
REMARK INTER + INTRA:          -8.082
REMARK INTER:                  -7.952
REMARK INTRA:                  -0.130
REMARK UNBOUND:                 0.140
REMARK  Name = cpd266.pdb
REMARK  6 active torsions:
REMARK  status: ('A' for Active; 'I' for Inactive)
REMARK    1  A    between atoms: C_1  and  N_2
REMARK    2  A    between atoms: C_6  and  O_7
REMARK    3  A    between atoms: O_7  and  C_8
REMARK    4  A    between atoms: N_10  and  C_11
REMARK    5  A    between atoms: C_19  and  C_20
REMARK    6  A    between atoms: N_23  and  C_24
REMARK                            x       y       z     vdW  Elec       q    Type
REMARK                         _______ _______ _______ _____ _____    ______ ____
ROOT
ATOM      1  C   UNL A   1      47.918 -27.006 -55.832  0.00  0.00    -0.001 C 
ATOM      2  N   UNL A   1      47.574 -28.391 -56.091  0.00  0.00    -0.341 N 
ATOM      3  C   UNL A   1      47.430 -29.283 -54.993  0.00  0.00    +0.032 A 
ATOM      4  C   UNL A   1      47.314 -29.010 -53.643  0.00  0.00    -0.037 A 
ATOM      5  C   UNL A   1      47.181 -30.087 -52.759  0.00  0.00    -0.017 A 
ATOM      6  C   UNL A   1      47.160 -31.405 -53.248  0.00  0.00    +0.134 A 
ATOM      7  C   UNL A   1      47.228 -31.693 -54.609  0.00  0.00    -0.014 A 
ATOM      8  C   UNL A   1      47.366 -30.615 -55.459  0.00  0.00    -0.017 A 
ATOM      9  C   UNL A   1      47.385 -30.520 -56.951  0.00  0.00    +0.002 C 
ATOM     10  C   UNL A   1      45.915 -30.335 -57.422  0.00  0.00    -0.055 C 
ATOM     11  C   UNL A   1      48.113 -31.503 -57.824  0.00  0.00    -0.054 C 
ATOM     12  C   UNL A   1      48.356 -30.647 -59.061  0.00  0.00    -0.048 C 
ATOM     13  N   UNL A   1      48.445 -29.182 -58.593  0.00  0.00    +0.433 N 
ATOM     14  C   UNL A   1      49.752 -28.617 -59.108  0.00  0.00    -0.060 C 
ATOM     15  O   UNL A   1      47.441 -28.421 -59.133  0.00  0.00    -0.289 OA
ATOM     16  C   UNL A   1      48.432 -29.272 -57.009  0.00  0.00    +0.039 C 
ENDROOT
BRANCH   6  17
ATOM     17  O   UNL A   1      46.963 -32.457 -52.347  0.00  0.00    -0.411 OA
BRANCH  17  18
ATOM     18  C   UNL A   1      47.099 -33.719 -52.915  0.00  0.00    +0.410 C 
ATOM     19  O   UNL A   1      48.156 -34.205 -53.292  0.00  0.00    -0.226 OA
ATOM     20  N   UNL A   1      45.852 -34.287 -52.973  0.00  0.00    -0.251 N 
ATOM     21  H   UNL A   1      45.113 -33.731 -52.638  0.00  0.00    +0.000 HD
BRANCH  20  22
ATOM     22  C   UNL A   1      45.491 -35.559 -53.449  0.00  0.00    +0.036 A 
ATOM     23  C   UNL A   1      45.184 -35.668 -54.812  0.00  0.00    -0.040 A 
ATOM     24  C   UNL A   1      44.812 -36.898 -55.362  0.00  0.00    -0.060 A 
ATOM     25  C   UNL A   1      44.740 -38.029 -54.554  0.00  0.00    -0.062 A 
ATOM     26  C   UNL A   1      45.044 -37.929 -53.198  0.00  0.00    -0.060 A 
ATOM     27  C   UNL A   1      45.419 -36.699 -52.647  0.00  0.00    -0.040 A 
ENDBRANCH  20  22
ENDBRANCH  17  18
ENDBRANCH   6  17
TORSDOF 3
ENDMDL
MODEL 12
REMARK VINA RESULT:    -6.994     16.941     18.569
REMARK INTER + INTRA:          -8.080
REMARK INTER:                  -7.651
REMARK INTRA:                  -0.430
REMARK UNBOUND:                 0.140
REMARK  Name = cpd266.pdb
REMARK  6 active torsions:
REMARK  status: ('A' for Active; 'I' for Inactive)
REMARK    1  A    between atoms: C_1  and  N_2
REMARK    2  A    between atoms: C_6  and  O_7
REMARK    3  A    between atoms: O_7  and  C_8
REMARK    4  A    between atoms: N_10  and  C_11
REMARK    5  A    between atoms: C_19  and  C_20
REMARK    6  A    between atoms: N_23  and  C_24
REMARK                            x       y       z     vdW  Elec       q    Type
REMARK                         _______ _______ _______ _____ _____    ______ ____
ROOT
ATOM      1  C   UNL A   1      46.695 -17.134 -40.369  0.00  0.00    -0.001 C 
ATOM      2  N   UNL A   1      46.046 -18.358 -39.937  0.00  0.00    -0.341 N 
ATOM      3  C   UNL A   1      45.665 -18.493 -38.574  0.00  0.00    +0.032 A 
ATOM      4  C   UNL A   1      45.574 -17.534 -37.583  0.00  0.00    -0.037 A 
ATOM      5  C   UNL A   1      45.167 -17.937 -36.306  0.00  0.00    -0.017 A 
ATOM      6  C   UNL A   1      44.856 -19.285 -36.056  0.00  0.00    +0.134 A 
ATOM      7  C   UNL A   1      44.897 -20.255 -37.056  0.00  0.00    -0.014 A 
ATOM      8  C   UNL A   1      45.308 -19.833 -38.304  0.00  0.00    -0.017 A 
ATOM      9  C   UNL A   1      45.395 -20.544 -39.616  0.00  0.00    +0.002 C 
ATOM     10  C   UNL A   1      44.023 -20.372 -40.328  0.00  0.00    -0.055 C 
ATOM     11  C   UNL A   1      45.901 -21.952 -39.752  0.00  0.00    -0.054 C 
ATOM     12  C   UNL A   1      46.374 -21.938 -41.200  0.00  0.00    -0.048 C 
ATOM     13  N   UNL A   1      46.787 -20.491 -41.532  0.00  0.00    +0.433 N 
ATOM     14  C   UNL A   1      48.204 -20.531 -42.062  0.00  0.00    -0.060 C 
ATOM     15  O   UNL A   1      46.004 -19.962 -42.525  0.00  0.00    -0.289 OA
ATOM     16  C   UNL A   1      46.704 -19.729 -40.143  0.00  0.00    +0.039 C 
ENDROOT
BRANCH   6  17
ATOM     17  O   UNL A   1      44.392 -19.648 -34.788  0.00  0.00    -0.411 OA
BRANCH  17  18
ATOM     18  C   UNL A   1      43.006 -19.640 -34.669  0.00  0.00    +0.410 C 
ATOM     19  O   UNL A   1      42.304 -18.642 -34.749  0.00  0.00    -0.226 OA
ATOM     20  N   UNL A   1      42.599 -20.931 -34.446  0.00  0.00    -0.251 N 
ATOM     21  H   UNL A   1      43.316 -21.603 -34.393  0.00  0.00    +0.000 HD
BRANCH  20  22
ATOM     22  C   UNL A   1      41.292 -21.420 -34.281  0.00  0.00    +0.036 A 
ATOM     23  C   UNL A   1      40.731 -21.327 -33.001  0.00  0.00    -0.040 A 
ATOM     24  C   UNL A   1      39.437 -21.794 -32.754  0.00  0.00    -0.060 A 
ATOM     25  C   UNL A   1      38.694 -22.362 -33.784  0.00  0.00    -0.062 A 
ATOM     26  C   UNL A   1      39.245 -22.460 -35.061  0.00  0.00    -0.060 A 
ATOM     27  C   UNL A   1      40.539 -21.990 -35.309  0.00  0.00    -0.040 A 
ENDBRANCH  20  22
ENDBRANCH  17  18
ENDBRANCH   6  17
TORSDOF 3
ENDMDL
MODEL 13
REMARK VINA RESULT:    -6.918     15.290     18.174
REMARK INTER + INTRA:          -7.992
REMARK INTER:                  -7.854
REMARK INTRA:                  -0.138
REMARK UNBOUND:                 0.140
REMARK  Name = cpd266.pdb
REMARK  6 active torsions:
REMARK  status: ('A' for Active; 'I' for Inactive)
REMARK    1  A    between atoms: C_1  and  N_2
REMARK    2  A    between atoms: C_6  and  O_7
REMARK    3  A    between atoms: O_7  and  C_8
REMARK    4  A    between atoms: N_10  and  C_11
REMARK    5  A    between atoms: C_19  and  C_20
REMARK    6  A    between atoms: N_23  and  C_24
REMARK                            x       y       z     vdW  Elec       q    Type
REMARK                         _______ _______ _______ _____ _____    ______ ____
ROOT
ATOM      1  C   UNL A   1      39.710 -18.523 -33.242  0.00  0.00    -0.001 C 
ATOM      2  N   UNL A   1      39.933 -19.790 -33.913  0.00  0.00    -0.341 N 
ATOM      3  C   UNL A   1      40.539 -19.792 -35.199  0.00  0.00    +0.032 A 
ATOM      4  C   UNL A   1      41.207 -18.781 -35.862  0.00  0.00    -0.037 A 
ATOM      5  C   UNL A   1      41.716 -19.048 -37.139  0.00  0.00    -0.017 A 
ATOM      6  C   UNL A   1      41.548 -20.320 -37.714  0.00  0.00    +0.134 A 
ATOM      7  C   UNL A   1      40.918 -21.363 -37.039  0.00  0.00    -0.014 A 
ATOM      8  C   UNL A   1      40.420 -21.072 -35.786  0.00  0.00    -0.017 A 
ATOM      9  C   UNL A   1      39.774 -21.931 -34.747  0.00  0.00    +0.002 C 
ATOM     10  C   UNL A   1      40.906 -22.501 -33.847  0.00  0.00    -0.055 C 
ATOM     11  C   UNL A   1      38.760 -22.991 -35.076  0.00  0.00    -0.054 C 
ATOM     12  C   UNL A   1      38.008 -23.075 -33.755  0.00  0.00    -0.048 C 
ATOM     13  N   UNL A   1      38.103 -21.690 -33.086  0.00  0.00    +0.433 N 
ATOM     14  C   UNL A   1      36.693 -21.237 -32.773  0.00  0.00    -0.060 C 
ATOM     15  O   UNL A   1      38.776 -21.754 -31.894  0.00  0.00    -0.289 OA
ATOM     16  C   UNL A   1      38.782 -20.768 -34.184  0.00  0.00    +0.039 C 
ENDROOT
BRANCH   6  17
ATOM     17  O   UNL A   1      42.120 -20.577 -38.964  0.00  0.00    -0.411 OA
BRANCH  17  18
ATOM     18  C   UNL A   1      43.501 -20.741 -38.930  0.00  0.00    +0.410 C 
ATOM     19  O   UNL A   1      44.179 -20.741 -37.913  0.00  0.00    -0.226 OA
ATOM     20  N   UNL A   1      43.935 -20.890 -40.223  0.00  0.00    -0.251 N 
ATOM     21  H   UNL A   1      43.239 -20.841 -40.917  0.00  0.00    +0.000 HD
BRANCH  20  22
ATOM     22  C   UNL A   1      45.244 -21.102 -40.687  0.00  0.00    +0.036 A 
ATOM     23  C   UNL A   1      45.817 -22.355 -40.435  0.00  0.00    -0.040 A 
ATOM     24  C   UNL A   1      47.116 -22.644 -40.861  0.00  0.00    -0.060 A 
ATOM     25  C   UNL A   1      47.856 -21.681 -41.540  0.00  0.00    -0.062 A 
ATOM     26  C   UNL A   1      47.294 -20.431 -41.796  0.00  0.00    -0.060 A 
ATOM     27  C   UNL A   1      45.993 -20.143 -41.371  0.00  0.00    -0.040 A 
ENDBRANCH  20  22
ENDBRANCH  17  18
ENDBRANCH   6  17
TORSDOF 3
ENDMDL
MODEL 14
REMARK VINA RESULT:    -6.884     16.342     19.095
REMARK INTER + INTRA:          -7.952
REMARK INTER:                  -7.515
REMARK INTRA:                  -0.436
REMARK UNBOUND:                 0.140
REMARK  Name = cpd266.pdb
REMARK  6 active torsions:
REMARK  status: ('A' for Active; 'I' for Inactive)
REMARK    1  A    between atoms: C_1  and  N_2
REMARK    2  A    between atoms: C_6  and  O_7
REMARK    3  A    between atoms: O_7  and  C_8
REMARK    4  A    between atoms: N_10  and  C_11
REMARK    5  A    between atoms: C_19  and  C_20
REMARK    6  A    between atoms: N_23  and  C_24
REMARK                            x       y       z     vdW  Elec       q    Type
REMARK                         _______ _______ _______ _____ _____    ______ ____
ROOT
ATOM      1  C   UNL A   1      40.198 -17.259 -35.917  0.00  0.00    -0.001 C 
ATOM      2  N   UNL A   1      40.971 -18.317 -35.294  0.00  0.00    -0.341 N 
ATOM      3  C   UNL A   1      42.252 -18.638 -35.820  0.00  0.00    +0.032 A 
ATOM      4  C   UNL A   1      43.041 -17.935 -36.711  0.00  0.00    -0.037 A 
ATOM      5  C   UNL A   1      44.279 -18.481 -37.071  0.00  0.00    -0.017 A 
ATOM      6  C   UNL A   1      44.696 -19.709 -36.528  0.00  0.00    +0.134 A 
ATOM      7  C   UNL A   1      43.932 -20.405 -35.593  0.00  0.00    -0.014 A 
ATOM      8  C   UNL A   1      42.714 -19.849 -35.260  0.00  0.00    -0.017 A 
ATOM      9  C   UNL A   1      41.679 -20.248 -34.257  0.00  0.00    +0.002 C 
ATOM     10  C   UNL A   1      42.039 -19.546 -32.917  0.00  0.00    -0.055 C 
ATOM     11  C   UNL A   1      41.270 -21.675 -34.026  0.00  0.00    -0.054 C 
ATOM     12  C   UNL A   1      39.867 -21.474 -33.467  0.00  0.00    -0.048 C 
ATOM     13  N   UNL A   1      39.320 -20.164 -34.067  0.00  0.00    +0.433 N 
ATOM     14  C   UNL A   1      37.991 -20.481 -34.718  0.00  0.00    -0.060 C 
ATOM     15  O   UNL A   1      39.075 -19.232 -33.093  0.00  0.00    -0.289 OA
ATOM     16  C   UNL A   1      40.408 -19.736 -35.138  0.00  0.00    +0.039 C 
ENDROOT
BRANCH   6  17
ATOM     17  O   UNL A   1      45.964 -20.199 -36.858  0.00  0.00    -0.411 OA
BRANCH  17  18
ATOM     18  C   UNL A   1      46.248 -20.159 -38.219  0.00  0.00    +0.410 C 
ATOM     19  O   UNL A   1      47.017 -19.369 -38.749  0.00  0.00    -0.226 OA
ATOM     20  N   UNL A   1      45.513 -21.144 -38.828  0.00  0.00    -0.251 N 
ATOM     21  H   UNL A   1      44.930 -21.671 -38.235  0.00  0.00    +0.000 HD
BRANCH  20  22
ATOM     22  C   UNL A   1      45.482 -21.499 -40.187  0.00  0.00    +0.036 A 
ATOM     23  C   UNL A   1      44.422 -21.000 -40.955  0.00  0.00    -0.040 A 
ATOM     24  C   UNL A   1      44.317 -21.311 -42.313  0.00  0.00    -0.060 A 
ATOM     25  C   UNL A   1      45.271 -22.126 -42.916  0.00  0.00    -0.062 A 
ATOM     26  C   UNL A   1      46.329 -22.627 -42.160  0.00  0.00    -0.060 A 
ATOM     27  C   UNL A   1      46.435 -22.314 -40.800  0.00  0.00    -0.040 A 
ENDBRANCH  20  22
ENDBRANCH  17  18
ENDBRANCH   6  17
TORSDOF 3
ENDMDL
MODEL 15
REMARK VINA RESULT:    -6.696     15.624     18.311
REMARK INTER + INTRA:          -7.730
REMARK INTER:                  -7.367
REMARK INTRA:                  -0.364
REMARK UNBOUND:                 0.140
REMARK  Name = cpd266.pdb
REMARK  6 active torsions:
REMARK  status: ('A' for Active; 'I' for Inactive)
REMARK    1  A    between atoms: C_1  and  N_2
REMARK    2  A    between atoms: C_6  and  O_7
REMARK    3  A    between atoms: O_7  and  C_8
REMARK    4  A    between atoms: N_10  and  C_11
REMARK    5  A    between atoms: C_19  and  C_20
REMARK    6  A    between atoms: N_23  and  C_24
REMARK                            x       y       z     vdW  Elec       q    Type
REMARK                         _______ _______ _______ _____ _____    ______ ____
ROOT
ATOM      1  C   UNL A   1      37.837 -18.165 -36.128  0.00  0.00    -0.001 C 
ATOM      2  N   UNL A   1      38.793 -19.214 -35.824  0.00  0.00    -0.341 N 
ATOM      3  C   UNL A   1      39.337 -19.981 -36.890  0.00  0.00    +0.032 A 
ATOM      4  C   UNL A   1      39.309 -19.747 -38.251  0.00  0.00    -0.037 A 
ATOM      5  C   UNL A   1      39.931 -20.673 -39.096  0.00  0.00    -0.017 A 
ATOM      6  C   UNL A   1      40.569 -21.804 -38.557  0.00  0.00    +0.134 A 
ATOM      7  C   UNL A   1      40.647 -22.029 -37.184  0.00  0.00    -0.014 A 
ATOM      8  C   UNL A   1      40.020 -21.105 -36.374  0.00  0.00    -0.017 A 
ATOM      9  C   UNL A   1      39.961 -20.963 -34.887  0.00  0.00    +0.002 C 
ATOM     10  C   UNL A   1      41.172 -20.090 -34.456  0.00  0.00    -0.055 C 
ATOM     11  C   UNL A   1      39.781 -22.133 -33.960  0.00  0.00    -0.054 C 
ATOM     12  C   UNL A   1      39.168 -21.437 -32.752  0.00  0.00    -0.048 C 
ATOM     13  N   UNL A   1      38.399 -20.207 -33.274  0.00  0.00    +0.433 N 
ATOM     14  C   UNL A   1      36.982 -20.299 -32.752  0.00  0.00    -0.060 C 
ATOM     15  O   UNL A   1      38.929 -19.041 -32.787  0.00  0.00    -0.289 OA
ATOM     16  C   UNL A   1      38.451 -20.352 -34.853  0.00  0.00    +0.039 C 
ENDROOT
BRANCH   6  17
ATOM     17  O   UNL A   1      41.235 -22.680 -39.420  0.00  0.00    -0.411 OA
BRANCH  17  18
ATOM     18  C   UNL A   1      41.963 -22.043 -40.420  0.00  0.00    +0.410 C 
ATOM     19  O   UNL A   1      41.578 -21.885 -41.570  0.00  0.00    -0.226 OA
ATOM     20  N   UNL A   1      43.159 -21.648 -39.879  0.00  0.00    -0.251 N 
ATOM     21  H   UNL A   1      43.300 -21.883 -38.933  0.00  0.00    +0.000 HD
BRANCH  20  22
ATOM     22  C   UNL A   1      44.212 -20.952 -40.496  0.00  0.00    +0.036 A 
ATOM     23  C   UNL A   1      45.350 -21.691 -40.844  0.00  0.00    -0.040 A 
ATOM     24  C   UNL A   1      46.442 -21.071 -41.458  0.00  0.00    -0.060 A 
ATOM     25  C   UNL A   1      46.407 -19.706 -41.727  0.00  0.00    -0.062 A 
ATOM     26  C   UNL A   1      45.279 -18.963 -41.384  0.00  0.00    -0.060 A 
ATOM     27  C   UNL A   1      44.185 -19.584 -40.771  0.00  0.00    -0.040 A 
ENDBRANCH  20  22
ENDBRANCH  17  18
ENDBRANCH   6  17
TORSDOF 3
ENDMDL
MODEL 16
REMARK VINA RESULT:    -6.677     16.262     18.732
REMARK INTER + INTRA:          -7.708
REMARK INTER:                  -7.258
REMARK INTRA:                  -0.450
REMARK UNBOUND:                 0.140
REMARK  Name = cpd266.pdb
REMARK  6 active torsions:
REMARK  status: ('A' for Active; 'I' for Inactive)
REMARK    1  A    between atoms: C_1  and  N_2
REMARK    2  A    between atoms: C_6  and  O_7
REMARK    3  A    between atoms: O_7  and  C_8
REMARK    4  A    between atoms: N_10  and  C_11
REMARK    5  A    between atoms: C_19  and  C_20
REMARK    6  A    between atoms: N_23  and  C_24
REMARK                            x       y       z     vdW  Elec       q    Type
REMARK                         _______ _______ _______ _____ _____    ______ ____
ROOT
ATOM      1  C   UNL A   1      39.251 -22.956 -35.996  0.00  0.00    -0.001 C 
ATOM      2  N   UNL A   1      39.814 -21.631 -35.814  0.00  0.00    -0.341 N 
ATOM      3  C   UNL A   1      40.410 -20.976 -36.926  0.00  0.00    +0.032 A 
ATOM      4  C   UNL A   1      40.337 -21.279 -38.273  0.00  0.00    -0.037 A 
ATOM      5  C   UNL A   1      41.027 -20.460 -39.174  0.00  0.00    -0.017 A 
ATOM      6  C   UNL A   1      41.766 -19.359 -38.707  0.00  0.00    +0.134 A 
ATOM      7  C   UNL A   1      41.810 -19.013 -37.358  0.00  0.00    -0.014 A 
ATOM      8  C   UNL A   1      41.127 -19.840 -36.489  0.00  0.00    -0.017 A 
ATOM      9  C   UNL A   1      40.876 -19.749 -35.018  0.00  0.00    +0.002 C 
ATOM     10  C   UNL A   1      39.565 -18.938 -34.820  0.00  0.00    -0.055 C 
ATOM     11  C   UNL A   1      41.929 -19.322 -34.034  0.00  0.00    -0.054 C 
ATOM     12  C   UNL A   1      41.412 -19.992 -32.768  0.00  0.00    -0.048 C 
ATOM     13  N   UNL A   1      40.632 -21.249 -33.201  0.00  0.00    +0.433 N 
ATOM     14  C   UNL A   1      41.215 -22.428 -32.453  0.00  0.00    -0.060 C 
ATOM     15  O   UNL A   1      39.311 -21.165 -32.847  0.00  0.00    -0.289 OA
ATOM     16  C   UNL A   1      40.897 -21.358 -34.761  0.00  0.00    +0.039 C 
ENDROOT
BRANCH   6  17
ATOM     17  O   UNL A   1      42.394 -18.523 -39.635  0.00  0.00    -0.411 OA
BRANCH  17  18
ATOM     18  C   UNL A   1      43.781 -18.626 -39.640  0.00  0.00    +0.410 C 
ATOM     19  O   UNL A   1      44.546 -17.779 -39.199  0.00  0.00    -0.226 OA
ATOM     20  N   UNL A   1      44.109 -19.822 -40.224  0.00  0.00    -0.251 N 
ATOM     21  H   UNL A   1      43.351 -20.367 -40.538  0.00  0.00    +0.000 HD
BRANCH  20  22
ATOM     22  C   UNL A   1      45.384 -20.374 -40.433  0.00  0.00    +0.036 A 
ATOM     23  C   UNL A   1      45.816 -21.350 -39.526  0.00  0.00    -0.040 A 
ATOM     24  C   UNL A   1      47.073 -21.945 -39.663  0.00  0.00    -0.060 A 
ATOM     25  C   UNL A   1      47.911 -21.567 -40.708  0.00  0.00    -0.062 A 
ATOM     26  C   UNL A   1      47.490 -20.597 -41.615  0.00  0.00    -0.060 A 
ATOM     27  C   UNL A   1      46.231 -20.003 -41.479  0.00  0.00    -0.040 A 
ENDBRANCH  20  22
ENDBRANCH  17  18
ENDBRANCH   6  17
TORSDOF 3
ENDMDL
MODEL 17
REMARK VINA RESULT:    -6.542      2.686      9.397
REMARK INTER + INTRA:          -7.550
REMARK INTER:                  -7.351
REMARK INTRA:                  -0.199
REMARK UNBOUND:                 0.140
REMARK  Name = cpd266.pdb
REMARK  6 active torsions:
REMARK  status: ('A' for Active; 'I' for Inactive)
REMARK    1  A    between atoms: C_1  and  N_2
REMARK    2  A    between atoms: C_6  and  O_7
REMARK    3  A    between atoms: O_7  and  C_8
REMARK    4  A    between atoms: N_10  and  C_11
REMARK    5  A    between atoms: C_19  and  C_20
REMARK    6  A    between atoms: N_23  and  C_24
REMARK                            x       y       z     vdW  Elec       q    Type
REMARK                         _______ _______ _______ _____ _____    ______ ____
ROOT
ATOM      1  C   UNL A   1      30.316 -31.195 -29.206  0.00  0.00    -0.001 C 
ATOM      2  N   UNL A   1      30.647 -32.607 -29.251  0.00  0.00    -0.341 N 
ATOM      3  C   UNL A   1      31.787 -33.026 -29.989  0.00  0.00    +0.032 A 
ATOM      4  C   UNL A   1      32.830 -32.278 -30.501  0.00  0.00    -0.037 A 
ATOM      5  C   UNL A   1      33.843 -32.946 -31.200  0.00  0.00    -0.017 A 
ATOM      6  C   UNL A   1      33.788 -34.342 -31.362  0.00  0.00    +0.134 A 
ATOM      7  C   UNL A   1      32.768 -35.114 -30.811  0.00  0.00    -0.014 A 
ATOM      8  C   UNL A   1      31.778 -34.431 -30.134  0.00  0.00    -0.017 A 
ATOM      9  C   UNL A   1      30.596 -34.908 -29.353  0.00  0.00    +0.002 C 
ATOM     10  C   UNL A   1      31.062 -35.109 -27.883  0.00  0.00    -0.055 C 
ATOM     11  C   UNL A   1      29.722 -36.044 -29.803  0.00  0.00    -0.054 C 
ATOM     12  C   UNL A   1      28.425 -35.699 -29.083  0.00  0.00    -0.048 C 
ATOM     13  N   UNL A   1      28.389 -34.168 -28.917  0.00  0.00    +0.433 N 
ATOM     14  C   UNL A   1      27.084 -33.676 -29.506  0.00  0.00    -0.060 C 
ATOM     15  O   UNL A   1      28.390 -33.807 -27.595  0.00  0.00    -0.289 OA
ATOM     16  C   UNL A   1      29.637 -33.651 -29.748  0.00  0.00    +0.039 C 
ENDROOT
BRANCH   6  17
ATOM     17  O   UNL A   1      34.845 -34.989 -32.010  0.00  0.00    -0.411 OA
BRANCH  17  18
ATOM     18  C   UNL A   1      36.020 -35.035 -31.267  0.00  0.00    +0.410 C 
ATOM     19  O   UNL A   1      36.659 -34.055 -30.909  0.00  0.00    -0.226 OA
ATOM     20  N   UNL A   1      36.313 -36.354 -31.029  0.00  0.00    -0.251 N 
ATOM     21  H   UNL A   1      35.688 -37.007 -31.417  0.00  0.00    +0.000 HD
BRANCH  20  22
ATOM     22  C   UNL A   1      37.389 -36.895 -30.306  0.00  0.00    +0.036 A 
ATOM     23  C   UNL A   1      37.100 -37.464 -29.059  0.00  0.00    -0.040 A 
ATOM     24  C   UNL A   1      38.115 -38.020 -28.276  0.00  0.00    -0.060 A 
ATOM     25  C   UNL A   1      39.430 -38.010 -28.732  0.00  0.00    -0.062 A 
ATOM     26  C   UNL A   1      39.727 -37.446 -29.972  0.00  0.00    -0.060 A 
ATOM     27  C   UNL A   1      38.710 -36.891 -30.756  0.00  0.00    -0.040 A 
ENDBRANCH  20  22
ENDBRANCH  17  18
ENDBRANCH   6  17
TORSDOF 3
ENDMDL
MODEL 18
REMARK VINA RESULT:    -6.479     15.785     18.596
REMARK INTER + INTRA:          -7.475
REMARK INTER:                  -7.116
REMARK INTRA:                  -0.359
REMARK UNBOUND:                 0.140
REMARK  Name = cpd266.pdb
REMARK  6 active torsions:
REMARK  status: ('A' for Active; 'I' for Inactive)
REMARK    1  A    between atoms: C_1  and  N_2
REMARK    2  A    between atoms: C_6  and  O_7
REMARK    3  A    between atoms: O_7  and  C_8
REMARK    4  A    between atoms: N_10  and  C_11
REMARK    5  A    between atoms: C_19  and  C_20
REMARK    6  A    between atoms: N_23  and  C_24
REMARK                            x       y       z     vdW  Elec       q    Type
REMARK                         _______ _______ _______ _____ _____    ______ ____
ROOT
ATOM      1  C   UNL A   1      39.760 -17.832 -32.179  0.00  0.00    -0.001 C 
ATOM      2  N   UNL A   1      40.367 -19.025 -32.738  0.00  0.00    -0.341 N 
ATOM      3  C   UNL A   1      41.732 -18.984 -33.135  0.00  0.00    +0.032 A 
ATOM      4  C   UNL A   1      42.705 -18.044 -32.853  0.00  0.00    -0.037 A 
ATOM      5  C   UNL A   1      43.989 -18.244 -33.374  0.00  0.00    -0.017 A 
ATOM      6  C   UNL A   1      44.266 -19.379 -34.157  0.00  0.00    +0.134 A 
ATOM      7  C   UNL A   1      43.308 -20.359 -34.409  0.00  0.00    -0.014 A 
ATOM      8  C   UNL A   1      42.049 -20.134 -33.890  0.00  0.00    -0.017 A 
ATOM      9  C   UNL A   1      40.813 -20.976 -33.877  0.00  0.00    +0.002 C 
ATOM     10  C   UNL A   1      40.868 -21.859 -32.599  0.00  0.00    -0.055 C 
ATOM     11  C   UNL A   1      40.354 -21.774 -35.066  0.00  0.00    -0.054 C 
ATOM     12  C   UNL A   1      38.863 -21.875 -34.771  0.00  0.00    -0.048 C 
ATOM     13  N   UNL A   1      38.472 -20.627 -33.956  0.00  0.00    +0.433 N 
ATOM     14  C   UNL A   1      37.321 -19.956 -34.674  0.00  0.00    -0.060 C 
ATOM     15  O   UNL A   1      38.021 -20.966 -32.707  0.00  0.00    -0.289 OA
ATOM     16  C   UNL A   1      39.775 -19.724 -33.970  0.00  0.00    +0.039 C 
ENDROOT
BRANCH   6  17
ATOM     17  O   UNL A   1      45.572 -19.585 -34.612  0.00  0.00    -0.411 OA
BRANCH  17  18
ATOM     18  C   UNL A   1      45.773 -19.214 -35.937  0.00  0.00    +0.410 C 
ATOM     19  O   UNL A   1      46.080 -18.090 -36.309  0.00  0.00    -0.226 OA
ATOM     20  N   UNL A   1      45.559 -20.321 -36.718  0.00  0.00    -0.251 N 
ATOM     21  H   UNL A   1      45.298 -21.140 -36.236  0.00  0.00    +0.000 HD
BRANCH  20  22
ATOM     22  C   UNL A   1      45.663 -20.442 -38.113  0.00  0.00    +0.036 A 
ATOM     23  C   UNL A   1      46.792 -21.101 -38.616  0.00  0.00    -0.040 A 
ATOM     24  C   UNL A   1      46.971 -21.259 -39.993  0.00  0.00    -0.060 A 
ATOM     25  C   UNL A   1      46.024 -20.757 -40.880  0.00  0.00    -0.062 A 
ATOM     26  C   UNL A   1      44.897 -20.101 -40.389  0.00  0.00    -0.060 A 
ATOM     27  C   UNL A   1      44.717 -19.944 -39.011  0.00  0.00    -0.040 A 
ENDBRANCH  20  22
ENDBRANCH  17  18
ENDBRANCH   6  17
TORSDOF 3
ENDMDL
MODEL 19
REMARK VINA RESULT:    -6.400     21.264     23.600
REMARK INTER + INTRA:          -7.383
REMARK INTER:                  -6.944
REMARK INTRA:                  -0.439
REMARK UNBOUND:                 0.140
REMARK  Name = cpd266.pdb
REMARK  6 active torsions:
REMARK  status: ('A' for Active; 'I' for Inactive)
REMARK    1  A    between atoms: C_1  and  N_2
REMARK    2  A    between atoms: C_6  and  O_7
REMARK    3  A    between atoms: O_7  and  C_8
REMARK    4  A    between atoms: N_10  and  C_11
REMARK    5  A    between atoms: C_19  and  C_20
REMARK    6  A    between atoms: N_23  and  C_24
REMARK                            x       y       z     vdW  Elec       q    Type
REMARK                         _______ _______ _______ _____ _____    ______ ____
ROOT
ATOM      1  C   UNL A   1      43.937 -13.610 -39.947  0.00  0.00    -0.001 C 
ATOM      2  N   UNL A   1      45.290 -14.133 -39.927  0.00  0.00    -0.341 N 
ATOM      3  C   UNL A   1      45.537 -15.383 -39.297  0.00  0.00    +0.032 A 
ATOM      4  C   UNL A   1      44.646 -16.358 -38.889  0.00  0.00    -0.037 A 
ATOM      5  C   UNL A   1      45.158 -17.513 -38.286  0.00  0.00    -0.017 A 
ATOM      6  C   UNL A   1      46.545 -17.664 -38.113  0.00  0.00    +0.134 A 
ATOM      7  C   UNL A   1      47.458 -16.712 -38.562  0.00  0.00    -0.014 A 
ATOM      8  C   UNL A   1      46.928 -15.581 -39.146  0.00  0.00    -0.017 A 
ATOM      9  C   UNL A   1      47.574 -14.407 -39.811  0.00  0.00    +0.002 C 
ATOM     10  C   UNL A   1      47.735 -14.758 -41.316  0.00  0.00    -0.055 C 
ATOM     11  C   UNL A   1      48.811 -13.743 -39.275  0.00  0.00    -0.054 C 
ATOM     12  C   UNL A   1      48.657 -12.350 -39.872  0.00  0.00    -0.048 C 
ATOM     13  N   UNL A   1      47.148 -12.089 -40.040  0.00  0.00    +0.433 N 
ATOM     14  C   UNL A   1      46.827 -10.790 -39.333  0.00  0.00    -0.060 C 
ATOM     15  O   UNL A   1      46.813 -11.919 -41.359  0.00  0.00    -0.289 OA
ATOM     16  C   UNL A   1      46.452 -13.326 -39.333  0.00  0.00    +0.039 C 
ENDROOT
BRANCH   6  17
ATOM     17  O   UNL A   1      47.032 -18.855 -37.564  0.00  0.00    -0.411 OA
BRANCH  17  18
ATOM     18  C   UNL A   1      46.570 -20.001 -38.203  0.00  0.00    +0.410 C 
ATOM     19  O   UNL A   1      45.664 -20.713 -37.793  0.00  0.00    -0.226 OA
ATOM     20  N   UNL A   1      47.314 -20.173 -39.343  0.00  0.00    -0.251 N 
ATOM     21  H   UNL A   1      48.019 -19.503 -39.498  0.00  0.00    +0.000 HD
BRANCH  20  22
ATOM     22  C   UNL A   1      47.203 -21.177 -40.318  0.00  0.00    +0.036 A 
ATOM     23  C   UNL A   1      46.181 -21.038 -41.267  0.00  0.00    -0.040 A 
ATOM     24  C   UNL A   1      46.002 -21.996 -42.268  0.00  0.00    -0.060 A 
ATOM     25  C   UNL A   1      46.840 -23.105 -42.327  0.00  0.00    -0.062 A 
ATOM     26  C   UNL A   1      47.859 -23.253 -41.388  0.00  0.00    -0.060 A 
ATOM     27  C   UNL A   1      48.040 -22.292 -40.387  0.00  0.00    -0.040 A 
ENDBRANCH  20  22
ENDBRANCH  17  18
ENDBRANCH   6  17
TORSDOF 3
ENDMDL
MODEL 20
REMARK VINA RESULT:    -6.209     16.991     18.534
REMARK INTER + INTRA:          -7.158
REMARK INTER:                  -6.676
REMARK INTRA:                  -0.481
REMARK UNBOUND:                 0.140
REMARK  Name = cpd266.pdb
REMARK  6 active torsions:
REMARK  status: ('A' for Active; 'I' for Inactive)
REMARK    1  A    between atoms: C_1  and  N_2
REMARK    2  A    between atoms: C_6  and  O_7
REMARK    3  A    between atoms: O_7  and  C_8
REMARK    4  A    between atoms: N_10  and  C_11
REMARK    5  A    between atoms: C_19  and  C_20
REMARK    6  A    between atoms: N_23  and  C_24
REMARK                            x       y       z     vdW  Elec       q    Type
REMARK                         _______ _______ _______ _____ _____    ______ ____
ROOT
ATOM      1  C   UNL A   1      43.967 -15.652 -38.859  0.00  0.00    -0.001 C 
ATOM      2  N   UNL A   1      44.281 -17.067 -38.932  0.00  0.00    -0.341 N 
ATOM      3  C   UNL A   1      43.219 -18.012 -38.910  0.00  0.00    +0.032 A 
ATOM      4  C   UNL A   1      41.861 -17.818 -39.081  0.00  0.00    -0.037 A 
ATOM      5  C   UNL A   1      41.019 -18.934 -39.011  0.00  0.00    -0.017 A 
ATOM      6  C   UNL A   1      41.557 -20.212 -38.779  0.00  0.00    +0.134 A 
ATOM      7  C   UNL A   1      42.927 -20.430 -38.652  0.00  0.00    -0.014 A 
ATOM      8  C   UNL A   1      43.735 -19.312 -38.718  0.00  0.00    -0.017 A 
ATOM      9  C   UNL A   1      45.222 -19.158 -38.711  0.00  0.00    +0.002 C 
ATOM     10  C   UNL A   1      45.703 -19.236 -40.187  0.00  0.00    -0.055 C 
ATOM     11  C   UNL A   1      46.123 -19.950 -37.806  0.00  0.00    -0.054 C 
ATOM     12  C   UNL A   1      47.324 -19.017 -37.725  0.00  0.00    -0.048 C 
ATOM     13  N   UNL A   1      46.801 -17.581 -37.917  0.00  0.00    +0.433 N 
ATOM     14  C   UNL A   1      47.279 -16.759 -36.739  0.00  0.00    -0.060 C 
ATOM     15  O   UNL A   1      47.323 -17.004 -39.045  0.00  0.00    -0.289 OA
ATOM     16  C   UNL A   1      45.222 -17.733 -37.919  0.00  0.00    +0.039 C 
ENDROOT
BRANCH   6  17
ATOM     17  O   UNL A   1      40.699 -21.317 -38.777  0.00  0.00    -0.411 OA
BRANCH  17  18
ATOM     18  C   UNL A   1      40.582 -21.938 -37.538  0.00  0.00    +0.410 C 
ATOM     19  O   UNL A   1      40.957 -23.075 -37.288  0.00  0.00    -0.226 OA
ATOM     20  N   UNL A   1      39.976 -21.053 -36.683  0.00  0.00    -0.251 N 
ATOM     21  H   UNL A   1      39.726 -20.184 -37.073  0.00  0.00    +0.000 HD
BRANCH  20  22
ATOM     22  C   UNL A   1      39.664 -21.223 -35.324  0.00  0.00    +0.036 A 
ATOM     23  C   UNL A   1      40.678 -20.950 -34.396  0.00  0.00    -0.040 A 
ATOM     24  C   UNL A   1      40.449 -21.098 -33.026  0.00  0.00    -0.060 A 
ATOM     25  C   UNL A   1      39.205 -21.523 -32.570  0.00  0.00    -0.062 A 
ATOM     26  C   UNL A   1      38.191 -21.797 -33.485  0.00  0.00    -0.060 A 
ATOM     27  C   UNL A   1      38.419 -21.647 -34.857  0.00  0.00    -0.040 A 
ENDBRANCH  20  22
ENDBRANCH  17  18
ENDBRANCH   6  17
TORSDOF 3
ENDMDL
