MODEL 1
REMARK VINA RESULT:    -8.168      0.000      0.000
REMARK INTER + INTRA:         -14.898
REMARK INTER:                 -13.182
REMARK INTRA:                  -1.716
REMARK UNBOUND:                -1.716
REMARK  Name = cpd336.pdb
REMARK  13 active torsions:
REMARK  status: ('A' for Active; 'I' for Inactive)
REMARK    1  A    between atoms: C_1  and  O_2
REMARK    2  A    between atoms: O_2  and  C_3
REMARK    3  A    between atoms: C_5  and  C_6
REMARK    4  A    between atoms: C_7  and  C_8
REMARK    5  A    between atoms: C_7  and  C_11
REMARK    6  A    between atoms: C_8  and  C_9
REMARK    7  A    between atoms: N_13  and  C_14
REMARK    8  A    between atoms: C_14  and  C_15
REMARK    9  A    between atoms: C_15  and  C_16
REMARK   10  A    between atoms: C_16  and  C_17
REMARK   11  A    between atoms: C_17  and  N_18
REMARK   12  A    between atoms: N_18  and  C_19
REMARK   13  A    between atoms: C_35  and  O_36
REMARK                            x       y       z     vdW  Elec       q    Type
REMARK                         _______ _______ _______ _____ _____    ______ ____
ROOT
ATOM      1  C   UNL A   1      46.066 -19.136 -34.698  0.00  0.00    +0.012 C 
ENDROOT
BRANCH   1   4
ATOM      2  C   UNL A   1      43.846 -18.839 -33.657  0.00  0.00    +0.247 C 
ATOM      3  O   UNL A   1      44.298 -18.411 -32.602  0.00  0.00    -0.270 OA
ATOM      4  N   UNL A   1      44.619 -19.199 -34.738  0.00  0.00    -0.311 N 
ATOM      5  H   UNL A   1      44.176 -19.508 -35.562  0.00  0.00    +0.000 HD
BRANCH   2   7
ATOM      6  C   UNL A   1      41.661 -19.526 -32.803  0.00  0.00    -0.039 C 
ATOM      7  C   UNL A   1      42.389 -19.063 -33.837  0.00  0.00    +0.079 C 
BRANCH   6  10
ATOM      8  C   UNL A   1      38.538 -21.627 -32.946  0.00  0.00    +0.162 A 
ATOM      9  C   UNL A   1      39.884 -21.243 -32.932  0.00  0.00    -0.009 A 
ATOM     10  C   UNL A   1      40.239 -19.888 -32.840  0.00  0.00    -0.021 A 
ATOM     11  C   UNL A   1      39.239 -18.916 -32.745  0.00  0.00    -0.051 A 
ATOM     12  C   UNL A   1      37.895 -19.287 -32.757  0.00  0.00    -0.016 A 
ATOM     13  C   UNL A   1      37.552 -20.634 -32.856  0.00  0.00    +0.158 A 
BRANCH   8  15
ATOM     14  C   UNL A   1      38.580 -23.711 -34.108  0.00  0.00    +0.079 C 
ATOM     15  O   UNL A   1      38.089 -22.919 -33.037  0.00  0.00    -0.491 OA
ENDBRANCH   8  15
BRANCH  13  16
ATOM     16  O   UNL A   1      36.232 -21.000 -32.867  0.00  0.00    -0.503 OA
ATOM     17  H   UNL A   1      35.727 -20.908 -33.651  0.00  0.00    +0.000 HD
ENDBRANCH  13  16
ENDBRANCH   6  10
BRANCH   7  18
ATOM     18  C   UNL A   1      41.804 -18.898 -35.192  0.00  0.00    +0.165 C 
ATOM     19  C   UNL A   1      41.412 -17.511 -35.623  0.00  0.00    -0.001 C 
ATOM     20  O   UNL A   1      41.613 -19.881 -35.909  0.00  0.00    -0.292 OA
ENDBRANCH   7  18
ENDBRANCH   2   7
ENDBRANCH   1   4
BRANCH   1  21
ATOM     21  C   UNL A   1      46.696 -19.839 -35.899  0.00  0.00    -0.036 C 
BRANCH  21  22
ATOM     22  C   UNL A   1      47.059 -18.839 -36.996  0.00  0.00    -0.036 C 
BRANCH  22  23
ATOM     23  C   UNL A   1      47.256 -19.536 -38.343  0.00  0.00    +0.009 C 
BRANCH  23  24
ATOM     24  N   UNL A   1      46.908 -20.956 -38.195  0.00  0.00    -0.343 N 
ATOM     25  H   UNL A   1      47.120 -21.497 -37.400  0.00  0.00    +0.000 HD
BRANCH  24  26
ATOM     26  C   UNL A   1      46.224 -21.456 -39.346  0.00  0.00    +0.041 A 
ATOM     27  C   UNL A   1      44.867 -21.140 -39.564  0.00  0.00    -0.005 A 
ATOM     28  C   UNL A   1      44.273 -21.617 -40.736  0.00  0.00    +0.047 A 
ATOM     29  N   UNL A   1      44.949 -22.309 -41.684  0.00  0.00    -0.251 NA
ATOM     30  C   UNL A   1      46.243 -22.594 -41.483  0.00  0.00    +0.073 A 
ATOM     31  C   UNL A   1      46.915 -23.315 -42.462  0.00  0.00    -0.036 A 
ATOM     32  C   UNL A   1      48.258 -23.672 -42.327  0.00  0.00    -0.060 A 
ATOM     33  C   UNL A   1      48.951 -23.310 -41.180  0.00  0.00    -0.061 A 
ATOM     34  C   UNL A   1      48.294 -22.586 -40.187  0.00  0.00    -0.051 A 
ATOM     35  C   UNL A   1      46.938 -22.200 -40.325  0.00  0.00    +0.021 A 
ATOM     36  C   UNL A   1      42.828 -21.340 -41.066  0.00  0.00    -0.010 C 
ATOM     37  C   UNL A   1      41.993 -20.974 -39.845  0.00  0.00    -0.047 C 
ATOM     38  C   UNL A   1      42.700 -19.886 -39.053  0.00  0.00    -0.049 C 
ATOM     39  C   UNL A   1      44.050 -20.386 -38.540  0.00  0.00    -0.024 C 
ENDBRANCH  24  26
ENDBRANCH  23  24
ENDBRANCH  22  23
ENDBRANCH  21  22
ENDBRANCH   1  21
TORSDOF 11
ENDMDL
MODEL 2
REMARK VINA RESULT:    -7.899     15.719     18.395
REMARK INTER + INTRA:         -14.463
REMARK INTER:                 -13.279
REMARK INTRA:                  -1.184
REMARK UNBOUND:                -1.716
REMARK  Name = cpd336.pdb
REMARK  13 active torsions:
REMARK  status: ('A' for Active; 'I' for Inactive)
REMARK    1  A    between atoms: C_1  and  O_2
REMARK    2  A    between atoms: O_2  and  C_3
REMARK    3  A    between atoms: C_5  and  C_6
REMARK    4  A    between atoms: C_7  and  C_8
REMARK    5  A    between atoms: C_7  and  C_11
REMARK    6  A    between atoms: C_8  and  C_9
REMARK    7  A    between atoms: N_13  and  C_14
REMARK    8  A    between atoms: C_14  and  C_15
REMARK    9  A    between atoms: C_15  and  C_16
REMARK   10  A    between atoms: C_16  and  C_17
REMARK   11  A    between atoms: C_17  and  N_18
REMARK   12  A    between atoms: N_18  and  C_19
REMARK   13  A    between atoms: C_35  and  O_36
REMARK                            x       y       z     vdW  Elec       q    Type
REMARK                         _______ _______ _______ _____ _____    ______ ____
ROOT
ATOM      1  C   UNL A   1      32.999 -33.562 -29.632  0.00  0.00    +0.012 C 
ENDROOT
BRANCH   1   4
ATOM      2  C   UNL A   1      30.761 -32.762 -28.958  0.00  0.00    +0.247 C 
ATOM      3  O   UNL A   1      30.498 -33.766 -28.308  0.00  0.00    -0.270 OA
ATOM      4  N   UNL A   1      31.952 -32.560 -29.619  0.00  0.00    -0.311 N 
ATOM      5  H   UNL A   1      32.096 -31.711 -30.097  0.00  0.00    +0.000 HD
BRANCH   2   7
ATOM      6  C   UNL A   1      29.677 -30.704 -28.206  0.00  0.00    -0.039 C 
ATOM      7  C   UNL A   1      29.765 -31.675 -29.136  0.00  0.00    +0.079 C 
BRANCH   6  10
ATOM      8  C   UNL A   1      28.014 -27.405 -28.939  0.00  0.00    +0.162 A 
ATOM      9  C   UNL A   1      28.943 -28.452 -28.921  0.00  0.00    -0.009 A 
ATOM     10  C   UNL A   1      28.691 -29.618 -28.181  0.00  0.00    -0.021 A 
ATOM     11  C   UNL A   1      27.493 -29.740 -27.471  0.00  0.00    -0.051 A 
ATOM     12  C   UNL A   1      26.559 -28.704 -27.483  0.00  0.00    -0.016 A 
ATOM     13  C   UNL A   1      26.822 -27.548 -28.214  0.00  0.00    +0.158 A 
BRANCH   8  15
ATOM     14  C   UNL A   1      29.042 -25.255 -29.071  0.00  0.00    +0.079 C 
ATOM     15  O   UNL A   1      28.168 -26.228 -29.624  0.00  0.00    -0.491 OA
ENDBRANCH   8  15
BRANCH  13  16
ATOM     16  O   UNL A   1      25.906 -26.529 -28.228  0.00  0.00    -0.503 OA
ATOM     17  H   UNL A   1      25.875 -25.918 -27.518  0.00  0.00    +0.000 HD
ENDBRANCH  13  16
ENDBRANCH   6  10
BRANCH   7  18
ATOM     18  C   UNL A   1      28.803 -31.767 -30.263  0.00  0.00    +0.165 C 
ATOM     19  C   UNL A   1      29.188 -31.125 -31.568  0.00  0.00    -0.001 C 
ATOM     20  O   UNL A   1      27.711 -32.316 -30.104  0.00  0.00    -0.292 OA
ENDBRANCH   7  18
ENDBRANCH   2   7
ENDBRANCH   1   4
BRANCH   1  21
ATOM     21  C   UNL A   1      34.380 -32.934 -29.804  0.00  0.00    -0.036 C 
BRANCH  21  22
ATOM     22  C   UNL A   1      34.966 -33.256 -31.178  0.00  0.00    -0.036 C 
BRANCH  22  23
ATOM     23  C   UNL A   1      36.418 -33.723 -31.071  0.00  0.00    +0.009 C 
BRANCH  23  24
ATOM     24  N   UNL A   1      36.533 -35.051 -31.692  0.00  0.00    -0.343 N 
ATOM     25  H   UNL A   1      36.076 -35.313 -32.523  0.00  0.00    +0.000 HD
BRANCH  24  26
ATOM     26  C   UNL A   1      37.390 -35.913 -30.941  0.00  0.00    +0.041 A 
ATOM     27  C   UNL A   1      38.721 -36.134 -31.352  0.00  0.00    -0.005 A 
ATOM     28  C   UNL A   1      39.520 -36.946 -30.543  0.00  0.00    +0.047 A 
ATOM     29  N   UNL A   1      39.097 -37.475 -29.370  0.00  0.00    -0.251 NA
ATOM     30  C   UNL A   1      37.837 -37.251 -28.973  0.00  0.00    +0.073 A 
ATOM     31  C   UNL A   1      37.419 -37.812 -27.772  0.00  0.00    -0.036 A 
ATOM     32  C   UNL A   1      36.118 -37.647 -27.292  0.00  0.00    -0.060 A 
ATOM     33  C   UNL A   1      35.204 -36.909 -28.031  0.00  0.00    -0.061 A 
ATOM     34  C   UNL A   1      35.605 -36.337 -29.237  0.00  0.00    -0.051 A 
ATOM     35  C   UNL A   1      36.928 -36.482 -29.722  0.00  0.00    +0.021 A 
ATOM     36  C   UNL A   1      40.956 -37.249 -30.891  0.00  0.00    -0.010 C 
ATOM     37  C   UNL A   1      41.274 -37.040 -32.366  0.00  0.00    -0.047 C 
ATOM     38  C   UNL A   1      40.771 -35.674 -32.807  0.00  0.00    -0.049 C 
ATOM     39  C   UNL A   1      39.253 -35.587 -32.657  0.00  0.00    -0.024 C 
ENDBRANCH  24  26
ENDBRANCH  23  24
ENDBRANCH  22  23
ENDBRANCH  21  22
ENDBRANCH   1  21
TORSDOF 11
ENDMDL
MODEL 3
REMARK VINA RESULT:    -7.872      3.027      8.012
REMARK INTER + INTRA:         -14.419
REMARK INTER:                 -12.280
REMARK INTRA:                  -2.139
REMARK UNBOUND:                -1.716
REMARK  Name = cpd336.pdb
REMARK  13 active torsions:
REMARK  status: ('A' for Active; 'I' for Inactive)
REMARK    1  A    between atoms: C_1  and  O_2
REMARK    2  A    between atoms: O_2  and  C_3
REMARK    3  A    between atoms: C_5  and  C_6
REMARK    4  A    between atoms: C_7  and  C_8
REMARK    5  A    between atoms: C_7  and  C_11
REMARK    6  A    between atoms: C_8  and  C_9
REMARK    7  A    between atoms: N_13  and  C_14
REMARK    8  A    between atoms: C_14  and  C_15
REMARK    9  A    between atoms: C_15  and  C_16
REMARK   10  A    between atoms: C_16  and  C_17
REMARK   11  A    between atoms: C_17  and  N_18
REMARK   12  A    between atoms: N_18  and  C_19
REMARK   13  A    between atoms: C_35  and  O_36
REMARK                            x       y       z     vdW  Elec       q    Type
REMARK                         _______ _______ _______ _____ _____    ______ ____
ROOT
ATOM      1  C   UNL A   1      43.816 -18.319 -33.077  0.00  0.00    +0.012 C 
ENDROOT
BRANCH   1   4
ATOM      2  C   UNL A   1      45.274 -19.447 -34.721  0.00  0.00    +0.247 C 
ATOM      3  O   UNL A   1      45.597 -20.346 -33.955  0.00  0.00    -0.270 OA
ATOM      4  N   UNL A   1      44.403 -18.431 -34.397  0.00  0.00    -0.311 N 
ATOM      5  H   UNL A   1      44.173 -17.761 -35.081  0.00  0.00    +0.000 HD
BRANCH   2   7
ATOM      6  C   UNL A   1      45.289 -20.032 -37.095  0.00  0.00    -0.039 C 
ATOM      7  C   UNL A   1      45.858 -19.348 -36.083  0.00  0.00    +0.079 C 
BRANCH   6  10
ATOM      8  C   UNL A   1      47.041 -21.355 -40.155  0.00  0.00    +0.162 A 
ATOM      9  C   UNL A   1      46.564 -21.229 -38.845  0.00  0.00    -0.009 A 
ATOM     10  C   UNL A   1      45.792 -20.118 -38.471  0.00  0.00    -0.021 A 
ATOM     11  C   UNL A   1      45.482 -19.139 -39.420  0.00  0.00    -0.051 A 
ATOM     12  C   UNL A   1      45.951 -19.256 -40.728  0.00  0.00    -0.016 A 
ATOM     13  C   UNL A   1      46.723 -20.358 -41.088  0.00  0.00    +0.158 A 
BRANCH   8  15
ATOM     14  C   UNL A   1      49.200 -22.350 -40.364  0.00  0.00    +0.079 C 
ATOM     15  O   UNL A   1      47.804 -22.396 -40.617  0.00  0.00    -0.491 OA
ENDBRANCH   8  15
BRANCH  13  16
ATOM     16  O   UNL A   1      47.184 -20.475 -42.373  0.00  0.00    -0.503 OA
ATOM     17  H   UNL A   1      46.899 -19.870 -43.030  0.00  0.00    +0.000 HD
ENDBRANCH  13  16
ENDBRANCH   6  10
BRANCH   7  18
ATOM     18  C   UNL A   1      47.132 -18.605 -36.261  0.00  0.00    +0.165 C 
ATOM     19  C   UNL A   1      47.049 -17.143 -36.602  0.00  0.00    -0.001 C 
ATOM     20  O   UNL A   1      48.210 -19.194 -36.173  0.00  0.00    -0.292 OA
ENDBRANCH   7  18
ENDBRANCH   2   7
ENDBRANCH   1   4
BRANCH   1  21
ATOM     21  C   UNL A   1      42.449 -18.995 -33.007  0.00  0.00    -0.036 C 
BRANCH  21  22
ATOM     22  C   UNL A   1      41.599 -18.648 -34.228  0.00  0.00    -0.036 C 
BRANCH  22  23
ATOM     23  C   UNL A   1      40.146 -19.088 -34.041  0.00  0.00    +0.009 C 
BRANCH  23  24
ATOM     24  N   UNL A   1      39.537 -19.280 -35.364  0.00  0.00    -0.343 N 
ATOM     25  H   UNL A   1      39.073 -18.571 -35.867  0.00  0.00    +0.000 HD
BRANCH  24  26
ATOM     26  C   UNL A   1      39.700 -20.620 -35.833  0.00  0.00    +0.041 A 
ATOM     27  C   UNL A   1      39.017 -21.684 -35.209  0.00  0.00    -0.005 A 
ATOM     28  C   UNL A   1      39.180 -22.962 -35.752  0.00  0.00    +0.047 A 
ATOM     29  N   UNL A   1      39.906 -23.210 -36.867  0.00  0.00    -0.251 NA
ATOM     30  C   UNL A   1      40.542 -22.195 -37.468  0.00  0.00    +0.073 A 
ATOM     31  C   UNL A   1      41.292 -22.472 -38.605  0.00  0.00    -0.036 A 
ATOM     32  C   UNL A   1      42.001 -21.479 -39.283  0.00  0.00    -0.060 A 
ATOM     33  C   UNL A   1      41.972 -20.174 -38.813  0.00  0.00    -0.061 A 
ATOM     34  C   UNL A   1      41.224 -19.875 -37.675  0.00  0.00    -0.051 A 
ATOM     35  C   UNL A   1      40.484 -20.872 -36.993  0.00  0.00    +0.021 A 
ATOM     36  C   UNL A   1      38.498 -24.170 -35.160  0.00  0.00    -0.010 C 
ATOM     37  C   UNL A   1      38.073 -23.971 -33.711  0.00  0.00    -0.047 C 
ATOM     38  C   UNL A   1      37.310 -22.663 -33.579  0.00  0.00    -0.049 C 
ATOM     39  C   UNL A   1      38.202 -21.480 -33.953  0.00  0.00    -0.024 C 
ENDBRANCH  24  26
ENDBRANCH  23  24
ENDBRANCH  22  23
ENDBRANCH  21  22
ENDBRANCH   1  21
TORSDOF 11
ENDMDL
MODEL 4
REMARK VINA RESULT:    -7.762      1.545      1.902
REMARK INTER + INTRA:         -14.243
REMARK INTER:                 -11.600
REMARK INTRA:                  -2.643
REMARK UNBOUND:                -1.716
REMARK  Name = cpd336.pdb
REMARK  13 active torsions:
REMARK  status: ('A' for Active; 'I' for Inactive)
REMARK    1  A    between atoms: C_1  and  O_2
REMARK    2  A    between atoms: O_2  and  C_3
REMARK    3  A    between atoms: C_5  and  C_6
REMARK    4  A    between atoms: C_7  and  C_8
REMARK    5  A    between atoms: C_7  and  C_11
REMARK    6  A    between atoms: C_8  and  C_9
REMARK    7  A    between atoms: N_13  and  C_14
REMARK    8  A    between atoms: C_14  and  C_15
REMARK    9  A    between atoms: C_15  and  C_16
REMARK   10  A    between atoms: C_16  and  C_17
REMARK   11  A    between atoms: C_17  and  N_18
REMARK   12  A    between atoms: N_18  and  C_19
REMARK   13  A    between atoms: C_35  and  O_36
REMARK                            x       y       z     vdW  Elec       q    Type
REMARK                         _______ _______ _______ _____ _____    ______ ____
ROOT
ATOM      1  C   UNL A   1      45.807 -16.453 -35.639  0.00  0.00    +0.012 C 
ENDROOT
BRANCH   1   4
ATOM      2  C   UNL A   1      44.472 -18.008 -34.259  0.00  0.00    +0.247 C 
ATOM      3  O   UNL A   1      45.434 -18.402 -33.611  0.00  0.00    -0.270 OA
ATOM      4  N   UNL A   1      44.547 -17.054 -35.249  0.00  0.00    -0.311 N 
ATOM      5  H   UNL A   1      43.721 -16.771 -35.705  0.00  0.00    +0.000 HD
BRANCH   2   7
ATOM      6  C   UNL A   1      42.985 -19.923 -33.950  0.00  0.00    -0.039 C 
ATOM      7  C   UNL A   1      43.119 -18.587 -34.061  0.00  0.00    +0.079 C 
BRANCH   6  10
ATOM      8  C   UNL A   1      39.810 -21.679 -34.958  0.00  0.00    +0.162 A 
ATOM      9  C   UNL A   1      41.008 -20.959 -35.018  0.00  0.00    -0.009 A 
ATOM     10  C   UNL A   1      41.720 -20.659 -33.846  0.00  0.00    -0.021 A 
ATOM     11  C   UNL A   1      41.234 -21.099 -32.610  0.00  0.00    -0.051 A 
ATOM     12  C   UNL A   1      40.042 -21.818 -32.539  0.00  0.00    -0.016 A 
ATOM     13  C   UNL A   1      39.339 -22.105 -33.708  0.00  0.00    +0.158 A 
BRANCH   8  15
ATOM     14  C   UNL A   1      39.683 -22.679 -37.121  0.00  0.00    +0.079 C 
ATOM     15  O   UNL A   1      39.041 -22.019 -36.041  0.00  0.00    -0.491 OA
ENDBRANCH   8  15
BRANCH  13  16
ATOM     16  O   UNL A   1      38.168 -22.812 -33.639  0.00  0.00    -0.503 OA
ATOM     17  H   UNL A   1      38.077 -23.510 -33.020  0.00  0.00    +0.000 HD
ENDBRANCH  13  16
ENDBRANCH   6  10
BRANCH   7  18
ATOM     18  C   UNL A   1      41.941 -17.686 -34.128  0.00  0.00    +0.165 C 
ATOM     19  C   UNL A   1      41.367 -17.186 -32.830  0.00  0.00    -0.001 C 
ATOM     20  O   UNL A   1      41.436 -17.405 -35.215  0.00  0.00    -0.292 OA
ENDBRANCH   7  18
ENDBRANCH   2   7
ENDBRANCH   1   4
BRANCH   1  21
ATOM     21  C   UNL A   1      46.355 -17.072 -36.923  0.00  0.00    -0.036 C 
BRANCH  21  22
ATOM     22  C   UNL A   1      47.256 -18.268 -36.619  0.00  0.00    -0.036 C 
BRANCH  22  23
ATOM     23  C   UNL A   1      47.446 -19.153 -37.851  0.00  0.00    +0.009 C 
BRANCH  23  24
ATOM     24  N   UNL A   1      46.858 -20.472 -37.580  0.00  0.00    -0.343 N 
ATOM     25  H   UNL A   1      46.967 -20.962 -36.733  0.00  0.00    +0.000 HD
BRANCH  24  26
ATOM     26  C   UNL A   1      46.110 -20.958 -38.696  0.00  0.00    +0.041 A 
ATOM     27  C   UNL A   1      44.741 -20.645 -38.830  0.00  0.00    -0.005 A 
ATOM     28  C   UNL A   1      44.082 -21.106 -39.973  0.00  0.00    +0.047 A 
ATOM     29  N   UNL A   1      44.703 -21.781 -40.969  0.00  0.00    -0.251 NA
ATOM     30  C   UNL A   1      46.007 -22.064 -40.848  0.00  0.00    +0.073 A 
ATOM     31  C   UNL A   1      46.624 -22.766 -41.876  0.00  0.00    -0.036 A 
ATOM     32  C   UNL A   1      47.974 -23.120 -41.825  0.00  0.00    -0.060 A 
ATOM     33  C   UNL A   1      48.731 -22.772 -40.715  0.00  0.00    -0.061 A 
ATOM     34  C   UNL A   1      48.131 -22.065 -39.674  0.00  0.00    -0.051 A 
ATOM     35  C   UNL A   1      46.768 -21.684 -39.727  0.00  0.00    +0.021 A 
ATOM     36  C   UNL A   1      42.618 -20.831 -40.213  0.00  0.00    -0.010 C 
ATOM     37  C   UNL A   1      41.855 -20.486 -38.941  0.00  0.00    -0.047 C 
ATOM     38  C   UNL A   1      42.603 -19.408 -38.174  0.00  0.00    -0.049 C 
ATOM     39  C   UNL A   1      43.982 -19.909 -37.749  0.00  0.00    -0.024 C 
ENDBRANCH  24  26
ENDBRANCH  23  24
ENDBRANCH  22  23
ENDBRANCH  21  22
ENDBRANCH   1  21
TORSDOF 11
ENDMDL
MODEL 5
REMARK VINA RESULT:    -7.501      2.917      8.114
REMARK INTER + INTRA:         -13.821
REMARK INTER:                 -10.536
REMARK INTRA:                  -3.284
REMARK UNBOUND:                -1.716
REMARK  Name = cpd336.pdb
REMARK  13 active torsions:
REMARK  status: ('A' for Active; 'I' for Inactive)
REMARK    1  A    between atoms: C_1  and  O_2
REMARK    2  A    between atoms: O_2  and  C_3
REMARK    3  A    between atoms: C_5  and  C_6
REMARK    4  A    between atoms: C_7  and  C_8
REMARK    5  A    between atoms: C_7  and  C_11
REMARK    6  A    between atoms: C_8  and  C_9
REMARK    7  A    between atoms: N_13  and  C_14
REMARK    8  A    between atoms: C_14  and  C_15
REMARK    9  A    between atoms: C_15  and  C_16
REMARK   10  A    between atoms: C_16  and  C_17
REMARK   11  A    between atoms: C_17  and  N_18
REMARK   12  A    between atoms: N_18  and  C_19
REMARK   13  A    between atoms: C_35  and  O_36
REMARK                            x       y       z     vdW  Elec       q    Type
REMARK                         _______ _______ _______ _____ _____    ______ ____
ROOT
ATOM      1  C   UNL A   1      45.223 -18.017 -34.012  0.00  0.00    +0.012 C 
ENDROOT
BRANCH   1   4
ATOM      2  C   UNL A   1      44.905 -19.509 -35.955  0.00  0.00    +0.247 C 
ATOM      3  O   UNL A   1      44.481 -20.442 -35.284  0.00  0.00    -0.270 OA
ATOM      4  N   UNL A   1      45.272 -18.288 -35.435  0.00  0.00    -0.311 N 
ATOM      5  H   UNL A   1      45.576 -17.579 -36.046  0.00  0.00    +0.000 HD
BRANCH   2   7
ATOM      6  C   UNL A   1      44.657 -20.743 -38.051  0.00  0.00    -0.039 C 
ATOM      7  C   UNL A   1      45.115 -19.644 -37.419  0.00  0.00    +0.079 C 
BRANCH   6  10
ATOM      8  C   UNL A   1      46.323 -21.947 -41.206  0.00  0.00    +0.162 A 
ATOM      9  C   UNL A   1      46.100 -21.598 -39.870  0.00  0.00    -0.009 A 
ATOM     10  C   UNL A   1      44.862 -21.075 -39.465  0.00  0.00    -0.021 A 
ATOM     11  C   UNL A   1      43.838 -20.917 -40.404  0.00  0.00    -0.051 A 
ATOM     12  C   UNL A   1      44.048 -21.263 -41.739  0.00  0.00    -0.016 A 
ATOM     13  C   UNL A   1      45.283 -21.775 -42.131  0.00  0.00    +0.158 A 
BRANCH   8  15
ATOM     14  C   UNL A   1      48.423 -22.993 -40.769  0.00  0.00    +0.079 C 
ATOM     15  O   UNL A   1      47.493 -22.461 -41.701  0.00  0.00    -0.491 OA
ENDBRANCH   8  15
BRANCH  13  16
ATOM     16  O   UNL A   1      45.491 -22.116 -43.442  0.00  0.00    -0.503 OA
ATOM     17  H   UNL A   1      46.248 -22.614 -43.682  0.00  0.00    +0.000 HD
ENDBRANCH  13  16
ENDBRANCH   6  10
BRANCH   7  18
ATOM     18  C   UNL A   1      45.942 -18.629 -38.118  0.00  0.00    +0.165 C 
ATOM     19  C   UNL A   1      45.251 -17.705 -39.084  0.00  0.00    -0.001 C 
ATOM     20  O   UNL A   1      47.159 -18.587 -37.935  0.00  0.00    -0.292 OA
ENDBRANCH   7  18
ENDBRANCH   2   7
ENDBRANCH   1   4
BRANCH   1  21
ATOM     21  C   UNL A   1      44.598 -16.656 -33.716  0.00  0.00    -0.036 C 
BRANCH  21  22
ATOM     22  C   UNL A   1      43.388 -16.792 -32.793  0.00  0.00    -0.036 C 
BRANCH  22  23
ATOM     23  C   UNL A   1      42.872 -18.231 -32.758  0.00  0.00    +0.009 C 
BRANCH  23  24
ATOM     24  N   UNL A   1      41.468 -18.239 -33.192  0.00  0.00    -0.343 N 
ATOM     25  H   UNL A   1      40.770 -17.654 -32.816  0.00  0.00    +0.000 HD
BRANCH  24  26
ATOM     26  C   UNL A   1      41.238 -19.199 -34.225  0.00  0.00    +0.041 A 
ATOM     27  C   UNL A   1      41.379 -18.837 -35.581  0.00  0.00    -0.005 A 
ATOM     28  C   UNL A   1      41.193 -19.838 -36.539  0.00  0.00    +0.047 A 
ATOM     29  N   UNL A   1      40.944 -21.131 -36.226  0.00  0.00    -0.251 NA
ATOM     30  C   UNL A   1      40.826 -21.477 -34.936  0.00  0.00    +0.073 A 
ATOM     31  C   UNL A   1      40.559 -22.807 -34.635  0.00  0.00    -0.036 A 
ATOM     32  C   UNL A   1      40.402 -23.251 -33.321  0.00  0.00    -0.060 A 
ATOM     33  C   UNL A   1      40.505 -22.345 -32.275  0.00  0.00    -0.061 A 
ATOM     34  C   UNL A   1      40.774 -21.006 -32.556  0.00  0.00    -0.051 A 
ATOM     35  C   UNL A   1      40.956 -20.551 -33.885  0.00  0.00    +0.021 A 
ATOM     36  C   UNL A   1      41.317 -19.558 -38.016  0.00  0.00    -0.010 C 
ATOM     37  C   UNL A   1      41.151 -18.085 -38.365  0.00  0.00    -0.047 C 
ATOM     38  C   UNL A   1      42.045 -17.245 -37.466  0.00  0.00    -0.049 C 
ATOM     39  C   UNL A   1      41.641 -17.409 -36.002  0.00  0.00    -0.024 C 
ENDBRANCH  24  26
ENDBRANCH  23  24
ENDBRANCH  22  23
ENDBRANCH  21  22
ENDBRANCH   1  21
TORSDOF 11
ENDMDL
MODEL 6
REMARK VINA RESULT:    -7.477      1.968      2.420
REMARK INTER + INTRA:         -13.782
REMARK INTER:                 -11.336
REMARK INTRA:                  -2.446
REMARK UNBOUND:                -1.716
REMARK  Name = cpd336.pdb
REMARK  13 active torsions:
REMARK  status: ('A' for Active; 'I' for Inactive)
REMARK    1  A    between atoms: C_1  and  O_2
REMARK    2  A    between atoms: O_2  and  C_3
REMARK    3  A    between atoms: C_5  and  C_6
REMARK    4  A    between atoms: C_7  and  C_8
REMARK    5  A    between atoms: C_7  and  C_11
REMARK    6  A    between atoms: C_8  and  C_9
REMARK    7  A    between atoms: N_13  and  C_14
REMARK    8  A    between atoms: C_14  and  C_15
REMARK    9  A    between atoms: C_15  and  C_16
REMARK   10  A    between atoms: C_16  and  C_17
REMARK   11  A    between atoms: C_17  and  N_18
REMARK   12  A    between atoms: N_18  and  C_19
REMARK   13  A    between atoms: C_35  and  O_36
REMARK                            x       y       z     vdW  Elec       q    Type
REMARK                         _______ _______ _______ _____ _____    ______ ____
ROOT
ATOM      1  C   UNL A   1      46.225 -17.600 -34.368  0.00  0.00    +0.012 C 
ENDROOT
BRANCH   1   4
ATOM      2  C   UNL A   1      43.785 -17.985 -34.376  0.00  0.00    +0.247 C 
ATOM      3  O   UNL A   1      43.510 -16.828 -34.084  0.00  0.00    -0.270 OA
ATOM      4  N   UNL A   1      45.068 -18.453 -34.555  0.00  0.00    -0.311 N 
ATOM      5  H   UNL A   1      45.203 -19.392 -34.817  0.00  0.00    +0.000 HD
BRANCH   2   7
ATOM      6  C   UNL A   1      41.962 -19.319 -33.441  0.00  0.00    -0.039 C 
ATOM      7  C   UNL A   1      42.727 -19.019 -34.509  0.00  0.00    +0.079 C 
BRANCH   6  10
ATOM      8  C   UNL A   1      40.372 -22.683 -32.862  0.00  0.00    +0.162 A 
ATOM      9  C   UNL A   1      41.321 -21.659 -32.958  0.00  0.00    -0.009 A 
ATOM     10  C   UNL A   1      40.944 -20.374 -33.376  0.00  0.00    -0.021 A 
ATOM     11  C   UNL A   1      39.606 -20.111 -33.684  0.00  0.00    -0.051 A 
ATOM     12  C   UNL A   1      38.651 -21.124 -33.591  0.00  0.00    -0.016 A 
ATOM     13  C   UNL A   1      39.037 -22.399 -33.181  0.00  0.00    +0.158 A 
BRANCH   8  15
ATOM     14  C   UNL A   1      41.450 -24.148 -31.316  0.00  0.00    +0.079 C 
ATOM     15  O   UNL A   1      40.639 -23.969 -32.468  0.00  0.00    -0.491 OA
ENDBRANCH   8  15
BRANCH  13  16
ATOM     16  O   UNL A   1      38.101 -23.394 -33.089  0.00  0.00    -0.503 OA
ATOM     17  H   UNL A   1      38.372 -24.289 -33.027  0.00  0.00    +0.000 HD
ENDBRANCH  13  16
ENDBRANCH   6  10
BRANCH   7  18
ATOM     18  C   UNL A   1      42.636 -19.787 -35.776  0.00  0.00    +0.165 C 
ATOM     19  C   UNL A   1      41.536 -19.426 -36.737  0.00  0.00    -0.001 C 
ATOM     20  O   UNL A   1      43.415 -20.715 -35.997  0.00  0.00    -0.292 OA
ENDBRANCH   7  18
ENDBRANCH   2   7
ENDBRANCH   1   4
BRANCH   1  21
ATOM     21  C   UNL A   1      47.244 -17.775 -35.492  0.00  0.00    -0.036 C 
BRANCH  21  22
ATOM     22  C   UNL A   1      47.328 -19.234 -35.939  0.00  0.00    -0.036 C 
BRANCH  22  23
ATOM     23  C   UNL A   1      47.134 -19.366 -37.450  0.00  0.00    +0.009 C 
BRANCH  23  24
ATOM     24  N   UNL A   1      45.826 -19.987 -37.705  0.00  0.00    -0.343 N 
ATOM     25  H   UNL A   1      45.318 -20.498 -37.035  0.00  0.00    +0.000 HD
BRANCH  24  26
ATOM     26  C   UNL A   1      45.383 -19.756 -39.044  0.00  0.00    +0.041 A 
ATOM     27  C   UNL A   1      44.732 -18.552 -39.384  0.00  0.00    -0.005 A 
ATOM     28  C   UNL A   1      44.373 -18.368 -40.723  0.00  0.00    +0.047 A 
ATOM     29  N   UNL A   1      44.670 -19.255 -41.702  0.00  0.00    -0.251 NA
ATOM     30  C   UNL A   1      45.302 -20.392 -41.379  0.00  0.00    +0.073 A 
ATOM     31  C   UNL A   1      45.587 -21.295 -42.396  0.00  0.00    -0.036 A 
ATOM     32  C   UNL A   1      46.226 -22.511 -42.148  0.00  0.00    -0.060 A 
ATOM     33  C   UNL A   1      46.585 -22.844 -40.850  0.00  0.00    -0.061 A 
ATOM     34  C   UNL A   1      46.309 -21.950 -39.815  0.00  0.00    -0.051 A 
ATOM     35  C   UNL A   1      45.681 -20.705 -40.061  0.00  0.00    +0.021 A 
ATOM     36  C   UNL A   1      43.670 -17.119 -41.194  0.00  0.00    -0.010 C 
ATOM     37  C   UNL A   1      42.966 -16.367 -40.072  0.00  0.00    -0.047 C 
ATOM     38  C   UNL A   1      43.924 -16.174 -38.907  0.00  0.00    -0.049 C 
ATOM     39  C   UNL A   1      44.358 -17.526 -38.340  0.00  0.00    -0.024 C 
ENDBRANCH  24  26
ENDBRANCH  23  24
ENDBRANCH  22  23
ENDBRANCH  21  22
ENDBRANCH   1  21
TORSDOF 11
ENDMDL
MODEL 7
REMARK VINA RESULT:    -7.474      2.076      3.453
REMARK INTER + INTRA:         -13.777
REMARK INTER:                 -12.051
REMARK INTRA:                  -1.725
REMARK UNBOUND:                -1.716
REMARK  Name = cpd336.pdb
REMARK  13 active torsions:
REMARK  status: ('A' for Active; 'I' for Inactive)
REMARK    1  A    between atoms: C_1  and  O_2
REMARK    2  A    between atoms: O_2  and  C_3
REMARK    3  A    between atoms: C_5  and  C_6
REMARK    4  A    between atoms: C_7  and  C_8
REMARK    5  A    between atoms: C_7  and  C_11
REMARK    6  A    between atoms: C_8  and  C_9
REMARK    7  A    between atoms: N_13  and  C_14
REMARK    8  A    between atoms: C_14  and  C_15
REMARK    9  A    between atoms: C_15  and  C_16
REMARK   10  A    between atoms: C_16  and  C_17
REMARK   11  A    between atoms: C_17  and  N_18
REMARK   12  A    between atoms: N_18  and  C_19
REMARK   13  A    between atoms: C_35  and  O_36
REMARK                            x       y       z     vdW  Elec       q    Type
REMARK                         _______ _______ _______ _____ _____    ______ ____
ROOT
ATOM      1  C   UNL A   1      45.836 -20.075 -34.968  0.00  0.00    +0.012 C 
ENDROOT
BRANCH   1   4
ATOM      2  C   UNL A   1      43.677 -19.425 -33.958  0.00  0.00    +0.247 C 
ATOM      3  O   UNL A   1      44.192 -18.827 -33.021  0.00  0.00    -0.270 OA
ATOM      4  N   UNL A   1      44.387 -20.046 -34.962  0.00  0.00    -0.311 N 
ATOM      5  H   UNL A   1      43.897 -20.482 -35.696  0.00  0.00    +0.000 HD
BRANCH   2   7
ATOM      6  C   UNL A   1      41.492 -19.838 -32.942  0.00  0.00    -0.039 C 
ATOM      7  C   UNL A   1      42.204 -19.580 -34.057  0.00  0.00    +0.079 C 
BRANCH   6  10
ATOM      8  C   UNL A   1      38.244 -21.740 -32.845  0.00  0.00    +0.162 A 
ATOM      9  C   UNL A   1      39.608 -21.442 -32.925  0.00  0.00    -0.009 A 
ATOM     10  C   UNL A   1      40.052 -20.111 -32.880  0.00  0.00    -0.021 A 
ATOM     11  C   UNL A   1      39.122 -19.077 -32.736  0.00  0.00    -0.051 A 
ATOM     12  C   UNL A   1      37.760 -19.362 -32.654  0.00  0.00    -0.016 A 
ATOM     13  C   UNL A   1      37.329 -20.687 -32.707  0.00  0.00    +0.158 A 
BRANCH   8  15
ATOM     14  C   UNL A   1      38.205 -23.894 -33.871  0.00  0.00    +0.079 C 
ATOM     15  O   UNL A   1      37.711 -23.002 -32.883  0.00  0.00    -0.491 OA
ENDBRANCH   8  15
BRANCH  13  16
ATOM     16  O   UNL A   1      35.991 -20.969 -32.625  0.00  0.00    -0.503 OA
ATOM     17  H   UNL A   1      35.635 -21.695 -33.099  0.00  0.00    +0.000 HD
ENDBRANCH  13  16
ENDBRANCH   6  10
BRANCH   7  18
ATOM     18  C   UNL A   1      41.576 -19.582 -35.403  0.00  0.00    +0.165 C 
ATOM     19  C   UNL A   1      41.006 -18.286 -35.912  0.00  0.00    -0.001 C 
ATOM     20  O   UNL A   1      41.492 -20.628 -36.047  0.00  0.00    -0.292 OA
ENDBRANCH   7  18
ENDBRANCH   2   7
ENDBRANCH   1   4
BRANCH   1  21
ATOM     21  C   UNL A   1      46.394 -20.183 -36.385  0.00  0.00    -0.036 C 
BRANCH  21  22
ATOM     22  C   UNL A   1      47.362 -19.040 -36.686  0.00  0.00    -0.036 C 
BRANCH  22  23
ATOM     23  C   UNL A   1      46.756 -18.039 -37.670  0.00  0.00    +0.009 C 
BRANCH  23  24
ATOM     24  N   UNL A   1      47.363 -18.251 -38.992  0.00  0.00    -0.343 N 
ATOM     25  H   UNL A   1      48.330 -18.198 -39.171  0.00  0.00    +0.000 HD
BRANCH  24  26
ATOM     26  C   UNL A   1      46.379 -18.543 -39.986  0.00  0.00    +0.041 A 
ATOM     27  C   UNL A   1      46.194 -19.865 -40.443  0.00  0.00    -0.005 A 
ATOM     28  C   UNL A   1      45.178 -20.089 -41.376  0.00  0.00    +0.047 A 
ATOM     29  N   UNL A   1      44.338 -19.119 -41.810  0.00  0.00    -0.251 NA
ATOM     30  C   UNL A   1      44.505 -17.867 -41.363  0.00  0.00    +0.073 A 
ATOM     31  C   UNL A   1      43.641 -16.884 -41.828  0.00  0.00    -0.036 A 
ATOM     32  C   UNL A   1      43.753 -15.550 -41.430  0.00  0.00    -0.060 A 
ATOM     33  C   UNL A   1      44.759 -15.182 -40.549  0.00  0.00    -0.061 A 
ATOM     34  C   UNL A   1      45.636 -16.154 -40.069  0.00  0.00    -0.051 A 
ATOM     35  C   UNL A   1      45.516 -17.512 -40.451  0.00  0.00    +0.021 A 
ATOM     36  C   UNL A   1      44.898 -21.463 -41.933  0.00  0.00    -0.010 C 
ATOM     37  C   UNL A   1      46.077 -22.417 -41.798  0.00  0.00    -0.047 C 
ATOM     38  C   UNL A   1      46.596 -22.387 -40.369  0.00  0.00    -0.049 C 
ATOM     39  C   UNL A   1      47.105 -20.991 -40.012  0.00  0.00    -0.024 C 
ENDBRANCH  24  26
ENDBRANCH  23  24
ENDBRANCH  22  23
ENDBRANCH  21  22
ENDBRANCH   1  21
TORSDOF 11
ENDMDL
MODEL 8
REMARK VINA RESULT:    -7.409      2.122      4.142
REMARK INTER + INTRA:         -13.673
REMARK INTER:                 -10.939
REMARK INTRA:                  -2.734
REMARK UNBOUND:                -1.716
REMARK  Name = cpd336.pdb
REMARK  13 active torsions:
REMARK  status: ('A' for Active; 'I' for Inactive)
REMARK    1  A    between atoms: C_1  and  O_2
REMARK    2  A    between atoms: O_2  and  C_3
REMARK    3  A    between atoms: C_5  and  C_6
REMARK    4  A    between atoms: C_7  and  C_8
REMARK    5  A    between atoms: C_7  and  C_11
REMARK    6  A    between atoms: C_8  and  C_9
REMARK    7  A    between atoms: N_13  and  C_14
REMARK    8  A    between atoms: C_14  and  C_15
REMARK    9  A    between atoms: C_15  and  C_16
REMARK   10  A    between atoms: C_16  and  C_17
REMARK   11  A    between atoms: C_17  and  N_18
REMARK   12  A    between atoms: N_18  and  C_19
REMARK   13  A    between atoms: C_35  and  O_36
REMARK                            x       y       z     vdW  Elec       q    Type
REMARK                         _______ _______ _______ _____ _____    ______ ____
ROOT
ATOM      1  C   UNL A   1      45.230 -17.104 -34.537  0.00  0.00    +0.012 C 
ENDROOT
BRANCH   1   4
ATOM      2  C   UNL A   1      43.164 -17.754 -33.350  0.00  0.00    +0.247 C 
ATOM      3  O   UNL A   1      43.177 -16.781 -32.606  0.00  0.00    -0.270 OA
ATOM      4  N   UNL A   1      44.103 -17.990 -34.330  0.00  0.00    -0.311 N 
ATOM      5  H   UNL A   1      44.005 -18.782 -34.906  0.00  0.00    +0.000 HD
BRANCH   2   7
ATOM      6  C   UNL A   1      42.412 -20.061 -33.647  0.00  0.00    -0.039 C 
ATOM      7  C   UNL A   1      42.136 -18.816 -33.212  0.00  0.00    +0.079 C 
BRANCH   6  10
ATOM      8  C   UNL A   1      40.593 -23.180 -32.577  0.00  0.00    +0.162 A 
ATOM      9  C   UNL A   1      41.482 -22.100 -32.598  0.00  0.00    -0.009 A 
ATOM     10  C   UNL A   1      41.482 -21.195 -33.671  0.00  0.00    -0.021 A 
ATOM     11  C   UNL A   1      40.572 -21.366 -34.719  0.00  0.00    -0.051 A 
ATOM     12  C   UNL A   1      39.680 -22.438 -34.708  0.00  0.00    -0.016 A 
ATOM     13  C   UNL A   1      39.694 -23.335 -33.641  0.00  0.00    +0.158 A 
BRANCH   8  15
ATOM     14  C   UNL A   1      41.663 -24.300 -30.762  0.00  0.00    +0.079 C 
ATOM     15  O   UNL A   1      40.517 -24.118 -31.580  0.00  0.00    -0.491 OA
ENDBRANCH   8  15
BRANCH  13  16
ATOM     16  O   UNL A   1      38.818 -24.388 -33.628  0.00  0.00    -0.503 OA
ATOM     17  H   UNL A   1      37.953 -24.283 -33.974  0.00  0.00    +0.000 HD
ENDBRANCH  13  16
ENDBRANCH   6  10
BRANCH   7  18
ATOM     18  C   UNL A   1      40.785 -18.442 -32.722  0.00  0.00    +0.165 C 
ATOM     19  C   UNL A   1      39.836 -17.806 -33.701  0.00  0.00    -0.001 C 
ATOM     20  O   UNL A   1      40.483 -18.614 -31.540  0.00  0.00    -0.292 OA
ENDBRANCH   7  18
ENDBRANCH   2   7
ENDBRANCH   1   4
BRANCH   1  21
ATOM     21  C   UNL A   1      45.891 -17.336 -35.894  0.00  0.00    -0.036 C 
BRANCH  21  22
ATOM     22  C   UNL A   1      46.571 -18.704 -35.950  0.00  0.00    -0.036 C 
BRANCH  22  23
ATOM     23  C   UNL A   1      45.963 -19.586 -37.040  0.00  0.00    +0.009 C 
BRANCH  23  24
ATOM     24  N   UNL A   1      45.468 -18.725 -38.123  0.00  0.00    -0.343 N 
ATOM     25  H   UNL A   1      45.789 -17.809 -38.290  0.00  0.00    +0.000 HD
BRANCH  24  26
ATOM     26  C   UNL A   1      44.466 -19.378 -38.904  0.00  0.00    +0.041 A 
ATOM     27  C   UNL A   1      44.825 -20.147 -40.030  0.00  0.00    -0.005 A 
ATOM     28  C   UNL A   1      43.800 -20.804 -40.718  0.00  0.00    +0.047 A 
ATOM     29  N   UNL A   1      42.505 -20.781 -40.322  0.00  0.00    -0.251 NA
ATOM     30  C   UNL A   1      42.168 -20.063 -39.242  0.00  0.00    +0.073 A 
ATOM     31  C   UNL A   1      40.832 -20.043 -38.859  0.00  0.00    -0.036 A 
ATOM     32  C   UNL A   1      40.389 -19.307 -37.758  0.00  0.00    -0.060 A 
ATOM     33  C   UNL A   1      41.298 -18.561 -37.023  0.00  0.00    -0.061 A 
ATOM     34  C   UNL A   1      42.643 -18.569 -37.390  0.00  0.00    -0.051 A 
ATOM     35  C   UNL A   1      43.105 -19.330 -38.492  0.00  0.00    +0.021 A 
ATOM     36  C   UNL A   1      44.074 -21.649 -41.936  0.00  0.00    -0.010 C 
ATOM     37  C   UNL A   1      45.398 -21.317 -42.612  0.00  0.00    -0.047 C 
ATOM     38  C   UNL A   1      46.508 -21.293 -41.574  0.00  0.00    -0.049 C 
ATOM     39  C   UNL A   1      46.249 -20.203 -40.535  0.00  0.00    -0.024 C 
ENDBRANCH  24  26
ENDBRANCH  23  24
ENDBRANCH  22  23
ENDBRANCH  21  22
ENDBRANCH   1  21
TORSDOF 11
ENDMDL
MODEL 9
REMARK VINA RESULT:    -7.159     16.526     20.723
REMARK INTER + INTRA:         -13.269
REMARK INTER:                 -11.018
REMARK INTRA:                  -2.251
REMARK UNBOUND:                -1.716
REMARK  Name = cpd336.pdb
REMARK  13 active torsions:
REMARK  status: ('A' for Active; 'I' for Inactive)
REMARK    1  A    between atoms: C_1  and  O_2
REMARK    2  A    between atoms: O_2  and  C_3
REMARK    3  A    between atoms: C_5  and  C_6
REMARK    4  A    between atoms: C_7  and  C_8
REMARK    5  A    between atoms: C_7  and  C_11
REMARK    6  A    between atoms: C_8  and  C_9
REMARK    7  A    between atoms: N_13  and  C_14
REMARK    8  A    between atoms: C_14  and  C_15
REMARK    9  A    between atoms: C_15  and  C_16
REMARK   10  A    between atoms: C_16  and  C_17
REMARK   11  A    between atoms: C_17  and  N_18
REMARK   12  A    between atoms: N_18  and  C_19
REMARK   13  A    between atoms: C_35  and  O_36
REMARK                            x       y       z     vdW  Elec       q    Type
REMARK                         _______ _______ _______ _____ _____    ______ ____
ROOT
ATOM      1  C   UNL A   1      31.933 -38.431 -27.159  0.00  0.00    +0.012 C 
ENDROOT
BRANCH   1   4
ATOM      2  C   UNL A   1      34.284 -39.163 -27.346  0.00  0.00    +0.247 C 
ATOM      3  O   UNL A   1      34.281 -39.752 -26.272  0.00  0.00    -0.270 OA
ATOM      4  N   UNL A   1      33.192 -38.510 -27.872  0.00  0.00    -0.311 N 
ATOM      5  H   UNL A   1      33.268 -38.084 -28.756  0.00  0.00    +0.000 HD
BRANCH   2   7
ATOM      6  C   UNL A   1      36.236 -37.917 -28.131  0.00  0.00    -0.039 C 
ATOM      7  C   UNL A   1      35.519 -39.058 -28.165  0.00  0.00    +0.079 C 
BRANCH   6  10
ATOM      8  C   UNL A   1      38.382 -36.494 -30.878  0.00  0.00    +0.162 A 
ATOM      9  C   UNL A   1      37.272 -36.821 -30.092  0.00  0.00    -0.009 A 
ATOM     10  C   UNL A   1      37.419 -37.615 -28.944  0.00  0.00    -0.021 A 
ATOM     11  C   UNL A   1      38.689 -38.069 -28.575  0.00  0.00    -0.051 A 
ATOM     12  C   UNL A   1      39.803 -37.748 -29.350  0.00  0.00    -0.016 A 
ATOM     13  C   UNL A   1      39.645 -36.965 -30.492  0.00  0.00    +0.158 A 
BRANCH   8  15
ATOM     14  C   UNL A   1      38.364 -34.319 -31.861  0.00  0.00    +0.079 C 
ATOM     15  O   UNL A   1      38.344 -35.731 -32.016  0.00  0.00    -0.491 OA
ENDBRANCH   8  15
BRANCH  13  16
ATOM     16  O   UNL A   1      40.739 -36.648 -31.254  0.00  0.00    -0.503 OA
ATOM     17  H   UNL A   1      41.572 -37.029 -31.059  0.00  0.00    +0.000 HD
ENDBRANCH  13  16
ENDBRANCH   6  10
BRANCH   7  18
ATOM     18  C   UNL A   1      35.852 -40.162 -29.099  0.00  0.00    +0.165 C 
ATOM     19  C   UNL A   1      36.655 -41.316 -28.563  0.00  0.00    -0.001 C 
ATOM     20  O   UNL A   1      35.514 -40.098 -30.281  0.00  0.00    -0.292 OA
ENDBRANCH   7  18
ENDBRANCH   2   7
ENDBRANCH   1   4
BRANCH   1  21
ATOM     21  C   UNL A   1      31.956 -37.342 -26.088  0.00  0.00    -0.036 C 
BRANCH  21  22
ATOM     22  C   UNL A   1      32.771 -36.134 -26.547  0.00  0.00    -0.036 C 
BRANCH  22  23
ATOM     23  C   UNL A   1      31.975 -35.257 -27.514  0.00  0.00    +0.009 C 
BRANCH  23  24
ATOM     24  N   UNL A   1      32.917 -34.486 -28.337  0.00  0.00    -0.343 N 
ATOM     25  H   UNL A   1      33.786 -34.152 -28.016  0.00  0.00    +0.000 HD
BRANCH  24  26
ATOM     26  C   UNL A   1      32.419 -34.282 -29.661  0.00  0.00    +0.041 A 
ATOM     27  C   UNL A   1      31.628 -33.153 -29.961  0.00  0.00    -0.005 A 
ATOM     28  C   UNL A   1      31.219 -32.985 -31.287  0.00  0.00    +0.047 A 
ATOM     29  N   UNL A   1      31.591 -33.815 -32.291  0.00  0.00    -0.251 NA
ATOM     30  C   UNL A   1      32.354 -34.879 -32.007  0.00  0.00    +0.073 A 
ATOM     31  C   UNL A   1      32.715 -35.724 -33.049  0.00  0.00    -0.036 A 
ATOM     32  C   UNL A   1      33.493 -36.865 -32.841  0.00  0.00    -0.060 A 
ATOM     33  C   UNL A   1      33.918 -37.179 -31.558  0.00  0.00    -0.061 A 
ATOM     34  C   UNL A   1      33.568 -36.343 -30.499  0.00  0.00    -0.051 A 
ATOM     35  C   UNL A   1      32.797 -35.172 -30.704  0.00  0.00    +0.021 A 
ATOM     36  C   UNL A   1      30.369 -31.816 -31.716  0.00  0.00    -0.010 C 
ATOM     37  C   UNL A   1      29.612 -31.169 -30.563  0.00  0.00    -0.047 C 
ATOM     38  C   UNL A   1      30.570 -30.892 -29.416  0.00  0.00    -0.049 C 
ATOM     39  C   UNL A   1      31.166 -32.196 -28.887  0.00  0.00    -0.024 C 
ENDBRANCH  24  26
ENDBRANCH  23  24
ENDBRANCH  22  23
ENDBRANCH  21  22
ENDBRANCH   1  21
TORSDOF 11
ENDMDL
MODEL 10
REMARK VINA RESULT:    -7.146      2.636      5.508
REMARK INTER + INTRA:         -13.248
REMARK INTER:                 -10.705
REMARK INTRA:                  -2.543
REMARK UNBOUND:                -1.716
REMARK  Name = cpd336.pdb
REMARK  13 active torsions:
REMARK  status: ('A' for Active; 'I' for Inactive)
REMARK    1  A    between atoms: C_1  and  O_2
REMARK    2  A    between atoms: O_2  and  C_3
REMARK    3  A    between atoms: C_5  and  C_6
REMARK    4  A    between atoms: C_7  and  C_8
REMARK    5  A    between atoms: C_7  and  C_11
REMARK    6  A    between atoms: C_8  and  C_9
REMARK    7  A    between atoms: N_13  and  C_14
REMARK    8  A    between atoms: C_14  and  C_15
REMARK    9  A    between atoms: C_15  and  C_16
REMARK   10  A    between atoms: C_16  and  C_17
REMARK   11  A    between atoms: C_17  and  N_18
REMARK   12  A    between atoms: N_18  and  C_19
REMARK   13  A    between atoms: C_35  and  O_36
REMARK                            x       y       z     vdW  Elec       q    Type
REMARK                         _______ _______ _______ _____ _____    ______ ____
ROOT
ATOM      1  C   UNL A   1      43.682 -21.228 -40.740  0.00  0.00    +0.012 C 
ENDROOT
BRANCH   1   4
ATOM      2  C   UNL A   1      42.524 -20.025 -38.920  0.00  0.00    +0.247 C 
ATOM      3  O   UNL A   1      42.910 -18.920 -39.282  0.00  0.00    -0.270 OA
ATOM      4  N   UNL A   1      42.827 -21.201 -39.570  0.00  0.00    -0.311 N 
ATOM      5  H   UNL A   1      42.453 -22.046 -39.231  0.00  0.00    +0.000 HD
BRANCH   2   7
ATOM      6  C   UNL A   1      42.245 -20.873 -36.644  0.00  0.00    -0.039 C 
ATOM      7  C   UNL A   1      41.720 -20.194 -37.683  0.00  0.00    +0.079 C 
BRANCH   6  10
ATOM      8  C   UNL A   1      40.211 -22.789 -34.120  0.00  0.00    +0.162 A 
ATOM      9  C   UNL A   1      40.861 -22.425 -35.304  0.00  0.00    -0.009 A 
ATOM     10  C   UNL A   1      41.556 -21.209 -35.394  0.00  0.00    -0.021 A 
ATOM     11  C   UNL A   1      41.612 -20.362 -34.283  0.00  0.00    -0.051 A 
ATOM     12  C   UNL A   1      40.969 -20.714 -33.097  0.00  0.00    -0.016 A 
ATOM     13  C   UNL A   1      40.276 -21.921 -33.021  0.00  0.00    +0.158 A 
BRANCH   8  15
ATOM     14  C   UNL A   1      38.160 -23.979 -34.389  0.00  0.00    +0.079 C 
ATOM     15  O   UNL A   1      39.505 -23.949 -33.934  0.00  0.00    -0.491 OA
ENDBRANCH   8  15
BRANCH  13  16
ATOM     16  O   UNL A   1      39.644 -22.269 -31.856  0.00  0.00    -0.503 OA
ATOM     17  H   UNL A   1      38.724 -22.446 -31.856  0.00  0.00    +0.000 HD
ENDBRANCH  13  16
ENDBRANCH   6  10
BRANCH   7  18
ATOM     18  C   UNL A   1      40.311 -19.726 -37.678  0.00  0.00    +0.165 C 
ATOM     19  C   UNL A   1      39.281 -20.596 -38.345  0.00  0.00    -0.001 C 
ATOM     20  O   UNL A   1      40.020 -18.638 -37.178  0.00  0.00    -0.292 OA
ENDBRANCH   7  18
ENDBRANCH   2   7
ENDBRANCH   1   4
BRANCH   1  21
ATOM     21  C   UNL A   1      45.143 -21.468 -40.368  0.00  0.00    -0.036 C 
BRANCH  21  22
ATOM     22  C   UNL A   1      46.079 -20.633 -41.241  0.00  0.00    -0.036 C 
BRANCH  22  23
ATOM     23  C   UNL A   1      46.831 -19.590 -40.415  0.00  0.00    +0.009 C 
BRANCH  23  24
ATOM     24  N   UNL A   1      45.857 -18.653 -39.837  0.00  0.00    -0.343 N 
ATOM     25  H   UNL A   1      44.927 -18.563 -40.147  0.00  0.00    +0.000 HD
BRANCH  24  26
ATOM     26  C   UNL A   1      46.425 -17.888 -38.772  0.00  0.00    +0.041 A 
ATOM     27  C   UNL A   1      47.038 -16.644 -39.033  0.00  0.00    -0.005 A 
ATOM     28  C   UNL A   1      47.525 -15.923 -37.939  0.00  0.00    +0.047 A 
ATOM     29  N   UNL A   1      47.385 -16.332 -36.656  0.00  0.00    -0.251 NA
ATOM     30  C   UNL A   1      46.789 -17.507 -36.409  0.00  0.00    +0.073 A 
ATOM     31  C   UNL A   1      46.665 -17.914 -35.086  0.00  0.00    -0.036 A 
ATOM     32  C   UNL A   1      46.075 -19.131 -34.739  0.00  0.00    -0.060 A 
ATOM     33  C   UNL A   1      45.601 -19.971 -35.736  0.00  0.00    -0.061 A 
ATOM     34  C   UNL A   1      45.714 -19.579 -37.069  0.00  0.00    -0.051 A 
ATOM     35  C   UNL A   1      46.292 -18.338 -37.430  0.00  0.00    +0.021 A 
ATOM     36  C   UNL A   1      48.200 -14.584 -38.105  0.00  0.00    -0.010 C 
ATOM     37  C   UNL A   1      48.737 -14.353 -39.512  0.00  0.00    -0.047 C 
ATOM     38  C   UNL A   1      47.652 -14.666 -40.529  0.00  0.00    -0.049 C 
ATOM     39  C   UNL A   1      47.240 -16.135 -40.441  0.00  0.00    -0.024 C 
ENDBRANCH  24  26
ENDBRANCH  23  24
ENDBRANCH  22  23
ENDBRANCH  21  22
ENDBRANCH   1  21
TORSDOF 11
ENDMDL
MODEL 11
REMARK VINA RESULT:    -7.100      2.596      5.085
REMARK INTER + INTRA:         -13.174
REMARK INTER:                 -11.065
REMARK INTRA:                  -2.109
REMARK UNBOUND:                -1.716
REMARK  Name = cpd336.pdb
REMARK  13 active torsions:
REMARK  status: ('A' for Active; 'I' for Inactive)
REMARK    1  A    between atoms: C_1  and  O_2
REMARK    2  A    between atoms: O_2  and  C_3
REMARK    3  A    between atoms: C_5  and  C_6
REMARK    4  A    between atoms: C_7  and  C_8
REMARK    5  A    between atoms: C_7  and  C_11
REMARK    6  A    between atoms: C_8  and  C_9
REMARK    7  A    between atoms: N_13  and  C_14
REMARK    8  A    between atoms: C_14  and  C_15
REMARK    9  A    between atoms: C_15  and  C_16
REMARK   10  A    between atoms: C_16  and  C_17
REMARK   11  A    between atoms: C_17  and  N_18
REMARK   12  A    between atoms: N_18  and  C_19
REMARK   13  A    between atoms: C_35  and  O_36
REMARK                            x       y       z     vdW  Elec       q    Type
REMARK                         _______ _______ _______ _____ _____    ______ ____
ROOT
ATOM      1  C   UNL A   1      43.859 -20.287 -40.592  0.00  0.00    +0.012 C 
ENDROOT
BRANCH   1   4
ATOM      2  C   UNL A   1      42.650 -20.318 -38.438  0.00  0.00    +0.247 C 
ATOM      3  O   UNL A   1      43.411 -19.526 -37.896  0.00  0.00    -0.270 OA
ATOM      4  N   UNL A   1      42.771 -20.734 -39.745  0.00  0.00    -0.311 N 
ATOM      5  H   UNL A   1      42.100 -21.353 -40.114  0.00  0.00    +0.000 HD
BRANCH   2   7
ATOM      6  C   UNL A   1      41.384 -20.679 -36.378  0.00  0.00    -0.039 C 
ATOM      7  C   UNL A   1      41.538 -20.954 -37.688  0.00  0.00    +0.079 C 
BRANCH   6  10
ATOM      8  C   UNL A   1      39.876 -23.003 -33.828  0.00  0.00    +0.162 A 
ATOM      9  C   UNL A   1      40.779 -22.409 -34.716  0.00  0.00    -0.009 A 
ATOM     10  C   UNL A   1      40.402 -21.290 -35.475  0.00  0.00    -0.021 A 
ATOM     11  C   UNL A   1      39.118 -20.756 -35.330  0.00  0.00    -0.051 A 
ATOM     12  C   UNL A   1      38.210 -21.340 -34.447  0.00  0.00    -0.016 A 
ATOM     13  C   UNL A   1      38.592 -22.454 -33.702  0.00  0.00    +0.158 A 
BRANCH   8  15
ATOM     14  C   UNL A   1      41.186 -23.979 -32.088  0.00  0.00    +0.079 C 
ATOM     15  O   UNL A   1      40.145 -24.097 -33.047  0.00  0.00    -0.491 OA
ENDBRANCH   8  15
BRANCH  13  16
ATOM     16  O   UNL A   1      37.701 -23.029 -32.834  0.00  0.00    -0.503 OA
ATOM     17  H   UNL A   1      37.412 -23.909 -32.973  0.00  0.00    +0.000 HD
ENDBRANCH  13  16
ENDBRANCH   6  10
BRANCH   7  18
ATOM     18  C   UNL A   1      40.710 -21.979 -38.373  0.00  0.00    +0.165 C 
ATOM     19  C   UNL A   1      39.378 -21.551 -38.924  0.00  0.00    -0.001 C 
ATOM     20  O   UNL A   1      41.098 -23.147 -38.438  0.00  0.00    -0.292 OA
ENDBRANCH   7  18
ENDBRANCH   2   7
ENDBRANCH   1   4
BRANCH   1  21
ATOM     21  C   UNL A   1      44.768 -21.443 -41.002  0.00  0.00    -0.036 C 
BRANCH  21  22
ATOM     22  C   UNL A   1      46.241 -21.078 -40.820  0.00  0.00    -0.036 C 
BRANCH  22  23
ATOM     23  C   UNL A   1      46.523 -20.591 -39.398  0.00  0.00    +0.009 C 
BRANCH  23  24
ATOM     24  N   UNL A   1      47.308 -19.350 -39.472  0.00  0.00    -0.343 N 
ATOM     25  H   UNL A   1      48.148 -19.258 -39.978  0.00  0.00    +0.000 HD
BRANCH  24  26
ATOM     26  C   UNL A   1      46.704 -18.296 -38.721  0.00  0.00    +0.041 A 
ATOM     27  C   UNL A   1      45.839 -17.375 -39.350  0.00  0.00    -0.005 A 
ATOM     28  C   UNL A   1      45.239 -16.401 -38.546  0.00  0.00    +0.047 A 
ATOM     29  N   UNL A   1      45.404 -16.338 -37.204  0.00  0.00    -0.251 NA
ATOM     30  C   UNL A   1      46.214 -17.223 -36.606  0.00  0.00    +0.073 A 
ATOM     31  C   UNL A   1      46.380 -17.135 -35.229  0.00  0.00    -0.036 A 
ATOM     32  C   UNL A   1      47.218 -18.003 -34.528  0.00  0.00    -0.060 A 
ATOM     33  C   UNL A   1      47.920 -18.982 -35.216  0.00  0.00    -0.061 A 
ATOM     34  C   UNL A   1      47.767 -19.088 -36.598  0.00  0.00    -0.051 A 
ATOM     35  C   UNL A   1      46.902 -18.226 -37.315  0.00  0.00    +0.021 A 
ATOM     36  C   UNL A   1      44.301 -15.367 -39.117  0.00  0.00    -0.010 C 
ATOM     37  C   UNL A   1      44.468 -15.167 -40.617  0.00  0.00    -0.047 C 
ATOM     38  C   UNL A   1      44.452 -16.516 -41.317  0.00  0.00    -0.049 C 
ATOM     39  C   UNL A   1      45.622 -17.379 -40.845  0.00  0.00    -0.024 C 
ENDBRANCH  24  26
ENDBRANCH  23  24
ENDBRANCH  22  23
ENDBRANCH  21  22
ENDBRANCH   1  21
TORSDOF 11
ENDMDL
MODEL 12
REMARK VINA RESULT:    -7.076      2.125      3.852
REMARK INTER + INTRA:         -13.135
REMARK INTER:                 -11.500
REMARK INTRA:                  -1.635
REMARK UNBOUND:                -1.716
REMARK  Name = cpd336.pdb
REMARK  13 active torsions:
REMARK  status: ('A' for Active; 'I' for Inactive)
REMARK    1  A    between atoms: C_1  and  O_2
REMARK    2  A    between atoms: O_2  and  C_3
REMARK    3  A    between atoms: C_5  and  C_6
REMARK    4  A    between atoms: C_7  and  C_8
REMARK    5  A    between atoms: C_7  and  C_11
REMARK    6  A    between atoms: C_8  and  C_9
REMARK    7  A    between atoms: N_13  and  C_14
REMARK    8  A    between atoms: C_14  and  C_15
REMARK    9  A    between atoms: C_15  and  C_16
REMARK   10  A    between atoms: C_16  and  C_17
REMARK   11  A    between atoms: C_17  and  N_18
REMARK   12  A    between atoms: N_18  and  C_19
REMARK   13  A    between atoms: C_35  and  O_36
REMARK                            x       y       z     vdW  Elec       q    Type
REMARK                         _______ _______ _______ _____ _____    ______ ____
ROOT
ATOM      1  C   UNL A   1      44.726 -19.485 -35.539  0.00  0.00    +0.012 C 
ENDROOT
BRANCH   1   4
ATOM      2  C   UNL A   1      42.693 -19.293 -34.150  0.00  0.00    +0.247 C 
ATOM      3  O   UNL A   1      43.312 -19.148 -33.103  0.00  0.00    -0.270 OA
ATOM      4  N   UNL A   1      43.286 -19.445 -35.383  0.00  0.00    -0.311 N 
ATOM      5  H   UNL A   1      42.715 -19.528 -36.182  0.00  0.00    +0.000 HD
BRANCH   2   7
ATOM      6  C   UNL A   1      40.550 -19.559 -33.003  0.00  0.00    -0.039 C 
ATOM      7  C   UNL A   1      41.210 -19.376 -34.163  0.00  0.00    +0.079 C 
BRANCH   6  10
ATOM      8  C   UNL A   1      36.886 -18.780 -32.617  0.00  0.00    +0.162 A 
ATOM      9  C   UNL A   1      38.272 -18.631 -32.738  0.00  0.00    -0.009 A 
ATOM     10  C   UNL A   1      39.104 -19.756 -32.852  0.00  0.00    -0.021 A 
ATOM     11  C   UNL A   1      38.540 -21.035 -32.861  0.00  0.00    -0.051 A 
ATOM     12  C   UNL A   1      37.160 -21.196 -32.742  0.00  0.00    -0.016 A 
ATOM     13  C   UNL A   1      36.343 -20.073 -32.622  0.00  0.00    +0.158 A 
BRANCH   8  15
ATOM     14  C   UNL A   1      36.456 -16.540 -31.915  0.00  0.00    +0.079 C 
ATOM     15  O   UNL A   1      35.991 -17.749 -32.496  0.00  0.00    -0.491 OA
ENDBRANCH   8  15
BRANCH  13  16
ATOM     16  O   UNL A   1      34.987 -20.229 -32.506  0.00  0.00    -0.503 OA
ATOM     17  H   UNL A   1      34.500 -19.679 -31.923  0.00  0.00    +0.000 HD
ENDBRANCH  13  16
ENDBRANCH   6  10
BRANCH   7  18
ATOM     18  C   UNL A   1      40.508 -19.392 -35.472  0.00  0.00    +0.165 C 
ATOM     19  C   UNL A   1      39.999 -18.082 -36.009  0.00  0.00    -0.001 C 
ATOM     20  O   UNL A   1      40.319 -20.456 -36.062  0.00  0.00    -0.292 OA
ENDBRANCH   7  18
ENDBRANCH   2   7
ENDBRANCH   1   4
BRANCH   1  21
ATOM     21  C   UNL A   1      45.296 -18.111 -35.882  0.00  0.00    -0.036 C 
BRANCH  21  22
ATOM     22  C   UNL A   1      46.642 -18.235 -36.595  0.00  0.00    -0.036 C 
BRANCH  22  23
ATOM     23  C   UNL A   1      46.661 -19.428 -37.551  0.00  0.00    +0.009 C 
BRANCH  23  24
ATOM     24  N   UNL A   1      47.315 -19.020 -38.803  0.00  0.00    -0.343 N 
ATOM     25  H   UNL A   1      48.231 -18.665 -38.856  0.00  0.00    +0.000 HD
BRANCH  24  26
ATOM     26  C   UNL A   1      46.458 -19.203 -39.932  0.00  0.00    +0.041 A 
ATOM     27  C   UNL A   1      46.387 -20.453 -40.581  0.00  0.00    -0.005 A 
ATOM     28  C   UNL A   1      45.489 -20.579 -41.644  0.00  0.00    +0.047 A 
ATOM     29  N   UNL A   1      44.656 -19.585 -42.036  0.00  0.00    -0.251 NA
ATOM     30  C   UNL A   1      44.714 -18.403 -41.409  0.00  0.00    +0.073 A 
ATOM     31  C   UNL A   1      43.860 -17.393 -41.834  0.00  0.00    -0.036 A 
ATOM     32  C   UNL A   1      43.865 -16.125 -41.250  0.00  0.00    -0.060 A 
ATOM     33  C   UNL A   1      44.752 -15.849 -40.219  0.00  0.00    -0.061 A 
ATOM     34  C   UNL A   1      45.617 -16.850 -39.777  0.00  0.00    -0.051 A 
ATOM     35  C   UNL A   1      45.603 -18.146 -40.349  0.00  0.00    +0.021 A 
ATOM     36  C   UNL A   1      45.336 -21.870 -42.409  0.00  0.00    -0.010 C 
ATOM     37  C   UNL A   1      46.538 -22.796 -42.270  0.00  0.00    -0.047 C 
ATOM     38  C   UNL A   1      46.897 -22.948 -40.801  0.00  0.00    -0.049 C 
ATOM     39  C   UNL A   1      47.298 -21.599 -40.204  0.00  0.00    -0.024 C 
ENDBRANCH  24  26
ENDBRANCH  23  24
ENDBRANCH  22  23
ENDBRANCH  21  22
ENDBRANCH   1  21
TORSDOF 11
ENDMDL
MODEL 13
REMARK VINA RESULT:    -7.048      2.886      7.952
REMARK INTER + INTRA:         -13.090
REMARK INTER:                 -10.371
REMARK INTRA:                  -2.719
REMARK UNBOUND:                -1.716
REMARK  Name = cpd336.pdb
REMARK  13 active torsions:
REMARK  status: ('A' for Active; 'I' for Inactive)
REMARK    1  A    between atoms: C_1  and  O_2
REMARK    2  A    between atoms: O_2  and  C_3
REMARK    3  A    between atoms: C_5  and  C_6
REMARK    4  A    between atoms: C_7  and  C_8
REMARK    5  A    between atoms: C_7  and  C_11
REMARK    6  A    between atoms: C_8  and  C_9
REMARK    7  A    between atoms: N_13  and  C_14
REMARK    8  A    between atoms: C_14  and  C_15
REMARK    9  A    between atoms: C_15  and  C_16
REMARK   10  A    between atoms: C_16  and  C_17
REMARK   11  A    between atoms: C_17  and  N_18
REMARK   12  A    between atoms: N_18  and  C_19
REMARK   13  A    between atoms: C_35  and  O_36
REMARK                            x       y       z     vdW  Elec       q    Type
REMARK                         _______ _______ _______ _____ _____    ______ ____
ROOT
ATOM      1  C   UNL A   1      40.243 -21.371 -34.571  0.00  0.00    +0.012 C 
ENDROOT
BRANCH   1   4
ATOM      2  C   UNL A   1      41.318 -21.746 -36.763  0.00  0.00    +0.247 C 
ATOM      3  O   UNL A   1      40.896 -22.891 -36.876  0.00  0.00    -0.270 OA
ATOM      4  N   UNL A   1      41.042 -20.923 -35.694  0.00  0.00    -0.311 N 
ATOM      5  H   UNL A   1      41.397 -20.005 -35.693  0.00  0.00    +0.000 HD
BRANCH   2   7
ATOM      6  C   UNL A   1      43.479 -20.801 -37.405  0.00  0.00    -0.039 C 
ATOM      7  C   UNL A   1      42.234 -21.159 -37.774  0.00  0.00    +0.079 C 
BRANCH   6  10
ATOM      8  C   UNL A   1      46.435 -20.279 -39.680  0.00  0.00    +0.162 A 
ATOM      9  C   UNL A   1      45.486 -20.886 -38.850  0.00  0.00    -0.009 A 
ATOM     10  C   UNL A   1      44.470 -20.126 -38.250  0.00  0.00    -0.021 A 
ATOM     11  C   UNL A   1      44.397 -18.752 -38.499  0.00  0.00    -0.051 A 
ATOM     12  C   UNL A   1      45.336 -18.136 -39.326  0.00  0.00    -0.016 A 
ATOM     13  C   UNL A   1      46.345 -18.899 -39.911  0.00  0.00    +0.158 A 
BRANCH   8  15
ATOM     14  C   UNL A   1      47.131 -21.831 -41.354  0.00  0.00    +0.079 C 
ATOM     15  O   UNL A   1      47.464 -20.931 -40.307  0.00  0.00    -0.491 OA
ENDBRANCH   8  15
BRANCH  13  16
ATOM     16  O   UNL A   1      47.268 -18.296 -40.724  0.00  0.00    -0.503 OA
ATOM     17  H   UNL A   1      47.059 -18.120 -41.620  0.00  0.00    +0.000 HD
ENDBRANCH  13  16
ENDBRANCH   6  10
BRANCH   7  18
ATOM     18  C   UNL A   1      41.703 -20.859 -39.128  0.00  0.00    +0.165 C 
ATOM     19  C   UNL A   1      42.020 -21.827 -40.236  0.00  0.00    -0.001 C 
ATOM     20  O   UNL A   1      41.065 -19.825 -39.329  0.00  0.00    -0.292 OA
ENDBRANCH   7  18
ENDBRANCH   2   7
ENDBRANCH   1   4
BRANCH   1  21
ATOM     21  C   UNL A   1      40.095 -20.281 -33.512  0.00  0.00    -0.036 C 
BRANCH  21  22
ATOM     22  C   UNL A   1      41.364 -20.152 -32.671  0.00  0.00    -0.036 C 
BRANCH  22  23
ATOM     23  C   UNL A   1      42.612 -20.069 -33.552  0.00  0.00    +0.009 C 
BRANCH  23  24
ATOM     24  N   UNL A   1      43.638 -19.291 -32.844  0.00  0.00    -0.343 N 
ATOM     25  H   UNL A   1      43.888 -19.435 -31.902  0.00  0.00    +0.000 HD
BRANCH  24  26
ATOM     26  C   UNL A   1      44.229 -18.301 -33.688  0.00  0.00    +0.041 A 
ATOM     27  C   UNL A   1      43.783 -16.964 -33.643  0.00  0.00    -0.005 A 
ATOM     28  C   UNL A   1      44.441 -16.036 -34.456  0.00  0.00    +0.047 A 
ATOM     29  N   UNL A   1      45.507 -16.349 -35.229  0.00  0.00    -0.251 NA
ATOM     30  C   UNL A   1      45.939 -17.617 -35.260  0.00  0.00    +0.073 A 
ATOM     31  C   UNL A   1      47.028 -17.920 -36.069  0.00  0.00    -0.036 A 
ATOM     32  C   UNL A   1      47.532 -19.217 -36.175  0.00  0.00    -0.060 A 
ATOM     33  C   UNL A   1      46.932 -20.246 -35.463  0.00  0.00    -0.061 A 
ATOM     34  C   UNL A   1      45.840 -19.962 -34.644  0.00  0.00    -0.051 A 
ATOM     35  C   UNL A   1      45.335 -18.645 -34.514  0.00  0.00    +0.021 A 
ATOM     36  C   UNL A   1      44.042 -14.582 -34.486  0.00  0.00    -0.010 C 
ATOM     37  C   UNL A   1      42.624 -14.337 -33.988  0.00  0.00    -0.047 C 
ATOM     38  C   UNL A   1      42.423 -15.039 -32.655  0.00  0.00    -0.049 C 
ATOM     39  C   UNL A   1      42.590 -16.550 -32.813  0.00  0.00    -0.024 C 
ENDBRANCH  24  26
ENDBRANCH  23  24
ENDBRANCH  22  23
ENDBRANCH  21  22
ENDBRANCH   1  21
TORSDOF 11
ENDMDL
MODEL 14
REMARK VINA RESULT:    -7.037      1.633      3.634
REMARK INTER + INTRA:         -13.072
REMARK INTER:                 -11.222
REMARK INTRA:                  -1.850
REMARK UNBOUND:                -1.716
REMARK  Name = cpd336.pdb
REMARK  13 active torsions:
REMARK  status: ('A' for Active; 'I' for Inactive)
REMARK    1  A    between atoms: C_1  and  O_2
REMARK    2  A    between atoms: O_2  and  C_3
REMARK    3  A    between atoms: C_5  and  C_6
REMARK    4  A    between atoms: C_7  and  C_8
REMARK    5  A    between atoms: C_7  and  C_11
REMARK    6  A    between atoms: C_8  and  C_9
REMARK    7  A    between atoms: N_13  and  C_14
REMARK    8  A    between atoms: C_14  and  C_15
REMARK    9  A    between atoms: C_15  and  C_16
REMARK   10  A    between atoms: C_16  and  C_17
REMARK   11  A    between atoms: C_17  and  N_18
REMARK   12  A    between atoms: N_18  and  C_19
REMARK   13  A    between atoms: C_35  and  O_36
REMARK                            x       y       z     vdW  Elec       q    Type
REMARK                         _______ _______ _______ _____ _____    ______ ____
ROOT
ATOM      1  C   UNL A   1      46.065 -17.282 -35.920  0.00  0.00    +0.012 C 
ENDROOT
BRANCH   1   4
ATOM      2  C   UNL A   1      44.078 -17.567 -34.482  0.00  0.00    +0.247 C 
ATOM      3  O   UNL A   1      44.431 -16.720 -33.670  0.00  0.00    -0.270 OA
ATOM      4  N   UNL A   1      44.790 -17.897 -35.613  0.00  0.00    -0.311 N 
ATOM      5  H   UNL A   1      44.422 -18.570 -36.231  0.00  0.00    +0.000 HD
BRANCH   2   7
ATOM      6  C   UNL A   1      42.941 -19.707 -34.158  0.00  0.00    -0.039 C 
ATOM      7  C   UNL A   1      42.845 -18.368 -34.273  0.00  0.00    +0.079 C 
BRANCH   6  10
ATOM      8  C   UNL A   1      40.218 -22.116 -35.139  0.00  0.00    +0.162 A 
ATOM      9  C   UNL A   1      41.271 -21.198 -35.212  0.00  0.00    -0.009 A 
ATOM     10  C   UNL A   1      41.821 -20.648 -34.043  0.00  0.00    -0.021 A 
ATOM     11  C   UNL A   1      41.321 -21.033 -32.796  0.00  0.00    -0.051 A 
ATOM     12  C   UNL A   1      40.272 -21.948 -32.711  0.00  0.00    -0.016 A 
ATOM     13  C   UNL A   1      39.728 -22.484 -33.877  0.00  0.00    +0.158 A 
BRANCH   8  15
ATOM     14  C   UNL A   1      39.414 -21.909 -37.376  0.00  0.00    +0.079 C 
ATOM     15  O   UNL A   1      39.612 -22.706 -36.218  0.00  0.00    -0.491 OA
ENDBRANCH   8  15
BRANCH  13  16
ATOM     16  O   UNL A   1      38.698 -23.383 -33.796  0.00  0.00    -0.503 OA
ATOM     17  H   UNL A   1      37.827 -23.083 -33.623  0.00  0.00    +0.000 HD
ENDBRANCH  13  16
ENDBRANCH   6  10
BRANCH   7  18
ATOM     18  C   UNL A   1      41.530 -17.682 -34.333  0.00  0.00    +0.165 C 
ATOM     19  C   UNL A   1      41.020 -17.261 -35.685  0.00  0.00    -0.001 C 
ATOM     20  O   UNL A   1      40.911 -17.434 -33.297  0.00  0.00    -0.292 OA
ENDBRANCH   7  18
ENDBRANCH   2   7
ENDBRANCH   1   4
BRANCH   1  21
ATOM     21  C   UNL A   1      47.219 -17.983 -35.207  0.00  0.00    -0.036 C 
BRANCH  21  22
ATOM     22  C   UNL A   1      47.920 -18.975 -36.134  0.00  0.00    -0.036 C 
BRANCH  22  23
ATOM     23  C   UNL A   1      47.114 -19.211 -37.411  0.00  0.00    +0.009 C 
BRANCH  23  24
ATOM     24  N   UNL A   1      46.874 -20.654 -37.558  0.00  0.00    -0.343 N 
ATOM     25  H   UNL A   1      47.150 -21.330 -36.897  0.00  0.00    +0.000 HD
BRANCH  24  26
ATOM     26  C   UNL A   1      46.193 -20.956 -38.778  0.00  0.00    +0.041 A 
ATOM     27  C   UNL A   1      46.860 -21.632 -39.821  0.00  0.00    -0.005 A 
ATOM     28  C   UNL A   1      46.119 -21.944 -40.965  0.00  0.00    +0.047 A 
ATOM     29  N   UNL A   1      44.796 -21.682 -41.090  0.00  0.00    -0.251 NA
ATOM     30  C   UNL A   1      44.161 -21.053 -40.091  0.00  0.00    +0.073 A 
ATOM     31  C   UNL A   1      42.807 -20.782 -40.243  0.00  0.00    -0.036 A 
ATOM     32  C   UNL A   1      42.071 -20.115 -39.262  0.00  0.00    -0.060 A 
ATOM     33  C   UNL A   1      42.701 -19.697 -38.099  0.00  0.00    -0.061 A 
ATOM     34  C   UNL A   1      44.059 -19.961 -37.926  0.00  0.00    -0.051 A 
ATOM     35  C   UNL A   1      44.809 -20.656 -38.907  0.00  0.00    +0.021 A 
ATOM     36  C   UNL A   1      46.734 -22.663 -42.139  0.00  0.00    -0.010 C 
ATOM     37  C   UNL A   1      48.253 -22.554 -42.182  0.00  0.00    -0.047 C 
ATOM     38  C   UNL A   1      48.828 -22.917 -40.822  0.00  0.00    -0.049 C 
ATOM     39  C   UNL A   1      48.337 -21.942 -39.753  0.00  0.00    -0.024 C 
ENDBRANCH  24  26
ENDBRANCH  23  24
ENDBRANCH  22  23
ENDBRANCH  21  22
ENDBRANCH   1  21
TORSDOF 11
ENDMDL
MODEL 15
REMARK VINA RESULT:    -7.018      3.108      7.829
REMARK INTER + INTRA:         -13.042
REMARK INTER:                 -10.430
REMARK INTRA:                  -2.611
REMARK UNBOUND:                -1.716
REMARK  Name = cpd336.pdb
REMARK  13 active torsions:
REMARK  status: ('A' for Active; 'I' for Inactive)
REMARK    1  A    between atoms: C_1  and  O_2
REMARK    2  A    between atoms: O_2  and  C_3
REMARK    3  A    between atoms: C_5  and  C_6
REMARK    4  A    between atoms: C_7  and  C_8
REMARK    5  A    between atoms: C_7  and  C_11
REMARK    6  A    between atoms: C_8  and  C_9
REMARK    7  A    between atoms: N_13  and  C_14
REMARK    8  A    between atoms: C_14  and  C_15
REMARK    9  A    between atoms: C_15  and  C_16
REMARK   10  A    between atoms: C_16  and  C_17
REMARK   11  A    between atoms: C_17  and  N_18
REMARK   12  A    between atoms: N_18  and  C_19
REMARK   13  A    between atoms: C_35  and  O_36
REMARK                            x       y       z     vdW  Elec       q    Type
REMARK                         _______ _______ _______ _____ _____    ______ ____
ROOT
ATOM      1  C   UNL A   1      43.077 -18.200 -33.401  0.00  0.00    +0.012 C 
ENDROOT
BRANCH   1   4
ATOM      2  C   UNL A   1      44.726 -19.200 -34.944  0.00  0.00    +0.247 C 
ATOM      3  O   UNL A   1      45.341 -19.779 -34.057  0.00  0.00    -0.270 OA
ATOM      4  N   UNL A   1      43.607 -18.427 -34.730  0.00  0.00    -0.311 N 
ATOM      5  H   UNL A   1      43.153 -18.018 -35.503  0.00  0.00    +0.000 HD
BRANCH   2   7
ATOM      6  C   UNL A   1      44.485 -19.955 -37.257  0.00  0.00    -0.039 C 
ATOM      7  C   UNL A   1      45.187 -19.241 -36.355  0.00  0.00    +0.079 C 
BRANCH   6  10
ATOM      8  C   UNL A   1      46.036 -21.513 -40.314  0.00  0.00    +0.162 A 
ATOM      9  C   UNL A   1      45.684 -21.259 -38.984  0.00  0.00    -0.009 A 
ATOM     10  C   UNL A   1      44.852 -20.175 -38.660  0.00  0.00    -0.021 A 
ATOM     11  C   UNL A   1      44.358 -19.355 -39.679  0.00  0.00    -0.051 A 
ATOM     12  C   UNL A   1      44.701 -19.599 -41.008  0.00  0.00    -0.016 A 
ATOM     13  C   UNL A   1      45.534 -20.673 -41.318  0.00  0.00    +0.158 A 
BRANCH   8  15
ATOM     14  C   UNL A   1      48.194 -22.531 -40.296  0.00  0.00    +0.079 C 
ATOM     15  O   UNL A   1      46.843 -22.539 -40.732  0.00  0.00    -0.491 OA
ENDBRANCH   8  15
BRANCH  13  16
ATOM     16  O   UNL A   1      45.871 -20.915 -42.624  0.00  0.00    -0.503 OA
ATOM     17  H   UNL A   1      45.787 -20.236 -43.264  0.00  0.00    +0.000 HD
ENDBRANCH  13  16
ENDBRANCH   6  10
BRANCH   7  18
ATOM     18  C   UNL A   1      46.484 -18.607 -36.701  0.00  0.00    +0.165 C 
ATOM     19  C   UNL A   1      46.463 -17.176 -37.165  0.00  0.00    -0.001 C 
ATOM     20  O   UNL A   1      47.528 -19.258 -36.646  0.00  0.00    -0.292 OA
ENDBRANCH   7  18
ENDBRANCH   2   7
ENDBRANCH   1   4
BRANCH   1  21
ATOM     21  C   UNL A   1      41.663 -18.757 -33.252  0.00  0.00    -0.036 C 
BRANCH  21  22
ATOM     22  C   UNL A   1      41.690 -20.231 -32.850  0.00  0.00    -0.036 C 
BRANCH  22  23
ATOM     23  C   UNL A   1      41.851 -21.139 -34.069  0.00  0.00    +0.009 C 
BRANCH  23  24
ATOM     24  N   UNL A   1      40.576 -21.828 -34.316  0.00  0.00    -0.343 N 
ATOM     25  H   UNL A   1      40.259 -22.606 -33.802  0.00  0.00    +0.000 HD
BRANCH  24  26
ATOM     26  C   UNL A   1      39.851 -21.230 -35.393  0.00  0.00    +0.041 A 
ATOM     27  C   UNL A   1      38.730 -20.414 -35.134  0.00  0.00    -0.005 A 
ATOM     28  C   UNL A   1      38.100 -19.816 -36.230  0.00  0.00    +0.047 A 
ATOM     29  N   UNL A   1      38.546 -19.938 -37.503  0.00  0.00    -0.251 NA
ATOM     30  C   UNL A   1      39.621 -20.701 -37.745  0.00  0.00    +0.073 A 
ATOM     31  C   UNL A   1      40.056 -20.823 -39.059  0.00  0.00    -0.036 A 
ATOM     32  C   UNL A   1      41.155 -21.611 -39.404  0.00  0.00    -0.060 A 
ATOM     33  C   UNL A   1      41.836 -22.307 -38.416  0.00  0.00    -0.061 A 
ATOM     34  C   UNL A   1      41.416 -22.197 -37.091  0.00  0.00    -0.051 A 
ATOM     35  C   UNL A   1      40.316 -21.382 -36.728  0.00  0.00    +0.021 A 
ATOM     36  C   UNL A   1      36.892 -18.928 -36.066  0.00  0.00    -0.010 C 
ATOM     37  C   UNL A   1      36.156 -19.151 -34.751  0.00  0.00    -0.047 C 
ATOM     38  C   UNL A   1      37.148 -19.119 -33.600  0.00  0.00    -0.049 C 
ATOM     39  C   UNL A   1      38.170 -20.247 -33.740  0.00  0.00    -0.024 C 
ENDBRANCH  24  26
ENDBRANCH  23  24
ENDBRANCH  22  23
ENDBRANCH  21  22
ENDBRANCH   1  21
TORSDOF 11
ENDMDL
MODEL 16
REMARK VINA RESULT:    -6.916      3.620      8.053
REMARK INTER + INTRA:         -12.878
REMARK INTER:                 -10.989
REMARK INTRA:                  -1.888
REMARK UNBOUND:                -1.716
REMARK  Name = cpd336.pdb
REMARK  13 active torsions:
REMARK  status: ('A' for Active; 'I' for Inactive)
REMARK    1  A    between atoms: C_1  and  O_2
REMARK    2  A    between atoms: O_2  and  C_3
REMARK    3  A    between atoms: C_5  and  C_6
REMARK    4  A    between atoms: C_7  and  C_8
REMARK    5  A    between atoms: C_7  and  C_11
REMARK    6  A    between atoms: C_8  and  C_9
REMARK    7  A    between atoms: N_13  and  C_14
REMARK    8  A    between atoms: C_14  and  C_15
REMARK    9  A    between atoms: C_15  and  C_16
REMARK   10  A    between atoms: C_16  and  C_17
REMARK   11  A    between atoms: C_17  and  N_18
REMARK   12  A    between atoms: N_18  and  C_19
REMARK   13  A    between atoms: C_35  and  O_36
REMARK                            x       y       z     vdW  Elec       q    Type
REMARK                         _______ _______ _______ _____ _____    ______ ____
ROOT
ATOM      1  C   UNL A   1      43.322 -16.731 -35.813  0.00  0.00    +0.012 C 
ENDROOT
BRANCH   1   4
ATOM      2  C   UNL A   1      45.004 -17.163 -37.569  0.00  0.00    +0.247 C 
ATOM      3  O   UNL A   1      45.851 -16.436 -37.064  0.00  0.00    -0.270 OA
ATOM      4  N   UNL A   1      43.757 -17.386 -37.030  0.00  0.00    -0.311 N 
ATOM      5  H   UNL A   1      43.143 -18.008 -37.483  0.00  0.00    +0.000 HD
BRANCH   2   7
ATOM      6  C   UNL A   1      44.703 -19.051 -39.093  0.00  0.00    -0.039 C 
ATOM      7  C   UNL A   1      45.243 -17.836 -38.871  0.00  0.00    +0.079 C 
BRANCH   6  10
ATOM      8  C   UNL A   1      45.807 -21.939 -41.243  0.00  0.00    +0.162 A 
ATOM      9  C   UNL A   1      45.605 -21.104 -40.139  0.00  0.00    -0.009 A 
ATOM     10  C   UNL A   1      44.917 -19.888 -40.278  0.00  0.00    -0.021 A 
ATOM     11  C   UNL A   1      44.415 -19.518 -41.530  0.00  0.00    -0.051 A 
ATOM     12  C   UNL A   1      44.609 -20.343 -42.637  0.00  0.00    -0.016 A 
ATOM     13  C   UNL A   1      45.300 -21.544 -42.489  0.00  0.00    +0.158 A 
BRANCH   8  15
ATOM     14  C   UNL A   1      47.866 -23.114 -40.966  0.00  0.00    +0.079 C 
ATOM     15  O   UNL A   1      46.468 -23.139 -41.212  0.00  0.00    -0.491 OA
ENDBRANCH   8  15
BRANCH  13  16
ATOM     16  O   UNL A   1      45.491 -22.356 -43.576  0.00  0.00    -0.503 OA
ATOM     17  H   UNL A   1      45.417 -22.005 -44.442  0.00  0.00    +0.000 HD
ENDBRANCH  13  16
ENDBRANCH   6  10
BRANCH   7  18
ATOM     18  C   UNL A   1      46.182 -17.211 -39.836  0.00  0.00    +0.165 C 
ATOM     19  C   UNL A   1      45.640 -16.145 -40.751  0.00  0.00    -0.001 C 
ATOM     20  O   UNL A   1      47.350 -17.594 -39.903  0.00  0.00    -0.292 OA
ENDBRANCH   7  18
ENDBRANCH   2   7
ENDBRANCH   1   4
BRANCH   1  21
ATOM     21  C   UNL A   1      42.475 -17.657 -34.943  0.00  0.00    -0.036 C 
BRANCH  21  22
ATOM     22  C   UNL A   1      43.305 -18.820 -34.404  0.00  0.00    -0.036 C 
BRANCH  22  23
ATOM     23  C   UNL A   1      43.445 -19.934 -35.441  0.00  0.00    +0.009 C 
BRANCH  23  24
ATOM     24  N   UNL A   1      42.754 -21.132 -34.944  0.00  0.00    -0.343 N 
ATOM     25  H   UNL A   1      43.161 -21.793 -34.337  0.00  0.00    +0.000 HD
BRANCH  24  26
ATOM     26  C   UNL A   1      41.420 -21.222 -35.448  0.00  0.00    +0.041 A 
ATOM     27  C   UNL A   1      40.318 -20.984 -34.601  0.00  0.00    -0.005 A 
ATOM     28  C   UNL A   1      39.042 -21.035 -35.170  0.00  0.00    +0.047 A 
ATOM     29  N   UNL A   1      38.825 -21.241 -36.491  0.00  0.00    -0.251 NA
ATOM     30  C   UNL A   1      39.874 -21.451 -37.298  0.00  0.00    +0.073 A 
ATOM     31  C   UNL A   1      39.630 -21.673 -38.648  0.00  0.00    -0.036 A 
ATOM     32  C   UNL A   1      40.661 -21.919 -39.556  0.00  0.00    -0.060 A 
ATOM     33  C   UNL A   1      41.974 -21.954 -39.108  0.00  0.00    -0.061 A 
ATOM     34  C   UNL A   1      42.240 -21.732 -37.758  0.00  0.00    -0.051 A 
ATOM     35  C   UNL A   1      41.202 -21.461 -36.833  0.00  0.00    +0.021 A 
ATOM     36  C   UNL A   1      37.796 -20.799 -34.354  0.00  0.00    -0.010 C 
ATOM     37  C   UNL A   1      38.008 -21.011 -32.861  0.00  0.00    -0.047 C 
ATOM     38  C   UNL A   1      39.238 -20.242 -32.406  0.00  0.00    -0.049 C 
ATOM     39  C   UNL A   1      40.488 -20.762 -33.115  0.00  0.00    -0.024 C 
ENDBRANCH  24  26
ENDBRANCH  23  24
ENDBRANCH  22  23
ENDBRANCH  21  22
ENDBRANCH   1  21
TORSDOF 11
ENDMDL
MODEL 17
REMARK VINA RESULT:    -6.916      3.089      8.518
REMARK INTER + INTRA:         -12.876
REMARK INTER:                 -10.578
REMARK INTRA:                  -2.298
REMARK UNBOUND:                -1.716
REMARK  Name = cpd336.pdb
REMARK  13 active torsions:
REMARK  status: ('A' for Active; 'I' for Inactive)
REMARK    1  A    between atoms: C_1  and  O_2
REMARK    2  A    between atoms: O_2  and  C_3
REMARK    3  A    between atoms: C_5  and  C_6
REMARK    4  A    between atoms: C_7  and  C_8
REMARK    5  A    between atoms: C_7  and  C_11
REMARK    6  A    between atoms: C_8  and  C_9
REMARK    7  A    between atoms: N_13  and  C_14
REMARK    8  A    between atoms: C_14  and  C_15
REMARK    9  A    between atoms: C_15  and  C_16
REMARK   10  A    between atoms: C_16  and  C_17
REMARK   11  A    between atoms: C_17  and  N_18
REMARK   12  A    between atoms: N_18  and  C_19
REMARK   13  A    between atoms: C_35  and  O_36
REMARK                            x       y       z     vdW  Elec       q    Type
REMARK                         _______ _______ _______ _____ _____    ______ ____
ROOT
ATOM      1  C   UNL A   1      41.780 -19.617 -33.032  0.00  0.00    +0.012 C 
ENDROOT
BRANCH   1   4
ATOM      2  C   UNL A   1      43.870 -19.406 -34.331  0.00  0.00    +0.247 C 
ATOM      3  O   UNL A   1      44.579 -19.277 -33.340  0.00  0.00    -0.270 OA
ATOM      4  N   UNL A   1      42.507 -19.594 -34.285  0.00  0.00    -0.311 N 
ATOM      5  H   UNL A   1      42.012 -19.717 -35.127  0.00  0.00    +0.000 HD
BRANCH   2   7
ATOM      6  C   UNL A   1      43.646 -19.585 -36.759  0.00  0.00    -0.039 C 
ATOM      7  C   UNL A   1      44.434 -19.308 -35.701  0.00  0.00    +0.079 C 
BRANCH   6  10
ATOM      8  C   UNL A   1      44.900 -20.928 -40.046  0.00  0.00    +0.162 A 
ATOM      9  C   UNL A   1      44.512 -20.845 -38.704  0.00  0.00    -0.009 A 
ATOM     10  C   UNL A   1      44.068 -19.628 -38.163  0.00  0.00    -0.021 A 
ATOM     11  C   UNL A   1      43.998 -18.494 -38.978  0.00  0.00    -0.051 A 
ATOM     12  C   UNL A   1      44.381 -18.565 -40.317  0.00  0.00    -0.016 A 
ATOM     13  C   UNL A   1      44.827 -19.777 -40.842  0.00  0.00    +0.158 A 
BRANCH   8  15
ATOM     14  C   UNL A   1      46.706 -22.431 -40.462  0.00  0.00    +0.079 C 
ATOM     15  O   UNL A   1      45.350 -22.065 -40.666  0.00  0.00    -0.491 OA
ENDBRANCH   8  15
BRANCH  13  16
ATOM     16  O   UNL A   1      45.203 -19.849 -42.158  0.00  0.00    -0.503 OA
ATOM     17  H   UNL A   1      44.561 -19.760 -42.835  0.00  0.00    +0.000 HD
ENDBRANCH  13  16
ENDBRANCH   6  10
BRANCH   7  18
ATOM     18  C   UNL A   1      45.886 -19.041 -35.858  0.00  0.00    +0.165 C 
ATOM     19  C   UNL A   1      46.824 -20.217 -35.813  0.00  0.00    -0.001 C 
ATOM     20  O   UNL A   1      46.295 -17.885 -35.975  0.00  0.00    -0.292 OA
ENDBRANCH   7  18
ENDBRANCH   2   7
ENDBRANCH   1   4
BRANCH   1  21
ATOM     21  C   UNL A   1      41.279 -21.019 -32.693  0.00  0.00    -0.036 C 
BRANCH  21  22
ATOM     22  C   UNL A   1      41.269 -21.915 -33.931  0.00  0.00    -0.036 C 
BRANCH  22  23
ATOM     23  C   UNL A   1      40.244 -23.042 -33.796  0.00  0.00    +0.009 C 
BRANCH  23  24
ATOM     24  N   UNL A   1      39.449 -23.107 -35.030  0.00  0.00    -0.343 N 
ATOM     25  H   UNL A   1      39.281 -23.936 -35.535  0.00  0.00    +0.000 HD
BRANCH  24  26
ATOM     26  C   UNL A   1      38.949 -21.823 -35.407  0.00  0.00    +0.041 A 
ATOM     27  C   UNL A   1      39.344 -21.232 -36.625  0.00  0.00    -0.005 A 
ATOM     28  C   UNL A   1      38.776 -19.999 -36.958  0.00  0.00    +0.047 A 
ATOM     29  N   UNL A   1      37.835 -19.384 -36.202  0.00  0.00    -0.251 NA
ATOM     30  C   UNL A   1      37.451 -19.955 -35.052  0.00  0.00    +0.073 A 
ATOM     31  C   UNL A   1      36.493 -19.303 -34.285  0.00  0.00    -0.036 A 
ATOM     32  C   UNL A   1      36.047 -19.815 -33.065  0.00  0.00    -0.060 A 
ATOM     33  C   UNL A   1      36.575 -21.007 -32.590  0.00  0.00    -0.061 A 
ATOM     34  C   UNL A   1      37.536 -21.678 -33.346  0.00  0.00    -0.051 A 
ATOM     35  C   UNL A   1      37.978 -21.176 -34.594  0.00  0.00    +0.021 A 
ATOM     36  C   UNL A   1      39.130 -19.278 -38.235  0.00  0.00    -0.010 C 
ATOM     37  C   UNL A   1      40.459 -19.727 -38.829  0.00  0.00    -0.047 C 
ATOM     38  C   UNL A   1      40.496 -21.244 -38.906  0.00  0.00    -0.049 C 
ATOM     39  C   UNL A   1      40.399 -21.856 -37.509  0.00  0.00    -0.024 C 
ENDBRANCH  24  26
ENDBRANCH  23  24
ENDBRANCH  22  23
ENDBRANCH  21  22
ENDBRANCH   1  21
TORSDOF 11
ENDMDL
MODEL 18
REMARK VINA RESULT:    -6.873      2.725      5.032
REMARK INTER + INTRA:         -12.807
REMARK INTER:                  -9.766
REMARK INTRA:                  -3.041
REMARK UNBOUND:                -1.716
REMARK  Name = cpd336.pdb
REMARK  13 active torsions:
REMARK  status: ('A' for Active; 'I' for Inactive)
REMARK    1  A    between atoms: C_1  and  O_2
REMARK    2  A    between atoms: O_2  and  C_3
REMARK    3  A    between atoms: C_5  and  C_6
REMARK    4  A    between atoms: C_7  and  C_8
REMARK    5  A    between atoms: C_7  and  C_11
REMARK    6  A    between atoms: C_8  and  C_9
REMARK    7  A    between atoms: N_13  and  C_14
REMARK    8  A    between atoms: C_14  and  C_15
REMARK    9  A    between atoms: C_15  and  C_16
REMARK   10  A    between atoms: C_16  and  C_17
REMARK   11  A    between atoms: C_17  and  N_18
REMARK   12  A    between atoms: N_18  and  C_19
REMARK   13  A    between atoms: C_35  and  O_36
REMARK                            x       y       z     vdW  Elec       q    Type
REMARK                         _______ _______ _______ _____ _____    ______ ____
ROOT
ATOM      1  C   UNL A   1      45.946 -14.488 -38.643  0.00  0.00    +0.012 C 
ENDROOT
BRANCH   1   4
ATOM      2  C   UNL A   1      46.197 -16.249 -36.930  0.00  0.00    +0.247 C 
ATOM      3  O   UNL A   1      47.404 -16.081 -36.803  0.00  0.00    -0.270 OA
ATOM      4  N   UNL A   1      45.400 -15.515 -37.780  0.00  0.00    -0.311 N 
ATOM      5  H   UNL A   1      44.432 -15.694 -37.802  0.00  0.00    +0.000 HD
BRANCH   2   7
ATOM      6  C   UNL A   1      44.253 -17.090 -35.708  0.00  0.00    -0.039 C 
ATOM      7  C   UNL A   1      45.487 -17.327 -36.195  0.00  0.00    +0.079 C 
BRANCH   6  10
ATOM      8  C   UNL A   1      41.793 -19.778 -34.760  0.00  0.00    +0.162 A 
ATOM      9  C   UNL A   1      42.550 -18.874 -35.512  0.00  0.00    -0.009 A 
ATOM     10  C   UNL A   1      43.459 -18.008 -34.884  0.00  0.00    -0.021 A 
ATOM     11  C   UNL A   1      43.619 -18.062 -33.496  0.00  0.00    -0.051 A 
ATOM     12  C   UNL A   1      42.870 -18.960 -32.737  0.00  0.00    -0.016 A 
ATOM     13  C   UNL A   1      41.966 -19.811 -33.369  0.00  0.00    +0.158 A 
BRANCH   8  15
ATOM     14  C   UNL A   1      41.380 -21.788 -35.980  0.00  0.00    +0.079 C 
ATOM     15  O   UNL A   1      40.879 -20.660 -35.276  0.00  0.00    -0.491 OA
ENDBRANCH   8  15
BRANCH  13  16
ATOM     16  O   UNL A   1      41.229 -20.694 -32.624  0.00  0.00    -0.503 OA
ATOM     17  H   UNL A   1      40.308 -20.563 -32.516  0.00  0.00    +0.000 HD
ENDBRANCH  13  16
ENDBRANCH   6  10
BRANCH   7  18
ATOM     18  C   UNL A   1      46.214 -18.588 -35.903  0.00  0.00    +0.165 C 
ATOM     19  C   UNL A   1      46.111 -19.705 -36.905  0.00  0.00    -0.001 C 
ATOM     20  O   UNL A   1      46.838 -18.715 -34.848  0.00  0.00    -0.292 OA
ENDBRANCH   7  18
ENDBRANCH   2   7
ENDBRANCH   1   4
BRANCH   1  21
ATOM     21  C   UNL A   1      45.995 -14.940 -40.101  0.00  0.00    -0.036 C 
BRANCH  21  22
ATOM     22  C   UNL A   1      47.301 -15.671 -40.409  0.00  0.00    -0.036 C 
BRANCH  22  23
ATOM     23  C   UNL A   1      47.137 -17.185 -40.283  0.00  0.00    +0.009 C 
BRANCH  23  24
ATOM     24  N   UNL A   1      46.146 -17.636 -41.271  0.00  0.00    -0.343 N 
ATOM     25  H   UNL A   1      45.911 -17.136 -42.086  0.00  0.00    +0.000 HD
BRANCH  24  26
ATOM     26  C   UNL A   1      45.564 -18.889 -40.904  0.00  0.00    +0.041 A 
ATOM     27  C   UNL A   1      46.259 -20.095 -41.135  0.00  0.00    -0.005 A 
ATOM     28  C   UNL A   1      45.657 -21.280 -40.703  0.00  0.00    +0.047 A 
ATOM     29  N   UNL A   1      44.482 -21.316 -40.031  0.00  0.00    -0.251 NA
ATOM     30  C   UNL A   1      43.831 -20.168 -39.798  0.00  0.00    +0.073 A 
ATOM     31  C   UNL A   1      42.621 -20.227 -39.117  0.00  0.00    -0.036 A 
ATOM     32  C   UNL A   1      41.867 -19.083 -38.848  0.00  0.00    -0.060 A 
ATOM     33  C   UNL A   1      42.324 -17.845 -39.276  0.00  0.00    -0.061 A 
ATOM     34  C   UNL A   1      43.537 -17.764 -39.959  0.00  0.00    -0.051 A 
ATOM     35  C   UNL A   1      44.319 -18.917 -40.218  0.00  0.00    +0.021 A 
ATOM     36  C   UNL A   1      46.311 -22.624 -40.903  0.00  0.00    -0.010 C 
ATOM     37  C   UNL A   1      47.360 -22.623 -42.008  0.00  0.00    -0.047 C 
ATOM     38  C   UNL A   1      48.315 -21.458 -41.804  0.00  0.00    -0.049 C 
ATOM     39  C   UNL A   1      47.567 -20.128 -41.892  0.00  0.00    -0.024 C 
ENDBRANCH  24  26
ENDBRANCH  23  24
ENDBRANCH  22  23
ENDBRANCH  21  22
ENDBRANCH   1  21
TORSDOF 11
ENDMDL
MODEL 19
REMARK VINA RESULT:    -6.841      3.876      8.370
REMARK INTER + INTRA:         -12.756
REMARK INTER:                 -10.543
REMARK INTRA:                  -2.213
REMARK UNBOUND:                -1.716
REMARK  Name = cpd336.pdb
REMARK  13 active torsions:
REMARK  status: ('A' for Active; 'I' for Inactive)
REMARK    1  A    between atoms: C_1  and  O_2
REMARK    2  A    between atoms: O_2  and  C_3
REMARK    3  A    between atoms: C_5  and  C_6
REMARK    4  A    between atoms: C_7  and  C_8
REMARK    5  A    between atoms: C_7  and  C_11
REMARK    6  A    between atoms: C_8  and  C_9
REMARK    7  A    between atoms: N_13  and  C_14
REMARK    8  A    between atoms: C_14  and  C_15
REMARK    9  A    between atoms: C_15  and  C_16
REMARK   10  A    between atoms: C_16  and  C_17
REMARK   11  A    between atoms: C_17  and  N_18
REMARK   12  A    between atoms: N_18  and  C_19
REMARK   13  A    between atoms: C_35  and  O_36
REMARK                            x       y       z     vdW  Elec       q    Type
REMARK                         _______ _______ _______ _____ _____    ______ ____
ROOT
ATOM      1  C   UNL A   1      44.675 -16.580 -35.597  0.00  0.00    +0.012 C 
ENDROOT
BRANCH   1   4
ATOM      2  C   UNL A   1      45.396 -16.432 -37.955  0.00  0.00    +0.247 C 
ATOM      3  O   UNL A   1      45.793 -15.277 -37.856  0.00  0.00    -0.270 OA
ATOM      4  N   UNL A   1      44.857 -17.155 -36.915  0.00  0.00    -0.311 N 
ATOM      5  H   UNL A   1      44.589 -18.090 -37.070  0.00  0.00    +0.000 HD
BRANCH   2   7
ATOM      6  C   UNL A   1      45.094 -18.453 -39.298  0.00  0.00    -0.039 C 
ATOM      7  C   UNL A   1      45.415 -17.145 -39.258  0.00  0.00    +0.079 C 
BRANCH   6  10
ATOM      8  C   UNL A   1      46.120 -21.262 -41.587  0.00  0.00    +0.162 A 
ATOM      9  C   UNL A   1      46.053 -20.399 -40.487  0.00  0.00    -0.009 A 
ATOM     10  C   UNL A   1      45.153 -19.322 -40.478  0.00  0.00    -0.021 A 
ATOM     11  C   UNL A   1      44.305 -19.121 -41.572  0.00  0.00    -0.051 A 
ATOM     12  C   UNL A   1      44.362 -19.975 -42.672  0.00  0.00    -0.016 A 
ATOM     13  C   UNL A   1      45.264 -21.037 -42.674  0.00  0.00    +0.158 A 
BRANCH   8  15
ATOM     14  C   UNL A   1      48.236 -22.237 -41.069  0.00  0.00    +0.079 C 
ATOM     15  O   UNL A   1      46.964 -22.336 -41.693  0.00  0.00    -0.491 OA
ENDBRANCH   8  15
BRANCH  13  16
ATOM     16  O   UNL A   1      45.321 -21.878 -43.754  0.00  0.00    -0.503 OA
ATOM     17  H   UNL A   1      45.004 -21.591 -44.588  0.00  0.00    +0.000 HD
ENDBRANCH  13  16
ENDBRANCH   6  10
BRANCH   7  18
ATOM     18  C   UNL A   1      45.919 -16.427 -40.456  0.00  0.00    +0.165 C 
ATOM     19  C   UNL A   1      47.387 -16.530 -40.769  0.00  0.00    -0.001 C 
ATOM     20  O   UNL A   1      45.155 -15.739 -41.134  0.00  0.00    -0.292 OA
ENDBRANCH   7  18
ENDBRANCH   2   7
ENDBRANCH   1   4
BRANCH   1  21
ATOM     21  C   UNL A   1      43.832 -17.482 -34.698  0.00  0.00    -0.036 C 
BRANCH  21  22
ATOM     22  C   UNL A   1      44.532 -18.816 -34.443  0.00  0.00    -0.036 C 
BRANCH  22  23
ATOM     23  C   UNL A   1      43.709 -19.989 -34.978  0.00  0.00    +0.009 C 
BRANCH  23  24
ATOM     24  N   UNL A   1      42.445 -19.470 -35.520  0.00  0.00    -0.343 N 
ATOM     25  H   UNL A   1      42.243 -18.513 -35.628  0.00  0.00    +0.000 HD
BRANCH  24  26
ATOM     26  C   UNL A   1      41.547 -20.525 -35.871  0.00  0.00    +0.041 A 
ATOM     27  C   UNL A   1      41.605 -21.117 -37.150  0.00  0.00    -0.005 A 
ATOM     28  C   UNL A   1      40.735 -22.180 -37.409  0.00  0.00    +0.047 A 
ATOM     29  N   UNL A   1      39.892 -22.695 -36.482  0.00  0.00    -0.251 NA
ATOM     30  C   UNL A   1      39.850 -22.141 -35.263  0.00  0.00    +0.073 A 
ATOM     31  C   UNL A   1      38.970 -22.676 -34.330  0.00  0.00    -0.036 A 
ATOM     32  C   UNL A   1      38.847 -22.150 -33.042  0.00  0.00    -0.060 A 
ATOM     33  C   UNL A   1      39.614 -21.054 -32.674  0.00  0.00    -0.061 A 
ATOM     34  C   UNL A   1      40.504 -20.504 -33.596  0.00  0.00    -0.051 A 
ATOM     35  C   UNL A   1      40.651 -21.044 -34.897  0.00  0.00    +0.021 A 
ATOM     36  C   UNL A   1      40.712 -22.882 -38.744  0.00  0.00    -0.010 C 
ATOM     37  C   UNL A   1      41.305 -22.048 -39.872  0.00  0.00    -0.047 C 
ATOM     38  C   UNL A   1      42.659 -21.504 -39.446  0.00  0.00    -0.049 C 
ATOM     39  C   UNL A   1      42.511 -20.583 -38.235  0.00  0.00    -0.024 C 
ENDBRANCH  24  26
ENDBRANCH  23  24
ENDBRANCH  22  23
ENDBRANCH  21  22
ENDBRANCH   1  21
TORSDOF 11
ENDMDL
MODEL 20
REMARK VINA RESULT:    -6.810      3.758      8.420
REMARK INTER + INTRA:         -12.705
REMARK INTER:                 -10.123
REMARK INTRA:                  -2.582
REMARK UNBOUND:                -1.716
REMARK  Name = cpd336.pdb
REMARK  13 active torsions:
REMARK  status: ('A' for Active; 'I' for Inactive)
REMARK    1  A    between atoms: C_1  and  O_2
REMARK    2  A    between atoms: O_2  and  C_3
REMARK    3  A    between atoms: C_5  and  C_6
REMARK    4  A    between atoms: C_7  and  C_8
REMARK    5  A    between atoms: C_7  and  C_11
REMARK    6  A    between atoms: C_8  and  C_9
REMARK    7  A    between atoms: N_13  and  C_14
REMARK    8  A    between atoms: C_14  and  C_15
REMARK    9  A    between atoms: C_15  and  C_16
REMARK   10  A    between atoms: C_16  and  C_17
REMARK   11  A    between atoms: C_17  and  N_18
REMARK   12  A    between atoms: N_18  and  C_19
REMARK   13  A    between atoms: C_35  and  O_36
REMARK                            x       y       z     vdW  Elec       q    Type
REMARK                         _______ _______ _______ _____ _____    ______ ____
ROOT
ATOM      1  C   UNL A   1      41.287 -16.600 -37.270  0.00  0.00    +0.012 C 
ENDROOT
BRANCH   1   4
ATOM      2  C   UNL A   1      43.561 -17.164 -38.052  0.00  0.00    +0.247 C 
ATOM      3  O   UNL A   1      44.115 -16.377 -37.294  0.00  0.00    -0.270 OA
ATOM      4  N   UNL A   1      42.199 -17.359 -38.102  0.00  0.00    -0.311 N 
ATOM      5  H   UNL A   1      41.834 -18.033 -38.721  0.00  0.00    +0.000 HD
BRANCH   2   7
ATOM      6  C   UNL A   1      43.885 -19.167 -39.416  0.00  0.00    -0.039 C 
ATOM      7  C   UNL A   1      44.334 -17.952 -39.045  0.00  0.00    +0.079 C 
BRANCH   6  10
ATOM      8  C   UNL A   1      46.223 -21.874 -40.593  0.00  0.00    +0.162 A 
ATOM      9  C   UNL A   1      45.563 -20.949 -39.777  0.00  0.00    -0.009 A 
ATOM     10  C   UNL A   1      44.572 -20.108 -40.307  0.00  0.00    -0.021 A 
ATOM     11  C   UNL A   1      44.230 -20.210 -41.659  0.00  0.00    -0.051 A 
ATOM     12  C   UNL A   1      44.880 -21.129 -42.481  0.00  0.00    -0.016 A 
ATOM     13  C   UNL A   1      45.868 -21.954 -41.947  0.00  0.00    +0.158 A 
BRANCH   8  15
ATOM     14  C   UNL A   1      48.533 -22.237 -40.115  0.00  0.00    +0.079 C 
ATOM     15  O   UNL A   1      47.204 -22.734 -40.173  0.00  0.00    -0.491 OA
ENDBRANCH   8  15
BRANCH  13  16
ATOM     16  O   UNL A   1      46.507 -22.859 -42.753  0.00  0.00    -0.503 OA
ATOM     17  H   UNL A   1      46.223 -23.752 -42.773  0.00  0.00    +0.000 HD
ENDBRANCH  13  16
ENDBRANCH   6  10
BRANCH   7  18
ATOM     18  C   UNL A   1      45.651 -17.435 -39.497  0.00  0.00    +0.165 C 
ATOM     19  C   UNL A   1      45.685 -16.606 -40.751  0.00  0.00    -0.001 C 
ATOM     20  O   UNL A   1      46.676 -17.723 -38.878  0.00  0.00    -0.292 OA
ENDBRANCH   7  18
ENDBRANCH   2   7
ENDBRANCH   1   4
BRANCH   1  21
ATOM     21  C   UNL A   1      39.987 -16.276 -38.004  0.00  0.00    -0.036 C 
BRANCH  21  22
ATOM     22  C   UNL A   1      38.774 -16.797 -37.234  0.00  0.00    -0.036 C 
BRANCH  22  23
ATOM     23  C   UNL A   1      39.173 -17.869 -36.221  0.00  0.00    +0.009 C 
BRANCH  23  24
ATOM     24  N   UNL A   1      38.419 -19.097 -36.512  0.00  0.00    -0.343 N 
ATOM     25  H   UNL A   1      37.465 -19.114 -36.756  0.00  0.00    +0.000 HD
BRANCH  24  26
ATOM     26  C   UNL A   1      39.239 -20.262 -36.397  0.00  0.00    +0.041 A 
ATOM     27  C   UNL A   1      39.315 -20.965 -35.176  0.00  0.00    -0.005 A 
ATOM     28  C   UNL A   1      40.092 -22.127 -35.148  0.00  0.00    +0.047 A 
ATOM     29  N   UNL A   1      40.719 -22.629 -36.238  0.00  0.00    -0.251 NA
ATOM     30  C   UNL A   1      40.633 -21.968 -37.400  0.00  0.00    +0.073 A 
ATOM     31  C   UNL A   1      41.293 -22.494 -38.504  0.00  0.00    -0.036 A 
ATOM     32  C   UNL A   1      41.273 -21.862 -39.749  0.00  0.00    -0.060 A 
ATOM     33  C   UNL A   1      40.584 -20.667 -39.899  0.00  0.00    -0.061 A 
ATOM     34  C   UNL A   1      39.914 -20.124 -38.804  0.00  0.00    -0.051 A 
ATOM     35  C   UNL A   1      39.911 -20.769 -37.543  0.00  0.00    +0.021 A 
ATOM     36  C   UNL A   1      40.244 -22.952 -33.895  0.00  0.00    -0.010 C 
ATOM     37  C   UNL A   1      39.929 -22.176 -32.623  0.00  0.00    -0.047 C 
ATOM     38  C   UNL A   1      38.593 -21.466 -32.777  0.00  0.00    -0.049 C 
ATOM     39  C   UNL A   1      38.653 -20.452 -33.918  0.00  0.00    -0.024 C 
ENDBRANCH  24  26
ENDBRANCH  23  24
ENDBRANCH  22  23
ENDBRANCH  21  22
ENDBRANCH   1  21
TORSDOF 11
ENDMDL
