REMARK  Name = cpd336.pdb
REMARK  13 active torsions:
REMARK  status: ('A' for Active; 'I' for Inactive)
REMARK    1  A    between atoms: C_1  and  O_2
REMARK    2  A    between atoms: O_2  and  C_3
REMARK    3  A    between atoms: C_5  and  C_6
REMARK    4  A    between atoms: C_7  and  C_8
REMARK    5  A    between atoms: C_7  and  C_11
REMARK    6  A    between atoms: C_8  and  C_9
REMARK    7  A    between atoms: N_13  and  C_14
REMARK    8  A    between atoms: C_14  and  C_15
REMARK    9  A    between atoms: C_15  and  C_16
REMARK   10  A    between atoms: C_16  and  C_17
REMARK   11  A    between atoms: C_17  and  N_18
REMARK   12  A    between atoms: N_18  and  C_19
REMARK   13  A    between atoms: C_35  and  O_36
REMARK                            x       y       z     vdW  Elec       q    Type
REMARK                         _______ _______ _______ _____ _____    ______ ____
ROOT
ATOM      1  C   UNL A   1       4.916   2.999  -1.236  0.00  0.00    +0.012 C 
ENDROOT
BRANCH   1   4
ATOM      2  C   UNL A   1       3.210   2.275   0.397  0.00  0.00    +0.247 C 
ATOM      3  O   UNL A   1       3.663   2.956   1.309  0.00  0.00    -0.270 OA
ATOM      4  N   UNL A   1       3.734   2.242  -0.876  0.00  0.00    -0.311 N 
ATOM      5  H   UNL A   1       3.293   1.689  -1.561  0.00  0.00    +0.000 HD
BRANCH   2   7
ATOM      6  C   UNL A   1       1.031   1.378  -0.255  0.00  0.00    -0.039 C 
ATOM      7  C   UNL A   1       2.060   1.361   0.615  0.00  0.00    +0.079 C 
BRANCH   6  10
ATOM      8  C   UNL A   1      -2.635   0.608   0.131  0.00  0.00    +0.162 A 
ATOM      9  C   UNL A   1      -1.425   1.304   0.036  0.00  0.00    -0.009 A 
ATOM     10  C   UNL A   1      -0.215   0.613  -0.135  0.00  0.00    -0.021 A 
ATOM     11  C   UNL A   1      -0.223  -0.782  -0.228  0.00  0.00    -0.051 A 
ATOM     12  C   UNL A   1      -1.423  -1.486  -0.136  0.00  0.00    -0.016 A 
ATOM     13  C   UNL A   1      -2.618  -0.791   0.041  0.00  0.00    +0.158 A 
BRANCH   8  15
ATOM     14  C   UNL A   1      -3.906   2.592   0.510  0.00  0.00    +0.079 C 
ATOM     15  O   UNL A   1      -3.865   1.188   0.302  0.00  0.00    -0.491 OA
ENDBRANCH   8  15
BRANCH  13  16
ATOM     16  O   UNL A   1      -3.798  -1.481   0.131  0.00  0.00    -0.503 OA
ATOM     17  H   UNL A   1      -4.604  -1.018   0.250  0.00  0.00    +0.000 HD
ENDBRANCH  13  16
ENDBRANCH   6  10
BRANCH   7  18
ATOM     18  C   UNL A   1       2.017   0.553   1.860  0.00  0.00    +0.165 C 
ATOM     19  C   UNL A   1       1.856   1.284   3.165  0.00  0.00    -0.001 C 
ATOM     20  O   UNL A   1       2.155  -0.670   1.811  0.00  0.00    -0.292 OA
ENDBRANCH   7  18
ENDBRANCH   2   7
ENDBRANCH   1   4
BRANCH   1  21
ATOM     21  C   UNL A   1       6.193   2.323  -0.742  0.00  0.00    -0.036 C 
BRANCH  21  22
ATOM     22  C   UNL A   1       7.436   3.035  -1.274  0.00  0.00    -0.036 C 
BRANCH  22  23
ATOM     23  C   UNL A   1       8.717   2.411  -0.720  0.00  0.00    +0.009 C 
BRANCH  23  24
ATOM     24  N   UNL A   1       9.870   3.017  -1.401  0.00  0.00    -0.343 N 
ATOM     25  H   UNL A   1       9.799   3.717  -2.090  0.00  0.00    +0.000 HD
BRANCH  24  26
ATOM     26  C   UNL A   1      11.106   2.467  -0.941  0.00  0.00    +0.041 A 
ATOM     27  C   UNL A   1      11.836   3.106   0.083  0.00  0.00    -0.005 A 
ATOM     28  C   UNL A   1      13.009   2.486   0.523  0.00  0.00    +0.047 A 
ATOM     29  N   UNL A   1      13.438   1.289   0.057  0.00  0.00    -0.251 NA
ATOM     30  C   UNL A   1      12.735   0.676  -0.905  0.00  0.00    +0.073 A 
ATOM     31  C   UNL A   1      13.198  -0.546  -1.378  0.00  0.00    -0.036 A 
ATOM     32  C   UNL A   1      12.539  -1.245  -2.391  0.00  0.00    -0.060 A 
ATOM     33  C   UNL A   1      11.391  -0.710  -2.957  0.00  0.00    -0.061 A 
ATOM     34  C   UNL A   1      10.909   0.514  -2.495  0.00  0.00    -0.051 A 
ATOM     35  C   UNL A   1      11.559   1.220  -1.453  0.00  0.00    +0.021 A 
ATOM     36  C   UNL A   1      13.866   3.085   1.610  0.00  0.00    -0.010 C 
ATOM     37  C   UNL A   1      13.638   4.579   1.800  0.00  0.00    -0.047 C 
ATOM     38  C   UNL A   1      12.148   4.856   1.919  0.00  0.00    -0.049 C 
ATOM     39  C   UNL A   1      11.422   4.450   0.637  0.00  0.00    -0.024 C 
ENDBRANCH  24  26
ENDBRANCH  23  24
ENDBRANCH  22  23
ENDBRANCH  21  22
ENDBRANCH   1  21
TORSDOF 11
