MODEL 1
REMARK VINA RESULT:    -8.260      0.000      0.000
REMARK INTER + INTRA:         -10.392
REMARK INTER:                  -9.708
REMARK INTRA:                  -0.684
REMARK UNBOUND:                -0.684
REMARK  Name = cpd114.pdb
REMARK  6 active torsions:
REMARK  status: ('A' for Active; 'I' for Inactive)
REMARK    1  A    between atoms: C_1  and  C_2
REMARK    2  A    between atoms: C_6  and  C_7
REMARK    3  A    between atoms: C_9  and  N_10
REMARK    4  A    between atoms: C_11  and  C_12
REMARK    5  A    between atoms: C_15  and  O_16
REMARK    6  A    between atoms: O_16  and  C_17
REMARK                            x       y       z     vdW  Elec       q    Type
REMARK                         _______ _______ _______ _____ _____    ______ ____
ROOT
ATOM      1  C   UNL A   1      34.834 -37.581 -26.060  0.00  0.00    -0.046 C 
ATOM      2  C   UNL A   1      34.941 -37.118 -27.479  0.00  0.00    -0.085 C 
ATOM      3  C   UNL A   1      35.635 -37.675 -28.495  0.00  0.00    -0.035 C 
ATOM      4  C   UNL A   1      36.502 -38.917 -28.351  0.00  0.00    +0.006 C 
ATOM      5  C   UNL A   1      36.290 -39.916 -29.466  0.00  0.00    -0.077 C 
ATOM      6  C   UNL A   1      35.784 -39.600 -30.669  0.00  0.00    -0.073 C 
ATOM      7  C   UNL A   1      35.596 -40.615 -31.758  0.00  0.00    -0.044 C 
ATOM      8  C   UNL A   1      35.374 -38.180 -30.993  0.00  0.00    +0.001 C 
ATOM      9  C   UNL A   1      35.770 -37.109 -29.916  0.00  0.00    +0.113 C 
ATOM     10  C   UNL A   1      37.246 -36.736 -30.143  0.00  0.00    -0.000 C 
ATOM     11  C   UNL A   1      37.696 -35.692 -30.863  0.00  0.00    -0.068 C 
ATOM     12  C   UNL A   1      39.148 -35.423 -31.080  0.00  0.00    +0.045 C 
ATOM     13  C   UNL A   1      39.996 -36.656 -30.800  0.00  0.00    +0.240 C 
ATOM     14  O   UNL A   1      41.053 -36.826 -31.402  0.00  0.00    -0.273 OA
ATOM     15  N   UNL A   1      39.587 -37.497 -29.792  0.00  0.00    -0.185 NA
ATOM     16  C   UNL A   1      38.326 -37.551 -29.493  0.00  0.00    +0.040 C 
ATOM     17  C   UNL A   1      37.958 -38.461 -28.325  0.00  0.00    -0.002 C 
ENDROOT
BRANCH   9  18
ATOM     18  N   UNL A   1      34.973 -35.873 -30.123  0.00  0.00    -0.275 NA
ATOM     19  C   UNL A   1      33.854 -35.938 -30.753  0.00  0.00    +0.031 C 
BRANCH  19  20
ATOM     20  C   UNL A   1      33.036 -34.735 -31.004  0.00  0.00    -0.007 A 
ATOM     21  C   UNL A   1      33.485 -33.500 -30.531  0.00  0.00    -0.050 A 
ATOM     22  C   UNL A   1      32.724 -32.347 -30.755  0.00  0.00    -0.019 A 
ATOM     23  C   UNL A   1      31.515 -32.425 -31.451  0.00  0.00    +0.120 A 
ATOM     24  C   UNL A   1      31.077 -33.666 -31.924  0.00  0.00    -0.019 A 
ATOM     25  C   UNL A   1      31.830 -34.821 -31.703  0.00  0.00    -0.050 A 
BRANCH  23  26
ATOM     26  O   UNL A   1      30.681 -31.381 -31.734  0.00  0.00    -0.495 OA
ATOM     27  C   UNL A   1      30.780 -30.231 -30.903  0.00  0.00    +0.079 C 
ENDBRANCH  23  26
ENDBRANCH  19  20
ENDBRANCH   9  18
TORSDOF 3
ENDMDL
MODEL 2
REMARK VINA RESULT:    -6.908     17.909     20.520
REMARK INTER + INTRA:          -8.804
REMARK INTER:                  -8.121
REMARK INTRA:                  -0.683
REMARK UNBOUND:                -0.684
REMARK  Name = cpd114.pdb
REMARK  6 active torsions:
REMARK  status: ('A' for Active; 'I' for Inactive)
REMARK    1  A    between atoms: C_1  and  C_2
REMARK    2  A    between atoms: C_6  and  C_7
REMARK    3  A    between atoms: C_9  and  N_10
REMARK    4  A    between atoms: C_11  and  C_12
REMARK    5  A    between atoms: C_15  and  O_16
REMARK    6  A    between atoms: O_16  and  C_17
REMARK                            x       y       z     vdW  Elec       q    Type
REMARK                         _______ _______ _______ _____ _____    ______ ____
ROOT
ATOM      1  C   UNL A   1      42.278 -16.244 -39.830  0.00  0.00    -0.046 C 
ATOM      2  C   UNL A   1      42.727 -17.562 -39.280  0.00  0.00    -0.085 C 
ATOM      3  C   UNL A   1      43.988 -18.017 -39.113  0.00  0.00    -0.035 C 
ATOM      4  C   UNL A   1      45.231 -17.238 -39.511  0.00  0.00    +0.006 C 
ATOM      5  C   UNL A   1      46.306 -17.260 -38.448  0.00  0.00    -0.077 C 
ATOM      6  C   UNL A   1      46.393 -18.196 -37.489  0.00  0.00    -0.073 C 
ATOM      7  C   UNL A   1      47.479 -18.195 -36.454  0.00  0.00    -0.044 C 
ATOM      8  C   UNL A   1      45.384 -19.321 -37.405  0.00  0.00    +0.001 C 
ATOM      9  C   UNL A   1      44.387 -19.413 -38.614  0.00  0.00    +0.113 C 
ATOM     10  C   UNL A   1      45.105 -20.143 -39.762  0.00  0.00    -0.000 C 
ATOM     11  C   UNL A   1      45.033 -21.460 -40.032  0.00  0.00    -0.068 C 
ATOM     12  C   UNL A   1      45.801 -22.105 -41.137  0.00  0.00    +0.045 C 
ATOM     13  C   UNL A   1      46.962 -21.234 -41.596  0.00  0.00    +0.240 C 
ATOM     14  O   UNL A   1      47.978 -21.753 -42.053  0.00  0.00    -0.273 OA
ATOM     15  N   UNL A   1      46.786 -19.871 -41.575  0.00  0.00    -0.185 NA
ATOM     16  C   UNL A   1      45.947 -19.360 -40.728  0.00  0.00    +0.040 C 
ATOM     17  C   UNL A   1      45.762 -17.848 -40.805  0.00  0.00    -0.002 C 
ENDROOT
BRANCH   9  18
ATOM     18  N   UNL A   1      43.217 -20.247 -38.235  0.00  0.00    -0.275 NA
ATOM     19  C   UNL A   1      42.961 -20.453 -36.992  0.00  0.00    +0.031 C 
BRANCH  19  20
ATOM     20  C   UNL A   1      41.825 -21.293 -36.564  0.00  0.00    -0.007 A 
ATOM     21  C   UNL A   1      41.472 -21.316 -35.212  0.00  0.00    -0.050 A 
ATOM     22  C   UNL A   1      40.401 -22.107 -34.782  0.00  0.00    -0.019 A 
ATOM     23  C   UNL A   1      39.680 -22.875 -35.701  0.00  0.00    +0.120 A 
ATOM     24  C   UNL A   1      40.040 -22.841 -37.051  0.00  0.00    -0.019 A 
ATOM     25  C   UNL A   1      41.108 -22.056 -37.487  0.00  0.00    -0.050 A 
BRANCH  23  26
ATOM     26  O   UNL A   1      38.620 -23.687 -35.413  0.00  0.00    -0.495 OA
ATOM     27  C   UNL A   1      38.405 -24.009 -34.045  0.00  0.00    +0.079 C 
ENDBRANCH  23  26
ENDBRANCH  19  20
ENDBRANCH   9  18
TORSDOF 3
ENDMDL
MODEL 3
REMARK VINA RESULT:    -6.779      3.403      6.626
REMARK INTER + INTRA:          -8.651
REMARK INTER:                  -7.971
REMARK INTRA:                  -0.680
REMARK UNBOUND:                -0.684
REMARK  Name = cpd114.pdb
REMARK  6 active torsions:
REMARK  status: ('A' for Active; 'I' for Inactive)
REMARK    1  A    between atoms: C_1  and  C_2
REMARK    2  A    between atoms: C_6  and  C_7
REMARK    3  A    between atoms: C_9  and  N_10
REMARK    4  A    between atoms: C_11  and  C_12
REMARK    5  A    between atoms: C_15  and  O_16
REMARK    6  A    between atoms: O_16  and  C_17
REMARK                            x       y       z     vdW  Elec       q    Type
REMARK                         _______ _______ _______ _____ _____    ______ ____
ROOT
ATOM      1  C   UNL A   1      32.711 -38.908 -27.350  0.00  0.00    -0.046 C 
ATOM      2  C   UNL A   1      33.236 -38.714 -28.738  0.00  0.00    -0.085 C 
ATOM      3  C   UNL A   1      34.163 -37.832 -29.172  0.00  0.00    -0.035 C 
ATOM      4  C   UNL A   1      34.841 -36.806 -28.277  0.00  0.00    +0.006 C 
ATOM      5  C   UNL A   1      36.336 -36.733 -28.493  0.00  0.00    -0.077 C 
ATOM      6  C   UNL A   1      36.953 -37.143 -29.613  0.00  0.00    -0.073 C 
ATOM      7  C   UNL A   1      38.439 -37.048 -29.799  0.00  0.00    -0.044 C 
ATOM      8  C   UNL A   1      36.166 -37.728 -30.765  0.00  0.00    +0.001 C 
ATOM      9  C   UNL A   1      34.606 -37.627 -30.627  0.00  0.00    +0.113 C 
ATOM     10  C   UNL A   1      34.185 -36.211 -31.059  0.00  0.00    -0.000 C 
ATOM     11  C   UNL A   1      33.767 -35.849 -32.285  0.00  0.00    -0.068 C 
ATOM     12  C   UNL A   1      33.423 -34.441 -32.642  0.00  0.00    +0.045 C 
ATOM     13  C   UNL A   1      34.014 -33.450 -31.649  0.00  0.00    +0.240 C 
ATOM     14  O   UNL A   1      34.319 -32.318 -32.016  0.00  0.00    -0.273 OA
ATOM     15  N   UNL A   1      34.090 -33.835 -30.331  0.00  0.00    -0.185 NA
ATOM     16  C   UNL A   1      34.184 -35.098 -30.051  0.00  0.00    +0.040 C 
ATOM     17  C   UNL A   1      34.203 -35.450 -28.567  0.00  0.00    -0.002 C 
ENDROOT
BRANCH   9  18
ATOM     18  N   UNL A   1      33.958 -38.577 -31.567  0.00  0.00    -0.275 NA
ATOM     19  C   UNL A   1      34.657 -39.512 -32.107  0.00  0.00    +0.031 C 
BRANCH  19  20
ATOM     20  C   UNL A   1      34.065 -40.467 -33.065  0.00  0.00    -0.007 A 
ATOM     21  C   UNL A   1      34.634 -41.736 -33.193  0.00  0.00    -0.050 A 
ATOM     22  C   UNL A   1      34.092 -42.657 -34.097  0.00  0.00    -0.019 A 
ATOM     23  C   UNL A   1      32.983 -42.312 -34.873  0.00  0.00    +0.120 A 
ATOM     24  C   UNL A   1      32.420 -41.040 -34.734  0.00  0.00    -0.019 A 
ATOM     25  C   UNL A   1      32.956 -40.116 -33.836  0.00  0.00    -0.050 A 
BRANCH  23  26
ATOM     26  O   UNL A   1      32.362 -43.113 -35.789  0.00  0.00    -0.495 OA
ATOM     27  C   UNL A   1      33.153 -43.595 -36.868  0.00  0.00    +0.079 C 
ENDBRANCH  23  26
ENDBRANCH  19  20
ENDBRANCH   9  18
TORSDOF 3
ENDMDL
MODEL 4
REMARK VINA RESULT:    -6.763     15.190     18.440
REMARK INTER + INTRA:          -8.632
REMARK INTER:                  -7.953
REMARK INTRA:                  -0.680
REMARK UNBOUND:                -0.684
REMARK  Name = cpd114.pdb
REMARK  6 active torsions:
REMARK  status: ('A' for Active; 'I' for Inactive)
REMARK    1  A    between atoms: C_1  and  C_2
REMARK    2  A    between atoms: C_6  and  C_7
REMARK    3  A    between atoms: C_9  and  N_10
REMARK    4  A    between atoms: C_11  and  C_12
REMARK    5  A    between atoms: C_15  and  O_16
REMARK    6  A    between atoms: O_16  and  C_17
REMARK                            x       y       z     vdW  Elec       q    Type
REMARK                         _______ _______ _______ _____ _____    ______ ____
ROOT
ATOM      1  C   UNL A   1      43.148 -18.827 -33.182  0.00  0.00    -0.046 C 
ATOM      2  C   UNL A   1      42.276 -19.434 -34.236  0.00  0.00    -0.085 C 
ATOM      3  C   UNL A   1      40.937 -19.619 -34.216  0.00  0.00    -0.035 C 
ATOM      4  C   UNL A   1      40.048 -19.253 -33.038  0.00  0.00    +0.006 C 
ATOM      5  C   UNL A   1      38.788 -18.528 -33.454  0.00  0.00    -0.077 C 
ATOM      6  C   UNL A   1      38.258 -18.592 -34.687  0.00  0.00    -0.073 C 
ATOM      7  C   UNL A   1      37.000 -17.867 -35.064  0.00  0.00    -0.044 C 
ATOM      8  C   UNL A   1      38.914 -19.415 -35.774  0.00  0.00    +0.001 C 
ATOM      9  C   UNL A   1      40.105 -20.320 -35.299  0.00  0.00    +0.113 C 
ATOM     10  C   UNL A   1      39.509 -21.601 -34.688  0.00  0.00    -0.000 C 
ATOM     11  C   UNL A   1      39.315 -22.767 -35.330  0.00  0.00    -0.068 C 
ATOM     12  C   UNL A   1      38.683 -23.954 -34.682  0.00  0.00    +0.045 C 
ATOM     13  C   UNL A   1      37.907 -23.564 -33.431  0.00  0.00    +0.240 C 
ATOM     14  O   UNL A   1      36.926 -24.219 -33.086  0.00  0.00    -0.273 OA
ATOM     15  N   UNL A   1      38.403 -22.535 -32.666  0.00  0.00    -0.185 NA
ATOM     16  C   UNL A   1      39.127 -21.622 -33.236  0.00  0.00    +0.040 C 
ATOM     17  C   UNL A   1      39.692 -20.548 -32.312  0.00  0.00    -0.002 C 
ENDROOT
BRANCH   9  18
ATOM     18  N   UNL A   1      40.916 -20.736 -36.472  0.00  0.00    -0.275 NA
ATOM     19  C   UNL A   1      40.780 -20.114 -37.590  0.00  0.00    +0.031 C 
BRANCH  19  20
ATOM     20  C   UNL A   1      41.545 -20.503 -38.790  0.00  0.00    -0.007 A 
ATOM     21  C   UNL A   1      40.941 -21.330 -39.740  0.00  0.00    -0.050 A 
ATOM     22  C   UNL A   1      41.648 -21.715 -40.885  0.00  0.00    -0.019 A 
ATOM     23  C   UNL A   1      42.959 -21.274 -41.082  0.00  0.00    +0.120 A 
ATOM     24  C   UNL A   1      43.553 -20.444 -40.128  0.00  0.00    -0.019 A 
ATOM     25  C   UNL A   1      42.854 -20.057 -38.983  0.00  0.00    -0.050 A 
BRANCH  23  26
ATOM     26  O   UNL A   1      43.756 -21.576 -42.150  0.00  0.00    -0.495 OA
ATOM     27  C   UNL A   1      44.660 -20.569 -42.588  0.00  0.00    +0.079 C 
ENDBRANCH  23  26
ENDBRANCH  19  20
ENDBRANCH   9  18
TORSDOF 3
ENDMDL
MODEL 5
REMARK VINA RESULT:    -6.635      3.246      6.411
REMARK INTER + INTRA:          -8.482
REMARK INTER:                  -7.774
REMARK INTRA:                  -0.708
REMARK UNBOUND:                -0.684
REMARK  Name = cpd114.pdb
REMARK  6 active torsions:
REMARK  status: ('A' for Active; 'I' for Inactive)
REMARK    1  A    between atoms: C_1  and  C_2
REMARK    2  A    between atoms: C_6  and  C_7
REMARK    3  A    between atoms: C_9  and  N_10
REMARK    4  A    between atoms: C_11  and  C_12
REMARK    5  A    between atoms: C_15  and  O_16
REMARK    6  A    between atoms: O_16  and  C_17
REMARK                            x       y       z     vdW  Elec       q    Type
REMARK                         _______ _______ _______ _____ _____    ______ ____
ROOT
ATOM      1  C   UNL A   1      30.954 -37.597 -31.279  0.00  0.00    -0.046 C 
ATOM      2  C   UNL A   1      31.922 -37.071 -30.266  0.00  0.00    -0.085 C 
ATOM      3  C   UNL A   1      32.828 -36.078 -30.405  0.00  0.00    -0.035 C 
ATOM      4  C   UNL A   1      33.052 -35.309 -31.698  0.00  0.00    +0.006 C 
ATOM      5  C   UNL A   1      33.152 -33.816 -31.485  0.00  0.00    -0.077 C 
ATOM      6  C   UNL A   1      33.474 -33.245 -30.313  0.00  0.00    -0.073 C 
ATOM      7  C   UNL A   1      33.574 -31.758 -30.138  0.00  0.00    -0.044 C 
ATOM      8  C   UNL A   1      33.762 -34.088 -29.090  0.00  0.00    +0.001 C 
ATOM      9  C   UNL A   1      33.851 -35.633 -29.351  0.00  0.00    +0.113 C 
ATOM     10  C   UNL A   1      35.259 -35.939 -29.893  0.00  0.00    -0.000 C 
ATOM     11  C   UNL A   1      36.318 -36.337 -29.166  0.00  0.00    -0.068 C 
ATOM     12  C   UNL A   1      37.669 -36.567 -29.758  0.00  0.00    +0.045 C 
ATOM     13  C   UNL A   1      37.810 -35.887 -31.113  0.00  0.00    +0.240 C 
ATOM     14  O   UNL A   1      38.911 -35.493 -31.492  0.00  0.00    -0.273 OA
ATOM     15  N   UNL A   1      36.698 -35.831 -31.918  0.00  0.00    -0.185 NA
ATOM     16  C   UNL A   1      35.524 -35.840 -31.368  0.00  0.00    +0.040 C 
ATOM     17  C   UNL A   1      34.339 -35.836 -32.329  0.00  0.00    -0.002 C 
ENDROOT
BRANCH   9  18
ATOM     18  N   UNL A   1      33.713 -36.366 -28.066  0.00  0.00    -0.275 NA
ATOM     19  C   UNL A   1      33.199 -35.771 -27.048  0.00  0.00    +0.031 C 
BRANCH  19  20
ATOM     20  C   UNL A   1      33.061 -36.448 -25.744  0.00  0.00    -0.007 A 
ATOM     21  C   UNL A   1      33.643 -37.706 -25.569  0.00  0.00    -0.050 A 
ATOM     22  C   UNL A   1      33.521 -38.368 -24.342  0.00  0.00    -0.019 A 
ATOM     23  C   UNL A   1      32.820 -37.775 -23.289  0.00  0.00    +0.120 A 
ATOM     24  C   UNL A   1      32.244 -36.514 -23.474  0.00  0.00    -0.019 A 
ATOM     25  C   UNL A   1      32.360 -35.849 -24.696  0.00  0.00    -0.050 A 
BRANCH  23  26
ATOM     26  O   UNL A   1      32.627 -38.313 -22.048  0.00  0.00    -0.495 OA
ATOM     27  C   UNL A   1      31.443 -37.935 -21.356  0.00  0.00    +0.079 C 
ENDBRANCH  23  26
ENDBRANCH  19  20
ENDBRANCH   9  18
TORSDOF 3
ENDMDL
MODEL 6
REMARK VINA RESULT:    -6.627     17.152     20.417
REMARK INTER + INTRA:          -8.473
REMARK INTER:                  -7.778
REMARK INTRA:                  -0.695
REMARK UNBOUND:                -0.684
REMARK  Name = cpd114.pdb
REMARK  6 active torsions:
REMARK  status: ('A' for Active; 'I' for Inactive)
REMARK    1  A    between atoms: C_1  and  C_2
REMARK    2  A    between atoms: C_6  and  C_7
REMARK    3  A    between atoms: C_9  and  N_10
REMARK    4  A    between atoms: C_11  and  C_12
REMARK    5  A    between atoms: C_15  and  O_16
REMARK    6  A    between atoms: O_16  and  C_17
REMARK                            x       y       z     vdW  Elec       q    Type
REMARK                         _______ _______ _______ _____ _____    ______ ____
ROOT
ATOM      1  C   UNL A   1      45.721 -18.401 -34.733  0.00  0.00    -0.046 C 
ATOM      2  C   UNL A   1      44.897 -19.022 -35.817  0.00  0.00    -0.085 C 
ATOM      3  C   UNL A   1      43.573 -18.884 -36.051  0.00  0.00    -0.035 C 
ATOM      4  C   UNL A   1      42.639 -18.058 -35.181  0.00  0.00    +0.006 C 
ATOM      5  C   UNL A   1      41.706 -17.181 -35.986  0.00  0.00    -0.077 C 
ATOM      6  C   UNL A   1      41.383 -17.410 -37.269  0.00  0.00    -0.073 C 
ATOM      7  C   UNL A   1      40.446 -16.525 -38.037  0.00  0.00    -0.044 C 
ATOM      8  C   UNL A   1      41.957 -18.593 -38.017  0.00  0.00    +0.001 C 
ATOM      9  C   UNL A   1      42.766 -19.610 -37.136  0.00  0.00    +0.113 C 
ATOM     10  C   UNL A   1      41.756 -20.539 -36.440  0.00  0.00    -0.000 C 
ATOM     11  C   UNL A   1      41.358 -21.747 -36.878  0.00  0.00    -0.068 C 
ATOM     12  C   UNL A   1      40.333 -22.570 -36.171  0.00  0.00    +0.045 C 
ATOM     13  C   UNL A   1      39.503 -21.729 -35.212  0.00  0.00    +0.240 C 
ATOM     14  O   UNL A   1      38.339 -22.040 -34.969  0.00  0.00    -0.273 OA
ATOM     15  N   UNL A   1      40.130 -20.691 -34.564  0.00  0.00    -0.185 NA
ATOM     16  C   UNL A   1      41.156 -20.130 -35.126  0.00  0.00    +0.040 C 
ATOM     17  C   UNL A   1      41.835 -19.027 -34.319  0.00  0.00    -0.002 C 
ENDROOT
BRANCH   9  18
ATOM     18  N   UNL A   1      43.611 -20.465 -38.009  0.00  0.00    -0.275 NA
ATOM     19  C   UNL A   1      43.806 -20.125 -39.234  0.00  0.00    +0.031 C 
BRANCH  19  20
ATOM     20  C   UNL A   1      44.618 -20.952 -40.148  0.00  0.00    -0.007 A 
ATOM     21  C   UNL A   1      44.186 -21.129 -41.464  0.00  0.00    -0.050 A 
ATOM     22  C   UNL A   1      44.938 -21.912 -42.348  0.00  0.00    -0.019 A 
ATOM     23  C   UNL A   1      46.122 -22.518 -41.918  0.00  0.00    +0.120 A 
ATOM     24  C   UNL A   1      46.547 -22.331 -40.600  0.00  0.00    -0.019 A 
ATOM     25  C   UNL A   1      45.801 -21.552 -39.713  0.00  0.00    -0.050 A 
BRANCH  23  26
ATOM     26  O   UNL A   1      46.944 -23.304 -42.676  0.00  0.00    -0.495 OA
ATOM     27  C   UNL A   1      48.211 -23.635 -42.123  0.00  0.00    +0.079 C 
ENDBRANCH  23  26
ENDBRANCH  19  20
ENDBRANCH   9  18
TORSDOF 3
ENDMDL
MODEL 7
REMARK VINA RESULT:    -6.580     19.934     21.745
REMARK INTER + INTRA:          -8.417
REMARK INTER:                  -7.738
REMARK INTRA:                  -0.679
REMARK UNBOUND:                -0.684
REMARK  Name = cpd114.pdb
REMARK  6 active torsions:
REMARK  status: ('A' for Active; 'I' for Inactive)
REMARK    1  A    between atoms: C_1  and  C_2
REMARK    2  A    between atoms: C_6  and  C_7
REMARK    3  A    between atoms: C_9  and  N_10
REMARK    4  A    between atoms: C_11  and  C_12
REMARK    5  A    between atoms: C_15  and  O_16
REMARK    6  A    between atoms: O_16  and  C_17
REMARK                            x       y       z     vdW  Elec       q    Type
REMARK                         _______ _______ _______ _____ _____    ______ ____
ROOT
ATOM      1  C   UNL A   1      45.933 -15.151 -40.498  0.00  0.00    -0.046 C 
ATOM      2  C   UNL A   1      45.050 -16.329 -40.227  0.00  0.00    -0.085 C 
ATOM      3  C   UNL A   1      45.406 -17.577 -39.849  0.00  0.00    -0.035 C 
ATOM      4  C   UNL A   1      46.846 -18.028 -39.660  0.00  0.00    +0.006 C 
ATOM      5  C   UNL A   1      47.052 -18.822 -38.390  0.00  0.00    -0.077 C 
ATOM      6  C   UNL A   1      46.069 -19.463 -37.737  0.00  0.00    -0.073 C 
ATOM      7  C   UNL A   1      46.309 -20.250 -36.483  0.00  0.00    -0.044 C 
ATOM      8  C   UNL A   1      44.644 -19.424 -38.245  0.00  0.00    +0.001 C 
ATOM      9  C   UNL A   1      44.458 -18.769 -39.660  0.00  0.00    +0.113 C 
ATOM     10  C   UNL A   1      44.807 -19.830 -40.719  0.00  0.00    -0.000 C 
ATOM     11  C   UNL A   1      43.935 -20.640 -41.347  0.00  0.00    -0.068 C 
ATOM     12  C   UNL A   1      44.357 -21.681 -42.329  0.00  0.00    +0.045 C 
ATOM     13  C   UNL A   1      45.836 -22.013 -42.194  0.00  0.00    +0.240 C 
ATOM     14  O   UNL A   1      46.243 -23.137 -42.477  0.00  0.00    -0.273 OA
ATOM     15  N   UNL A   1      46.692 -20.993 -41.851  0.00  0.00    -0.185 NA
ATOM     16  C   UNL A   1      46.232 -19.994 -41.163  0.00  0.00    +0.040 C 
ATOM     17  C   UNL A   1      47.226 -18.873 -40.873  0.00  0.00    -0.002 C 
ENDROOT
BRANCH   9  18
ATOM     18  N   UNL A   1      43.030 -18.410 -39.860  0.00  0.00    -0.275 NA
ATOM     19  C   UNL A   1      42.209 -18.496 -38.874  0.00  0.00    +0.031 C 
BRANCH  19  20
ATOM     20  C   UNL A   1      40.778 -18.172 -39.028  0.00  0.00    -0.007 A 
ATOM     21  C   UNL A   1      39.825 -19.102 -38.605  0.00  0.00    -0.050 A 
ATOM     22  C   UNL A   1      38.461 -18.818 -38.744  0.00  0.00    -0.019 A 
ATOM     23  C   UNL A   1      38.048 -17.607 -39.304  0.00  0.00    +0.120 A 
ATOM     24  C   UNL A   1      39.010 -16.682 -39.719  0.00  0.00    -0.019 A 
ATOM     25  C   UNL A   1      40.372 -16.959 -39.585  0.00  0.00    -0.050 A 
BRANCH  23  26
ATOM     26  O   UNL A   1      36.755 -17.209 -39.496  0.00  0.00    -0.495 OA
ATOM     27  C   UNL A   1      36.404 -16.758 -40.798  0.00  0.00    +0.079 C 
ENDBRANCH  23  26
ENDBRANCH  19  20
ENDBRANCH   9  18
TORSDOF 3
ENDMDL
MODEL 8
REMARK VINA RESULT:    -6.498     18.240     21.280
REMARK INTER + INTRA:          -8.322
REMARK INTER:                  -7.638
REMARK INTRA:                  -0.684
REMARK UNBOUND:                -0.684
REMARK  Name = cpd114.pdb
REMARK  6 active torsions:
REMARK  status: ('A' for Active; 'I' for Inactive)
REMARK    1  A    between atoms: C_1  and  C_2
REMARK    2  A    between atoms: C_6  and  C_7
REMARK    3  A    between atoms: C_9  and  N_10
REMARK    4  A    between atoms: C_11  and  C_12
REMARK    5  A    between atoms: C_15  and  O_16
REMARK    6  A    between atoms: O_16  and  C_17
REMARK                            x       y       z     vdW  Elec       q    Type
REMARK                         _______ _______ _______ _____ _____    ______ ____
ROOT
ATOM      1  C   UNL A   1      48.332 -18.642 -34.442  0.00  0.00    -0.046 C 
ATOM      2  C   UNL A   1      47.127 -18.911 -35.288  0.00  0.00    -0.085 C 
ATOM      3  C   UNL A   1      45.905 -18.340 -35.217  0.00  0.00    -0.035 C 
ATOM      4  C   UNL A   1      45.516 -17.295 -34.183  0.00  0.00    +0.006 C 
ATOM      5  C   UNL A   1      44.764 -16.127 -34.780  0.00  0.00    -0.077 C 
ATOM      6  C   UNL A   1      44.102 -16.179 -35.948  0.00  0.00    -0.073 C 
ATOM      7  C   UNL A   1      43.357 -15.003 -36.508  0.00  0.00    -0.044 C 
ATOM      8  C   UNL A   1      44.071 -17.449 -36.769  0.00  0.00    +0.001 C 
ATOM      9  C   UNL A   1      44.681 -18.713 -36.065  0.00  0.00    +0.113 C 
ATOM     10  C   UNL A   1      43.608 -19.294 -35.127  0.00  0.00    -0.000 C 
ATOM     11  C   UNL A   1      42.749 -20.285 -35.424  0.00  0.00    -0.068 C 
ATOM     12  C   UNL A   1      41.700 -20.761 -34.474  0.00  0.00    +0.045 C 
ATOM     13  C   UNL A   1      41.430 -19.740 -33.378  0.00  0.00    +0.240 C 
ATOM     14  O   UNL A   1      40.316 -19.667 -32.865  0.00  0.00    -0.273 OA
ATOM     15  N   UNL A   1      42.492 -18.994 -32.925  0.00  0.00    -0.185 NA
ATOM     16  C   UNL A   1      43.489 -18.772 -33.724  0.00  0.00    +0.040 C 
ATOM     17  C   UNL A   1      44.656 -17.988 -33.130  0.00  0.00    -0.002 C 
ENDROOT
BRANCH   9  18
ATOM     18  N   UNL A   1      44.979 -19.756 -37.081  0.00  0.00    -0.275 NA
ATOM     19  C   UNL A   1      44.963 -19.449 -38.329  0.00  0.00    +0.031 C 
BRANCH  19  20
ATOM     20  C   UNL A   1      45.229 -20.453 -39.378  0.00  0.00    -0.007 A 
ATOM     21  C   UNL A   1      44.167 -20.910 -40.162  0.00  0.00    -0.050 A 
ATOM     22  C   UNL A   1      44.395 -21.864 -41.160  0.00  0.00    -0.019 A 
ATOM     23  C   UNL A   1      45.682 -22.363 -41.376  0.00  0.00    +0.120 A 
ATOM     24  C   UNL A   1      46.738 -21.897 -40.587  0.00  0.00    -0.019 A 
ATOM     25  C   UNL A   1      46.518 -20.946 -39.589  0.00  0.00    -0.050 A 
BRANCH  23  26
ATOM     26  O   UNL A   1      46.038 -23.294 -42.311  0.00  0.00    -0.495 OA
ATOM     27  C   UNL A   1      47.418 -23.623 -42.404  0.00  0.00    +0.079 C 
ENDBRANCH  23  26
ENDBRANCH  19  20
ENDBRANCH   9  18
TORSDOF 3
ENDMDL
MODEL 9
REMARK VINA RESULT:    -6.490     17.797     20.429
REMARK INTER + INTRA:          -8.311
REMARK INTER:                  -7.632
REMARK INTRA:                  -0.680
REMARK UNBOUND:                -0.684
REMARK  Name = cpd114.pdb
REMARK  6 active torsions:
REMARK  status: ('A' for Active; 'I' for Inactive)
REMARK    1  A    between atoms: C_1  and  C_2
REMARK    2  A    between atoms: C_6  and  C_7
REMARK    3  A    between atoms: C_9  and  N_10
REMARK    4  A    between atoms: C_11  and  C_12
REMARK    5  A    between atoms: C_15  and  O_16
REMARK    6  A    between atoms: O_16  and  C_17
REMARK                            x       y       z     vdW  Elec       q    Type
REMARK                         _______ _______ _______ _____ _____    ______ ____
ROOT
ATOM      1  C   UNL A   1      43.535 -15.378 -37.288  0.00  0.00    -0.046 C 
ATOM      2  C   UNL A   1      43.729 -16.835 -37.006  0.00  0.00    -0.085 C 
ATOM      3  C   UNL A   1      44.867 -17.560 -37.072  0.00  0.00    -0.035 C 
ATOM      4  C   UNL A   1      46.210 -16.993 -37.504  0.00  0.00    +0.006 C 
ATOM      5  C   UNL A   1      47.347 -17.420 -36.603  0.00  0.00    -0.077 C 
ATOM      6  C   UNL A   1      47.312 -18.507 -35.816  0.00  0.00    -0.073 C 
ATOM      7  C   UNL A   1      48.462 -18.908 -34.940  0.00  0.00    -0.044 C 
ATOM      8  C   UNL A   1      46.090 -19.399 -35.774  0.00  0.00    +0.001 C 
ATOM      9  C   UNL A   1      44.990 -19.073 -36.845  0.00  0.00    +0.113 C 
ATOM     10  C   UNL A   1      45.418 -19.722 -38.173  0.00  0.00    -0.000 C 
ATOM     11  C   UNL A   1      45.031 -20.928 -38.627  0.00  0.00    -0.068 C 
ATOM     12  C   UNL A   1      45.530 -21.513 -39.906  0.00  0.00    +0.045 C 
ATOM     13  C   UNL A   1      46.808 -20.830 -40.373  0.00  0.00    +0.240 C 
ATOM     14  O   UNL A   1      47.636 -21.458 -41.030  0.00  0.00    -0.273 OA
ATOM     15  N   UNL A   1      46.942 -19.485 -40.124  0.00  0.00    -0.185 NA
ATOM     16  C   UNL A   1      46.320 -18.970 -39.109  0.00  0.00    +0.040 C 
ATOM     17  C   UNL A   1      46.469 -17.462 -38.933  0.00  0.00    -0.002 C 
ENDROOT
BRANCH   9  18
ATOM     18  N   UNL A   1      43.705 -19.704 -36.449  0.00  0.00    -0.275 NA
ATOM     19  C   UNL A   1      43.525 -20.067 -35.229  0.00  0.00    +0.031 C 
BRANCH  19  20
ATOM     20  C   UNL A   1      42.276 -20.719 -34.790  0.00  0.00    -0.007 A 
ATOM     21  C   UNL A   1      41.513 -21.419 -35.727  0.00  0.00    -0.050 A 
ATOM     22  C   UNL A   1      40.322 -22.042 -35.335  0.00  0.00    -0.019 A 
ATOM     23  C   UNL A   1      39.894 -21.967 -34.007  0.00  0.00    +0.120 A 
ATOM     24  C   UNL A   1      40.667 -21.267 -33.077  0.00  0.00    -0.019 A 
ATOM     25  C   UNL A   1      41.854 -20.642 -33.461  0.00  0.00    -0.050 A 
BRANCH  23  26
ATOM     26  O   UNL A   1      38.756 -22.527 -33.497  0.00  0.00    -0.495 OA
ATOM     27  C   UNL A   1      38.623 -23.938 -33.610  0.00  0.00    +0.079 C 
ENDBRANCH  23  26
ENDBRANCH  19  20
ENDBRANCH   9  18
TORSDOF 3
ENDMDL
MODEL 10
REMARK VINA RESULT:    -6.436      2.594      4.390
REMARK INTER + INTRA:          -8.248
REMARK INTER:                  -7.562
REMARK INTRA:                  -0.687
REMARK UNBOUND:                -0.684
REMARK  Name = cpd114.pdb
REMARK  6 active torsions:
REMARK  status: ('A' for Active; 'I' for Inactive)
REMARK    1  A    between atoms: C_1  and  C_2
REMARK    2  A    between atoms: C_6  and  C_7
REMARK    3  A    between atoms: C_9  and  N_10
REMARK    4  A    between atoms: C_11  and  C_12
REMARK    5  A    between atoms: C_15  and  O_16
REMARK    6  A    between atoms: O_16  and  C_17
REMARK                            x       y       z     vdW  Elec       q    Type
REMARK                         _______ _______ _______ _____ _____    ______ ____
ROOT
ATOM      1  C   UNL A   1      32.634 -38.826 -32.993  0.00  0.00    -0.046 C 
ATOM      2  C   UNL A   1      32.954 -37.759 -31.993  0.00  0.00    -0.085 C 
ATOM      3  C   UNL A   1      33.924 -37.752 -31.052  0.00  0.00    -0.035 C 
ATOM      4  C   UNL A   1      34.883 -38.908 -30.813  0.00  0.00    +0.006 C 
ATOM      5  C   UNL A   1      36.318 -38.459 -30.655  0.00  0.00    -0.077 C 
ATOM      6  C   UNL A   1      36.680 -37.216 -30.296  0.00  0.00    -0.073 C 
ATOM      7  C   UNL A   1      38.114 -36.806 -30.138  0.00  0.00    -0.044 C 
ATOM      8  C   UNL A   1      35.640 -36.151 -30.027  0.00  0.00    +0.001 C 
ATOM      9  C   UNL A   1      34.155 -36.659 -30.000  0.00  0.00    +0.113 C 
ATOM     10  C   UNL A   1      33.891 -37.268 -28.612  0.00  0.00    -0.000 C 
ATOM     11  C   UNL A   1      33.343 -36.633 -27.560  0.00  0.00    -0.068 C 
ATOM     12  C   UNL A   1      33.164 -37.278 -26.226  0.00  0.00    +0.045 C 
ATOM     13  C   UNL A   1      34.048 -38.508 -26.074  0.00  0.00    +0.240 C 
ATOM     14  O   UNL A   1      34.458 -38.839 -24.964  0.00  0.00    -0.273 OA
ATOM     15  N   UNL A   1      34.274 -39.275 -27.193  0.00  0.00    -0.185 NA
ATOM     16  C   UNL A   1      34.218 -38.712 -28.360  0.00  0.00    +0.040 C 
ATOM     17  C   UNL A   1      34.420 -39.638 -29.556  0.00  0.00    -0.002 C 
ENDROOT
BRANCH   9  18
ATOM     18  N   UNL A   1      33.230 -35.507 -30.151  0.00  0.00    -0.275 NA
ATOM     19  C   UNL A   1      33.694 -34.361 -30.504  0.00  0.00    +0.031 C 
BRANCH  19  20
ATOM     20  C   UNL A   1      32.820 -33.181 -30.646  0.00  0.00    -0.007 A 
ATOM     21  C   UNL A   1      31.600 -33.318 -31.313  0.00  0.00    -0.050 A 
ATOM     22  C   UNL A   1      30.756 -32.212 -31.463  0.00  0.00    -0.019 A 
ATOM     23  C   UNL A   1      31.129 -30.968 -30.947  0.00  0.00    +0.120 A 
ATOM     24  C   UNL A   1      32.350 -30.842 -30.279  0.00  0.00    -0.019 A 
ATOM     25  C   UNL A   1      33.197 -31.941 -30.127  0.00  0.00    -0.050 A 
BRANCH  23  26
ATOM     26  O   UNL A   1      30.401 -29.814 -31.026  0.00  0.00    -0.495 OA
ATOM     27  C   UNL A   1      29.212 -29.852 -31.805  0.00  0.00    +0.079 C 
ENDBRANCH  23  26
ENDBRANCH  19  20
ENDBRANCH   9  18
TORSDOF 3
ENDMDL
MODEL 11
REMARK VINA RESULT:    -6.423     22.943     26.441
REMARK INTER + INTRA:          -8.233
REMARK INTER:                  -7.534
REMARK INTRA:                  -0.699
REMARK UNBOUND:                -0.684
REMARK  Name = cpd114.pdb
REMARK  6 active torsions:
REMARK  status: ('A' for Active; 'I' for Inactive)
REMARK    1  A    between atoms: C_1  and  C_2
REMARK    2  A    between atoms: C_6  and  C_7
REMARK    3  A    between atoms: C_9  and  N_10
REMARK    4  A    between atoms: C_11  and  C_12
REMARK    5  A    between atoms: C_15  and  O_16
REMARK    6  A    between atoms: O_16  and  C_17
REMARK                            x       y       z     vdW  Elec       q    Type
REMARK                         _______ _______ _______ _____ _____    ______ ____
ROOT
ATOM      1  C   UNL A   1      50.599 -47.957 -52.355  0.00  0.00    -0.046 C 
ATOM      2  C   UNL A   1      50.433 -47.644 -50.901  0.00  0.00    -0.085 C 
ATOM      3  C   UNL A   1      49.297 -47.619 -50.170  0.00  0.00    -0.035 C 
ATOM      4  C   UNL A   1      47.914 -47.886 -50.744  0.00  0.00    +0.006 C 
ATOM      5  C   UNL A   1      47.089 -48.816 -49.883  0.00  0.00    -0.077 C 
ATOM      6  C   UNL A   1      47.312 -49.023 -48.575  0.00  0.00    -0.073 C 
ATOM      7  C   UNL A   1      46.468 -49.946 -47.747  0.00  0.00    -0.044 C 
ATOM      8  C   UNL A   1      48.445 -48.321 -47.859  0.00  0.00    +0.001 C 
ATOM      9  C   UNL A   1      49.179 -47.214 -48.695  0.00  0.00    +0.113 C 
ATOM     10  C   UNL A   1      48.334 -45.929 -48.619  0.00  0.00    -0.000 C 
ATOM     11  C   UNL A   1      48.508 -44.918 -47.749  0.00  0.00    -0.068 C 
ATOM     12  C   UNL A   1      47.614 -43.724 -47.704  0.00  0.00    +0.045 C 
ATOM     13  C   UNL A   1      46.288 -43.989 -48.402  0.00  0.00    +0.240 C 
ATOM     14  O   UNL A   1      45.270 -43.408 -48.032  0.00  0.00    -0.273 OA
ATOM     15  N   UNL A   1      46.299 -44.809 -49.505  0.00  0.00    -0.185 NA
ATOM     16  C   UNL A   1      47.225 -45.711 -49.607  0.00  0.00    +0.040 C 
ATOM     17  C   UNL A   1      47.208 -46.541 -50.887  0.00  0.00    -0.002 C 
ENDROOT
BRANCH   9  18
ATOM     18  N   UNL A   1      50.493 -46.906 -48.074  0.00  0.00    -0.275 NA
ATOM     19  C   UNL A   1      51.006 -47.733 -47.233  0.00  0.00    +0.031 C 
BRANCH  19  20
ATOM     20  C   UNL A   1      52.297 -47.463 -46.571  0.00  0.00    -0.007 A 
ATOM     21  C   UNL A   1      52.685 -46.137 -46.360  0.00  0.00    -0.050 A 
ATOM     22  C   UNL A   1      53.907 -45.857 -45.737  0.00  0.00    -0.019 A 
ATOM     23  C   UNL A   1      54.742 -46.899 -45.325  0.00  0.00    +0.120 A 
ATOM     24  C   UNL A   1      54.342 -48.221 -45.538  0.00  0.00    -0.019 A 
ATOM     25  C   UNL A   1      53.126 -48.508 -46.159  0.00  0.00    -0.050 A 
BRANCH  23  26
ATOM     26  O   UNL A   1      55.955 -46.762 -44.710  0.00  0.00    -0.495 OA
ATOM     27  C   UNL A   1      56.931 -47.761 -44.977  0.00  0.00    +0.079 C 
ENDBRANCH  23  26
ENDBRANCH  19  20
ENDBRANCH   9  18
TORSDOF 3
ENDMDL
MODEL 12
REMARK VINA RESULT:    -6.403     15.956     19.275
REMARK INTER + INTRA:          -8.209
REMARK INTER:                  -7.542
REMARK INTRA:                  -0.667
REMARK UNBOUND:                -0.684
REMARK  Name = cpd114.pdb
REMARK  6 active torsions:
REMARK  status: ('A' for Active; 'I' for Inactive)
REMARK    1  A    between atoms: C_1  and  C_2
REMARK    2  A    between atoms: C_6  and  C_7
REMARK    3  A    between atoms: C_9  and  N_10
REMARK    4  A    between atoms: C_11  and  C_12
REMARK    5  A    between atoms: C_15  and  O_16
REMARK    6  A    between atoms: O_16  and  C_17
REMARK                            x       y       z     vdW  Elec       q    Type
REMARK                         _______ _______ _______ _____ _____    ______ ____
ROOT
ATOM      1  C   UNL A   1      36.226 -17.181 -32.267  0.00  0.00    -0.046 C 
ATOM      2  C   UNL A   1      37.615 -17.619 -32.612  0.00  0.00    -0.085 C 
ATOM      3  C   UNL A   1      38.001 -18.626 -33.427  0.00  0.00    -0.035 C 
ATOM      4  C   UNL A   1      37.035 -19.558 -34.140  0.00  0.00    +0.006 C 
ATOM      5  C   UNL A   1      37.394 -19.779 -35.592  0.00  0.00    -0.077 C 
ATOM      6  C   UNL A   1      38.624 -19.590 -36.098  0.00  0.00    -0.073 C 
ATOM      7  C   UNL A   1      38.949 -19.828 -37.543  0.00  0.00    -0.044 C 
ATOM      8  C   UNL A   1      39.763 -19.122 -35.219  0.00  0.00    +0.001 C 
ATOM      9  C   UNL A   1      39.445 -19.079 -33.682  0.00  0.00    +0.113 C 
ATOM     10  C   UNL A   1      39.603 -20.506 -33.128  0.00  0.00    -0.000 C 
ATOM     11  C   UNL A   1      40.707 -21.012 -32.547  0.00  0.00    -0.068 C 
ATOM     12  C   UNL A   1      40.801 -22.426 -32.078  0.00  0.00    +0.045 C 
ATOM     13  C   UNL A   1      39.733 -23.302 -32.719  0.00  0.00    +0.240 C 
ATOM     14  O   UNL A   1      39.949 -24.496 -32.909  0.00  0.00    -0.273 OA
ATOM     15  N   UNL A   1      38.507 -22.733 -32.973  0.00  0.00    -0.185 NA
ATOM     16  C   UNL A   1      38.440 -21.454 -33.176  0.00  0.00    +0.040 C 
ATOM     17  C   UNL A   1      37.039 -20.888 -33.391  0.00  0.00    -0.002 C 
ENDROOT
BRANCH   9  18
ATOM     18  N   UNL A   1      40.448 -18.231 -32.988  0.00  0.00    -0.275 NA
ATOM     19  C   UNL A   1      41.168 -17.412 -33.670  0.00  0.00    +0.031 C 
BRANCH  19  20
ATOM     20  C   UNL A   1      42.193 -16.564 -33.031  0.00  0.00    -0.007 A 
ATOM     21  C   UNL A   1      41.907 -15.217 -32.795  0.00  0.00    -0.050 A 
ATOM     22  C   UNL A   1      42.865 -14.393 -32.194  0.00  0.00    -0.019 A 
ATOM     23  C   UNL A   1      44.109 -14.913 -31.827  0.00  0.00    +0.120 A 
ATOM     24  C   UNL A   1      44.384 -16.263 -32.064  0.00  0.00    -0.019 A 
ATOM     25  C   UNL A   1      43.433 -17.090 -32.665  0.00  0.00    -0.050 A 
BRANCH  23  26
ATOM     26  O   UNL A   1      45.128 -14.220 -31.236  0.00  0.00    -0.495 OA
ATOM     27  C   UNL A   1      44.766 -13.217 -30.295  0.00  0.00    +0.079 C 
ENDBRANCH  23  26
ENDBRANCH  19  20
ENDBRANCH   9  18
TORSDOF 3
ENDMDL
MODEL 13
REMARK VINA RESULT:    -6.374     21.839     24.372
REMARK INTER + INTRA:          -8.175
REMARK INTER:                  -7.503
REMARK INTRA:                  -0.672
REMARK UNBOUND:                -0.684
REMARK  Name = cpd114.pdb
REMARK  6 active torsions:
REMARK  status: ('A' for Active; 'I' for Inactive)
REMARK    1  A    between atoms: C_1  and  C_2
REMARK    2  A    between atoms: C_6  and  C_7
REMARK    3  A    between atoms: C_9  and  N_10
REMARK    4  A    between atoms: C_11  and  C_12
REMARK    5  A    between atoms: C_15  and  O_16
REMARK    6  A    between atoms: O_16  and  C_17
REMARK                            x       y       z     vdW  Elec       q    Type
REMARK                         _______ _______ _______ _____ _____    ______ ____
ROOT
ATOM      1  C   UNL A   1      47.466 -18.155 -35.530  0.00  0.00    -0.046 C 
ATOM      2  C   UNL A   1      47.287 -17.923 -36.998  0.00  0.00    -0.085 C 
ATOM      3  C   UNL A   1      46.362 -18.455 -37.827  0.00  0.00    -0.035 C 
ATOM      4  C   UNL A   1      45.311 -19.463 -37.390  0.00  0.00    +0.006 C 
ATOM      5  C   UNL A   1      43.931 -19.142 -37.919  0.00  0.00    -0.077 C 
ATOM      6  C   UNL A   1      43.701 -18.373 -38.995  0.00  0.00    -0.073 C 
ATOM      7  C   UNL A   1      42.318 -18.082 -39.500  0.00  0.00    -0.044 C 
ATOM      8  C   UNL A   1      44.844 -17.754 -39.768  0.00  0.00    +0.001 C 
ATOM      9  C   UNL A   1      46.276 -18.238 -39.344  0.00  0.00    +0.113 C 
ATOM     10  C   UNL A   1      46.540 -19.588 -40.035  0.00  0.00    -0.000 C 
ATOM     11  C   UNL A   1      47.188 -19.768 -41.201  0.00  0.00    -0.068 C 
ATOM     12  C   UNL A   1      47.361 -21.108 -41.835  0.00  0.00    +0.045 C 
ATOM     13  C   UNL A   1      46.374 -22.124 -41.277  0.00  0.00    +0.240 C 
ATOM     14  O   UNL A   1      45.981 -23.051 -41.981  0.00  0.00    -0.273 OA
ATOM     15  N   UNL A   1      46.032 -22.021 -39.949  0.00  0.00    -0.185 NA
ATOM     16  C   UNL A   1      46.092 -20.860 -39.375  0.00  0.00    +0.040 C 
ATOM     17  C   UNL A   1      45.756 -20.836 -37.887  0.00  0.00    -0.002 C 
ENDROOT
BRANCH   9  18
ATOM     18  N   UNL A   1      47.297 -17.285 -39.851  0.00  0.00    -0.275 NA
ATOM     19  C   UNL A   1      46.949 -16.086 -40.158  0.00  0.00    +0.031 C 
BRANCH  19  20
ATOM     20  C   UNL A   1      47.920 -15.109 -40.686  0.00  0.00    -0.007 A 
ATOM     21  C   UNL A   1      48.641 -14.318 -39.788  0.00  0.00    -0.050 A 
ATOM     22  C   UNL A   1      49.566 -13.382 -40.266  0.00  0.00    -0.019 A 
ATOM     23  C   UNL A   1      49.771 -13.235 -41.640  0.00  0.00    +0.120 A 
ATOM     24  C   UNL A   1      49.047 -14.034 -42.530  0.00  0.00    -0.019 A 
ATOM     25  C   UNL A   1      48.123 -14.968 -42.060  0.00  0.00    -0.050 A 
BRANCH  23  26
ATOM     26  O   UNL A   1      50.638 -12.361 -42.234  0.00  0.00    -0.495 OA
ATOM     27  C   UNL A   1      50.909 -12.559 -43.616  0.00  0.00    +0.079 C 
ENDBRANCH  23  26
ENDBRANCH  19  20
ENDBRANCH   9  18
TORSDOF 3
ENDMDL
MODEL 14
REMARK VINA RESULT:    -6.235     16.562     19.728
REMARK INTER + INTRA:          -8.012
REMARK INTER:                  -7.339
REMARK INTRA:                  -0.674
REMARK UNBOUND:                -0.684
REMARK  Name = cpd114.pdb
REMARK  6 active torsions:
REMARK  status: ('A' for Active; 'I' for Inactive)
REMARK    1  A    between atoms: C_1  and  C_2
REMARK    2  A    between atoms: C_6  and  C_7
REMARK    3  A    between atoms: C_9  and  N_10
REMARK    4  A    between atoms: C_11  and  C_12
REMARK    5  A    between atoms: C_15  and  O_16
REMARK    6  A    between atoms: O_16  and  C_17
REMARK                            x       y       z     vdW  Elec       q    Type
REMARK                         _______ _______ _______ _____ _____    ______ ____
ROOT
ATOM      1  C   UNL A   1      45.295 -17.922 -33.770  0.00  0.00    -0.046 C 
ATOM      2  C   UNL A   1      44.415 -18.678 -34.716  0.00  0.00    -0.085 C 
ATOM      3  C   UNL A   1      43.067 -18.772 -34.718  0.00  0.00    -0.035 C 
ATOM      4  C   UNL A   1      42.170 -18.119 -33.678  0.00  0.00    +0.006 C 
ATOM      5  C   UNL A   1      40.976 -17.419 -34.287  0.00  0.00    -0.077 C 
ATOM      6  C   UNL A   1      40.481 -17.701 -35.503  0.00  0.00    -0.073 C 
ATOM      7  C   UNL A   1      39.288 -16.993 -36.075  0.00  0.00    -0.044 C 
ATOM      8  C   UNL A   1      41.111 -18.768 -36.371  0.00  0.00    +0.001 C 
ATOM      9  C   UNL A   1      42.222 -19.628 -35.671  0.00  0.00    +0.113 C 
ATOM     10  C   UNL A   1      41.520 -20.717 -34.841  0.00  0.00    -0.000 C 
ATOM     11  C   UNL A   1      41.266 -21.977 -35.240  0.00  0.00    -0.068 C 
ATOM     12  C   UNL A   1      40.534 -22.964 -34.393  0.00  0.00    +0.045 C 
ATOM     13  C   UNL A   1      39.749 -22.279 -33.283  0.00  0.00    +0.240 C 
ATOM     14  O   UNL A   1      38.716 -22.787 -32.856  0.00  0.00    -0.273 OA
ATOM     15  N   UNL A   1      40.292 -21.147 -32.721  0.00  0.00    -0.185 NA
ATOM     16  C   UNL A   1      41.094 -20.417 -33.432  0.00  0.00    +0.040 C 
ATOM     17  C   UNL A   1      41.703 -19.213 -32.721  0.00  0.00    -0.002 C 
ENDROOT
BRANCH   9  18
ATOM     18  N   UNL A   1      43.037 -20.324 -36.699  0.00  0.00    -0.275 NA
ATOM     19  C   UNL A   1      43.069 -19.868 -37.901  0.00  0.00    +0.031 C 
BRANCH  19  20
ATOM     20  C   UNL A   1      43.845 -20.536 -38.963  0.00  0.00    -0.007 A 
ATOM     21  C   UNL A   1      43.239 -20.765 -40.201  0.00  0.00    -0.050 A 
ATOM     22  C   UNL A   1      43.955 -21.400 -41.223  0.00  0.00    -0.019 A 
ATOM     23  C   UNL A   1      45.275 -21.806 -41.010  0.00  0.00    +0.120 A 
ATOM     24  C   UNL A   1      45.872 -21.568 -39.769  0.00  0.00    -0.019 A 
ATOM     25  C   UNL A   1      45.164 -20.937 -38.745  0.00  0.00    -0.050 A 
BRANCH  23  26
ATOM     26  O   UNL A   1      46.079 -22.434 -41.919  0.00  0.00    -0.495 OA
ATOM     27  C   UNL A   1      47.430 -22.663 -41.537  0.00  0.00    +0.079 C 
ENDBRANCH  23  26
ENDBRANCH  19  20
ENDBRANCH   9  18
TORSDOF 3
ENDMDL
MODEL 15
REMARK VINA RESULT:    -6.170     16.288     19.413
REMARK INTER + INTRA:          -7.936
REMARK INTER:                  -7.233
REMARK INTRA:                  -0.703
REMARK UNBOUND:                -0.684
REMARK  Name = cpd114.pdb
REMARK  6 active torsions:
REMARK  status: ('A' for Active; 'I' for Inactive)
REMARK    1  A    between atoms: C_1  and  C_2
REMARK    2  A    between atoms: C_6  and  C_7
REMARK    3  A    between atoms: C_9  and  N_10
REMARK    4  A    between atoms: C_11  and  C_12
REMARK    5  A    between atoms: C_15  and  O_16
REMARK    6  A    between atoms: O_16  and  C_17
REMARK                            x       y       z     vdW  Elec       q    Type
REMARK                         _______ _______ _______ _____ _____    ______ ____
ROOT
ATOM      1  C   UNL A   1      40.553 -22.467 -38.089  0.00  0.00    -0.046 C 
ATOM      2  C   UNL A   1      41.062 -21.576 -37.000  0.00  0.00    -0.085 C 
ATOM      3  C   UNL A   1      40.659 -21.509 -35.712  0.00  0.00    -0.035 C 
ATOM      4  C   UNL A   1      39.533 -22.350 -35.130  0.00  0.00    +0.006 C 
ATOM      5  C   UNL A   1      39.883 -22.957 -33.790  0.00  0.00    -0.077 C 
ATOM      6  C   UNL A   1      40.837 -22.477 -32.976  0.00  0.00    -0.073 C 
ATOM      7  C   UNL A   1      41.153 -23.098 -31.647  0.00  0.00    -0.044 C 
ATOM      8  C   UNL A   1      41.653 -21.264 -33.364  0.00  0.00    +0.001 C 
ATOM      9  C   UNL A   1      41.166 -20.517 -34.656  0.00  0.00    +0.113 C 
ATOM     10  C   UNL A   1      39.994 -19.602 -34.258  0.00  0.00    -0.000 C 
ATOM     11  C   UNL A   1      40.081 -18.298 -33.939  0.00  0.00    -0.068 C 
ATOM     12  C   UNL A   1      38.902 -17.487 -33.513  0.00  0.00    +0.045 C 
ATOM     13  C   UNL A   1      37.748 -18.369 -33.059  0.00  0.00    +0.240 C 
ATOM     14  O   UNL A   1      36.960 -17.963 -32.208  0.00  0.00    -0.273 OA
ATOM     15  N   UNL A   1      37.570 -19.570 -33.704  0.00  0.00    -0.185 NA
ATOM     16  C   UNL A   1      38.596 -20.150 -34.244  0.00  0.00    +0.040 C 
ATOM     17  C   UNL A   1      38.309 -21.448 -34.993  0.00  0.00    -0.002 C 
ENDROOT
BRANCH   9  18
ATOM     18  N   UNL A   1      42.250 -19.637 -35.163  0.00  0.00    -0.275 NA
ATOM     19  C   UNL A   1      43.446 -19.779 -34.714  0.00  0.00    +0.031 C 
BRANCH  19  20
ATOM     20  C   UNL A   1      44.553 -18.916 -35.169  0.00  0.00    -0.007 A 
ATOM     21  C   UNL A   1      45.865 -19.268 -34.842  0.00  0.00    -0.050 A 
ATOM     22  C   UNL A   1      46.930 -18.462 -35.260  0.00  0.00    -0.019 A 
ATOM     23  C   UNL A   1      46.687 -17.305 -36.005  0.00  0.00    +0.120 A 
ATOM     24  C   UNL A   1      45.371 -16.964 -36.330  0.00  0.00    -0.019 A 
ATOM     25  C   UNL A   1      44.304 -17.763 -35.915  0.00  0.00    -0.050 A 
BRANCH  23  26
ATOM     26  O   UNL A   1      47.633 -16.436 -36.470  0.00  0.00    -0.495 OA
ATOM     27  C   UNL A   1      47.169 -15.306 -37.199  0.00  0.00    +0.079 C 
ENDBRANCH  23  26
ENDBRANCH  19  20
ENDBRANCH   9  18
TORSDOF 3
ENDMDL
MODEL 16
REMARK VINA RESULT:    -6.113     21.763     24.517
REMARK INTER + INTRA:          -7.869
REMARK INTER:                  -7.222
REMARK INTRA:                  -0.647
REMARK UNBOUND:                -0.684
REMARK  Name = cpd114.pdb
REMARK  6 active torsions:
REMARK  status: ('A' for Active; 'I' for Inactive)
REMARK    1  A    between atoms: C_1  and  C_2
REMARK    2  A    between atoms: C_6  and  C_7
REMARK    3  A    between atoms: C_9  and  N_10
REMARK    4  A    between atoms: C_11  and  C_12
REMARK    5  A    between atoms: C_15  and  O_16
REMARK    6  A    between atoms: O_16  and  C_17
REMARK                            x       y       z     vdW  Elec       q    Type
REMARK                         _______ _______ _______ _____ _____    ______ ____
ROOT
ATOM      1  C   UNL A   1      51.754 -56.163 -26.290  0.00  0.00    -0.046 C 
ATOM      2  C   UNL A   1      51.575 -55.643 -27.682  0.00  0.00    -0.085 C 
ATOM      3  C   UNL A   1      52.524 -55.294 -28.578  0.00  0.00    -0.035 C 
ATOM      4  C   UNL A   1      54.017 -55.339 -28.292  0.00  0.00    +0.006 C 
ATOM      5  C   UNL A   1      54.813 -55.964 -29.416  0.00  0.00    -0.077 C 
ATOM      6  C   UNL A   1      54.381 -56.049 -30.684  0.00  0.00    -0.073 C 
ATOM      7  C   UNL A   1      55.201 -56.667 -31.778  0.00  0.00    -0.044 C 
ATOM      8  C   UNL A   1      53.023 -55.512 -31.081  0.00  0.00    +0.001 C 
ATOM      9  C   UNL A   1      52.278 -54.692 -29.968  0.00  0.00    +0.113 C 
ATOM     10  C   UNL A   1      52.846 -53.262 -29.977  0.00  0.00    -0.000 C 
ATOM     11  C   UNL A   1      52.328 -52.208 -30.633  0.00  0.00    -0.068 C 
ATOM     12  C   UNL A   1      52.966 -50.859 -30.634  0.00  0.00    +0.045 C 
ATOM     13  C   UNL A   1      54.428 -50.930 -30.217  0.00  0.00    +0.240 C 
ATOM     14  O   UNL A   1      55.233 -50.109 -30.653  0.00  0.00    -0.273 OA
ATOM     15  N   UNL A   1      54.780 -51.865 -29.273  0.00  0.00    -0.185 NA
ATOM     16  C   UNL A   1      54.069 -52.944 -29.164  0.00  0.00    +0.040 C 
ATOM     17  C   UNL A   1      54.484 -53.905 -28.054  0.00  0.00    -0.002 C 
ENDROOT
BRANCH   9  18
ATOM     18  N   UNL A   1      50.836 -54.588 -30.305  0.00  0.00    -0.275 NA
ATOM     19  C   UNL A   1      50.288 -55.491 -31.039  0.00  0.00    +0.031 C 
BRANCH  19  20
ATOM     20  C   UNL A   1      48.864 -55.421 -31.421  0.00  0.00    -0.007 A 
ATOM     21  C   UNL A   1      48.438 -56.090 -32.571  0.00  0.00    -0.050 A 
ATOM     22  C   UNL A   1      47.093 -56.034 -32.955  0.00  0.00    -0.019 A 
ATOM     23  C   UNL A   1      46.173 -55.312 -32.190  0.00  0.00    +0.120 A 
ATOM     24  C   UNL A   1      46.609 -54.650 -31.039  0.00  0.00    -0.019 A 
ATOM     25  C   UNL A   1      47.949 -54.700 -30.651  0.00  0.00    -0.050 A 
BRANCH  23  26
ATOM     26  O   UNL A   1      44.839 -55.178 -32.454  0.00  0.00    -0.495 OA
ATOM     27  C   UNL A   1      44.467 -54.959 -33.809  0.00  0.00    +0.079 C 
ENDBRANCH  23  26
ENDBRANCH  19  20
ENDBRANCH   9  18
TORSDOF 3
ENDMDL
MODEL 17
REMARK VINA RESULT:    -6.107     21.241     23.631
REMARK INTER + INTRA:          -7.862
REMARK INTER:                  -7.194
REMARK INTRA:                  -0.668
REMARK UNBOUND:                -0.684
REMARK  Name = cpd114.pdb
REMARK  6 active torsions:
REMARK  status: ('A' for Active; 'I' for Inactive)
REMARK    1  A    between atoms: C_1  and  C_2
REMARK    2  A    between atoms: C_6  and  C_7
REMARK    3  A    between atoms: C_9  and  N_10
REMARK    4  A    between atoms: C_11  and  C_12
REMARK    5  A    between atoms: C_15  and  O_16
REMARK    6  A    between atoms: O_16  and  C_17
REMARK                            x       y       z     vdW  Elec       q    Type
REMARK                         _______ _______ _______ _____ _____    ______ ____
ROOT
ATOM      1  C   UNL A   1      41.653 -17.748 -38.819  0.00  0.00    -0.046 C 
ATOM      2  C   UNL A   1      43.138 -17.699 -38.995  0.00  0.00    -0.085 C 
ATOM      3  C   UNL A   1      44.045 -18.673 -38.759  0.00  0.00    -0.035 C 
ATOM      4  C   UNL A   1      43.692 -20.046 -38.209  0.00  0.00    +0.006 C 
ATOM      5  C   UNL A   1      44.380 -21.171 -38.949  0.00  0.00    -0.077 C 
ATOM      6  C   UNL A   1      45.500 -21.018 -39.674  0.00  0.00    -0.073 C 
ATOM      7  C   UNL A   1      46.162 -22.159 -40.388  0.00  0.00    -0.044 C 
ATOM      8  C   UNL A   1      46.163 -19.665 -39.804  0.00  0.00    +0.001 C 
ATOM      9  C   UNL A   1      45.569 -18.539 -38.886  0.00  0.00    +0.113 C 
ATOM     10  C   UNL A   1      46.181 -18.704 -37.483  0.00  0.00    -0.000 C 
ATOM     11  C   UNL A   1      47.262 -18.057 -37.010  0.00  0.00    -0.068 C 
ATOM     12  C   UNL A   1      47.827 -18.308 -35.652  0.00  0.00    +0.045 C 
ATOM     13  C   UNL A   1      47.347 -19.635 -35.081  0.00  0.00    +0.240 C 
ATOM     14  O   UNL A   1      48.059 -20.263 -34.300  0.00  0.00    -0.273 OA
ATOM     15  N   UNL A   1      46.069 -20.038 -35.388  0.00  0.00    -0.185 NA
ATOM     16  C   UNL A   1      45.531 -19.628 -36.494  0.00  0.00    +0.040 C 
ATOM     17  C   UNL A   1      44.090 -20.068 -36.736  0.00  0.00    -0.002 C 
ENDROOT
BRANCH   9  18
ATOM     18  N   UNL A   1      45.992 -17.207 -39.390  0.00  0.00    -0.275 NA
ATOM     19  C   UNL A   1      46.759 -17.132 -40.419  0.00  0.00    +0.031 C 
BRANCH  19  20
ATOM     20  C   UNL A   1      47.225 -15.834 -40.945  0.00  0.00    -0.007 A 
ATOM     21  C   UNL A   1      46.572 -14.667 -40.543  0.00  0.00    -0.050 A 
ATOM     22  C   UNL A   1      46.995 -13.425 -41.031  0.00  0.00    -0.019 A 
ATOM     23  C   UNL A   1      48.070 -13.348 -41.920  0.00  0.00    +0.120 A 
ATOM     24  C   UNL A   1      48.719 -14.522 -42.313  0.00  0.00    -0.019 A 
ATOM     25  C   UNL A   1      48.302 -15.764 -41.831  0.00  0.00    -0.050 A 
BRANCH  23  26
ATOM     26  O   UNL A   1      48.578 -12.205 -42.469  0.00  0.00    -0.495 OA
ATOM     27  C   UNL A   1      48.964 -12.261 -43.837  0.00  0.00    +0.079 C 
ENDBRANCH  23  26
ENDBRANCH  19  20
ENDBRANCH   9  18
TORSDOF 3
ENDMDL
MODEL 18
REMARK VINA RESULT:    -6.038     21.119     23.759
REMARK INTER + INTRA:          -7.781
REMARK INTER:                  -7.092
REMARK INTRA:                  -0.689
REMARK UNBOUND:                -0.684
REMARK  Name = cpd114.pdb
REMARK  6 active torsions:
REMARK  status: ('A' for Active; 'I' for Inactive)
REMARK    1  A    between atoms: C_1  and  C_2
REMARK    2  A    between atoms: C_6  and  C_7
REMARK    3  A    between atoms: C_9  and  N_10
REMARK    4  A    between atoms: C_11  and  C_12
REMARK    5  A    between atoms: C_15  and  O_16
REMARK    6  A    between atoms: O_16  and  C_17
REMARK                            x       y       z     vdW  Elec       q    Type
REMARK                         _______ _______ _______ _____ _____    ______ ____
ROOT
ATOM      1  C   UNL A   1      49.118 -18.977 -34.757  0.00  0.00    -0.046 C 
ATOM      2  C   UNL A   1      48.235 -18.372 -35.803  0.00  0.00    -0.085 C 
ATOM      3  C   UNL A   1      46.890 -18.237 -35.794  0.00  0.00    -0.035 C 
ATOM      4  C   UNL A   1      45.995 -18.739 -34.671  0.00  0.00    +0.006 C 
ATOM      5  C   UNL A   1      44.951 -17.729 -34.254  0.00  0.00    -0.077 C 
ATOM      6  C   UNL A   1      44.529 -16.721 -35.034  0.00  0.00    -0.073 C 
ATOM      7  C   UNL A   1      43.483 -15.740 -34.592  0.00  0.00    -0.044 C 
ATOM      8  C   UNL A   1      45.094 -16.523 -36.423  0.00  0.00    +0.001 C 
ATOM      9  C   UNL A   1      46.029 -17.676 -36.934  0.00  0.00    +0.113 C 
ATOM     10  C   UNL A   1      45.134 -18.811 -37.460  0.00  0.00    -0.000 C 
ATOM     11  C   UNL A   1      44.761 -18.998 -38.739  0.00  0.00    -0.068 C 
ATOM     12  C   UNL A   1      43.847 -20.098 -39.166  0.00  0.00    +0.045 C 
ATOM     13  C   UNL A   1      43.061 -20.662 -37.990  0.00  0.00    +0.240 C 
ATOM     14  O   UNL A   1      41.941 -21.135 -38.168  0.00  0.00    -0.273 OA
ATOM     15  N   UNL A   1      43.689 -20.714 -36.768  0.00  0.00    -0.185 NA
ATOM     16  C   UNL A   1      44.631 -19.860 -36.510  0.00  0.00    +0.040 C 
ATOM     17  C   UNL A   1      45.320 -20.019 -35.158  0.00  0.00    -0.002 C 
ENDROOT
BRANCH   9  18
ATOM     18  N   UNL A   1      46.837 -17.193 -38.083  0.00  0.00    -0.275 NA
ATOM     19  C   UNL A   1      46.854 -15.938 -38.364  0.00  0.00    +0.031 C 
BRANCH  19  20
ATOM     20  C   UNL A   1      47.622 -15.411 -39.509  0.00  0.00    -0.007 A 
ATOM     21  C   UNL A   1      47.407 -15.957 -40.777  0.00  0.00    -0.050 A 
ATOM     22  C   UNL A   1      48.127 -15.475 -41.877  0.00  0.00    -0.019 A 
ATOM     23  C   UNL A   1      49.060 -14.449 -41.712  0.00  0.00    +0.120 A 
ATOM     24  C   UNL A   1      49.264 -13.907 -40.439  0.00  0.00    -0.019 A 
ATOM     25  C   UNL A   1      48.552 -14.383 -39.338  0.00  0.00    -0.050 A 
BRANCH  23  26
ATOM     26  O   UNL A   1      49.825 -13.892 -42.698  0.00  0.00    -0.495 OA
ATOM     27  C   UNL A   1      49.327 -13.976 -44.027  0.00  0.00    +0.079 C 
ENDBRANCH  23  26
ENDBRANCH  19  20
ENDBRANCH   9  18
TORSDOF 3
ENDMDL
MODEL 19
REMARK VINA RESULT:    -6.007     22.146     24.805
REMARK INTER + INTRA:          -7.744
REMARK INTER:                  -7.059
REMARK INTRA:                  -0.685
REMARK UNBOUND:                -0.684
REMARK  Name = cpd114.pdb
REMARK  6 active torsions:
REMARK  status: ('A' for Active; 'I' for Inactive)
REMARK    1  A    between atoms: C_1  and  C_2
REMARK    2  A    between atoms: C_6  and  C_7
REMARK    3  A    between atoms: C_9  and  N_10
REMARK    4  A    between atoms: C_11  and  C_12
REMARK    5  A    between atoms: C_15  and  O_16
REMARK    6  A    between atoms: O_16  and  C_17
REMARK                            x       y       z     vdW  Elec       q    Type
REMARK                         _______ _______ _______ _____ _____    ______ ____
ROOT
ATOM      1  C   UNL A   1      47.722 -21.323 -41.895  0.00  0.00    -0.046 C 
ATOM      2  C   UNL A   1      47.334 -19.947 -41.452  0.00  0.00    -0.085 C 
ATOM      3  C   UNL A   1      46.757 -19.569 -40.290  0.00  0.00    -0.035 C 
ATOM      4  C   UNL A   1      46.351 -20.537 -39.190  0.00  0.00    +0.006 C 
ATOM      5  C   UNL A   1      46.759 -20.068 -37.812  0.00  0.00    -0.077 C 
ATOM      6  C   UNL A   1      47.018 -18.788 -37.501  0.00  0.00    -0.073 C 
ATOM      7  C   UNL A   1      47.411 -18.354 -36.120  0.00  0.00    -0.044 C 
ATOM      8  C   UNL A   1      46.919 -17.698 -38.547  0.00  0.00    +0.001 C 
ATOM      9  C   UNL A   1      46.311 -18.147 -39.923  0.00  0.00    +0.113 C 
ATOM     10  C   UNL A   1      44.778 -18.150 -39.781  0.00  0.00    -0.000 C 
ATOM     11  C   UNL A   1      43.950 -17.145 -40.120  0.00  0.00    -0.068 C 
ATOM     12  C   UNL A   1      42.474 -17.203 -39.906  0.00  0.00    +0.045 C 
ATOM     13  C   UNL A   1      42.096 -18.274 -38.893  0.00  0.00    +0.240 C 
ATOM     14  O   UNL A   1      41.094 -18.135 -38.195  0.00  0.00    -0.273 OA
ATOM     15  N   UNL A   1      42.848 -19.424 -38.867  0.00  0.00    -0.185 NA
ATOM     16  C   UNL A   1      44.083 -19.374 -39.260  0.00  0.00    +0.040 C 
ATOM     17  C   UNL A   1      44.835 -20.702 -39.260  0.00  0.00    -0.002 C 
ENDROOT
BRANCH   9  18
ATOM     18  N   UNL A   1      46.648 -17.147 -40.969  0.00  0.00    -0.275 NA
ATOM     19  C   UNL A   1      47.540 -16.253 -40.728  0.00  0.00    +0.031 C 
BRANCH  19  20
ATOM     20  C   UNL A   1      47.895 -15.224 -41.725  0.00  0.00    -0.007 A 
ATOM     21  C   UNL A   1      47.083 -14.094 -41.849  0.00  0.00    -0.050 A 
ATOM     22  C   UNL A   1      47.397 -13.107 -42.790  0.00  0.00    -0.019 A 
ATOM     23  C   UNL A   1      48.522 -13.247 -43.607  0.00  0.00    +0.120 A 
ATOM     24  C   UNL A   1      49.330 -14.380 -43.472  0.00  0.00    -0.019 A 
ATOM     25  C   UNL A   1      49.021 -15.369 -42.536  0.00  0.00    -0.050 A 
BRANCH  23  26
ATOM     26  O   UNL A   1      48.938 -12.361 -44.561  0.00  0.00    -0.495 OA
ATOM     27  C   UNL A   1      49.545 -12.905 -45.727  0.00  0.00    +0.079 C 
ENDBRANCH  23  26
ENDBRANCH  19  20
ENDBRANCH   9  18
TORSDOF 3
ENDMDL
MODEL 20
REMARK VINA RESULT:    -6.000     17.859     20.734
REMARK INTER + INTRA:          -7.736
REMARK INTER:                  -7.085
REMARK INTRA:                  -0.651
REMARK UNBOUND:                -0.684
REMARK  Name = cpd114.pdb
REMARK  6 active torsions:
REMARK  status: ('A' for Active; 'I' for Inactive)
REMARK    1  A    between atoms: C_1  and  C_2
REMARK    2  A    between atoms: C_6  and  C_7
REMARK    3  A    between atoms: C_9  and  N_10
REMARK    4  A    between atoms: C_11  and  C_12
REMARK    5  A    between atoms: C_15  and  O_16
REMARK    6  A    between atoms: O_16  and  C_17
REMARK                            x       y       z     vdW  Elec       q    Type
REMARK                         _______ _______ _______ _____ _____    ______ ____
ROOT
ATOM      1  C   UNL A   1      41.563 -15.297 -37.398  0.00  0.00    -0.046 C 
ATOM      2  C   UNL A   1      41.957 -16.242 -36.307  0.00  0.00    -0.085 C 
ATOM      3  C   UNL A   1      43.007 -16.159 -35.461  0.00  0.00    -0.035 C 
ATOM      4  C   UNL A   1      44.044 -15.047 -35.502  0.00  0.00    +0.006 C 
ATOM      5  C   UNL A   1      44.367 -14.492 -34.133  0.00  0.00    -0.077 C 
ATOM      6  C   UNL A   1      44.158 -15.158 -32.985  0.00  0.00    -0.073 C 
ATOM      7  C   UNL A   1      44.499 -14.582 -31.643  0.00  0.00    -0.044 C 
ATOM      8  C   UNL A   1      43.561 -16.548 -32.990  0.00  0.00    +0.001 C 
ATOM      9  C   UNL A   1      43.405 -17.203 -34.408  0.00  0.00    +0.113 C 
ATOM     10  C   UNL A   1      44.771 -17.788 -34.809  0.00  0.00    -0.000 C 
ATOM     11  C   UNL A   1      45.170 -19.061 -34.632  0.00  0.00    -0.068 C 
ATOM     12  C   UNL A   1      46.533 -19.543 -35.003  0.00  0.00    +0.045 C 
ATOM     13  C   UNL A   1      47.512 -18.389 -35.161  0.00  0.00    +0.240 C 
ATOM     14  O   UNL A   1      48.706 -18.557 -34.924  0.00  0.00    -0.273 OA
ATOM     15  N   UNL A   1      47.030 -17.206 -35.670  0.00  0.00    -0.185 NA
ATOM     16  C   UNL A   1      45.778 -16.916 -35.502  0.00  0.00    +0.040 C 
ATOM     17  C   UNL A   1      45.304 -15.617 -36.147  0.00  0.00    -0.002 C 
ENDROOT
BRANCH   9  18
ATOM     18  N   UNL A   1      42.452 -18.339 -34.333  0.00  0.00    -0.275 NA
ATOM     19  C   UNL A   1      41.872 -18.609 -33.217  0.00  0.00    +0.031 C 
BRANCH  19  20
ATOM     20  C   UNL A   1      40.935 -19.741 -33.084  0.00  0.00    -0.007 A 
ATOM     21  C   UNL A   1      39.564 -19.502 -33.206  0.00  0.00    -0.050 A 
ATOM     22  C   UNL A   1      38.656 -20.560 -33.081  0.00  0.00    -0.019 A 
ATOM     23  C   UNL A   1      39.115 -21.856 -32.833  0.00  0.00    +0.120 A 
ATOM     24  C   UNL A   1      40.489 -22.084 -32.716  0.00  0.00    -0.019 A 
ATOM     25  C   UNL A   1      41.401 -21.034 -32.839  0.00  0.00    -0.050 A 
BRANCH  23  26
ATOM     26  O   UNL A   1      38.338 -22.970 -32.688  0.00  0.00    -0.495 OA
ATOM     27  C   UNL A   1      38.483 -23.991 -33.668  0.00  0.00    +0.079 C 
ENDBRANCH  23  26
ENDBRANCH  19  20
ENDBRANCH   9  18
TORSDOF 3
ENDMDL
