REMARK  Name = cpd114.pdb
REMARK  6 active torsions:
REMARK  status: ('A' for Active; 'I' for Inactive)
REMARK    1  A    between atoms: C_1  and  C_2
REMARK    2  A    between atoms: C_6  and  C_7
REMARK    3  A    between atoms: C_9  and  N_10
REMARK    4  A    between atoms: C_11  and  C_12
REMARK    5  A    between atoms: C_15  and  O_16
REMARK    6  A    between atoms: O_16  and  C_17
REMARK                            x       y       z     vdW  Elec       q    Type
REMARK                         _______ _______ _______ _____ _____    ______ ____
ROOT
ATOM      1  C   UNL A   1       0.726  -3.392  -3.038  0.00  0.00    -0.046 C 
ATOM      2  C   UNL A   1       1.307  -2.564  -1.935  0.00  0.00    -0.085 C 
ATOM      3  C   UNL A   1       0.685  -2.054  -0.849  0.00  0.00    -0.035 C 
ATOM      4  C   UNL A   1      -0.801  -2.215  -0.569  0.00  0.00    +0.006 C 
ATOM      5  C   UNL A   1      -1.092  -2.596   0.865  0.00  0.00    -0.077 C 
ATOM      6  C   UNL A   1      -0.248  -2.375   1.886  0.00  0.00    -0.073 C 
ATOM      7  C   UNL A   1      -0.572  -2.757   3.300  0.00  0.00    -0.044 C 
ATOM      8  C   UNL A   1       1.094  -1.715   1.657  0.00  0.00    +0.001 C 
ATOM      9  C   UNL A   1       1.319  -1.144   0.212  0.00  0.00    +0.113 C 
ATOM     10  C   UNL A   1       0.630   0.230   0.136  0.00  0.00    -0.000 C 
ATOM     11  C   UNL A   1       1.218   1.423   0.339  0.00  0.00    -0.068 C 
ATOM     12  C   UNL A   1       0.470   2.714   0.297  0.00  0.00    +0.045 C 
ATOM     13  C   UNL A   1      -1.029   2.499   0.452  0.00  0.00    +0.240 C 
ATOM     14  O   UNL A   1      -1.725   3.368   0.972  0.00  0.00    -0.273 OA
ATOM     15  N   UNL A   1      -1.572   1.362  -0.098  0.00  0.00    -0.185 NA
ATOM     16  C   UNL A   1      -0.823   0.312  -0.234  0.00  0.00    +0.040 C 
ATOM     17  C   UNL A   1      -1.479  -0.890  -0.907  0.00  0.00    -0.002 C 
ENDROOT
BRANCH   9  18
ATOM     18  N   UNL A   1       2.769  -0.915  -0.015  0.00  0.00    -0.275 NA
ATOM     19  C   UNL A   1       3.595  -1.891   0.122  0.00  0.00    +0.031 C 
BRANCH  19  20
ATOM     20  C   UNL A   1       5.047  -1.710  -0.070  0.00  0.00    -0.007 A 
ATOM     21  C   UNL A   1       5.897  -2.801   0.128  0.00  0.00    -0.050 A 
ATOM     22  C   UNL A   1       7.278  -2.652  -0.045  0.00  0.00    -0.019 A 
ATOM     23  C   UNL A   1       7.811  -1.415  -0.416  0.00  0.00    +0.120 A 
ATOM     24  C   UNL A   1       6.951  -0.331  -0.615  0.00  0.00    -0.019 A 
ATOM     25  C   UNL A   1       5.573  -0.472  -0.443  0.00  0.00    -0.050 A 
BRANCH  23  26
ATOM     26  O   UNL A   1       9.134  -1.137  -0.615  0.00  0.00    -0.495 OA
ATOM     27  C   UNL A   1      10.057  -2.197  -0.398  0.00  0.00    +0.079 C 
ENDBRANCH  23  26
ENDBRANCH  19  20
ENDBRANCH   9  18
TORSDOF 3
