REMARK  Name = cpd174.pdb
REMARK  4 active torsions:
REMARK  status: ('A' for Active; 'I' for Inactive)
REMARK    1  A    between atoms: C_1  and  O_2
REMARK    2  A    between atoms: O_2  and  C_3
REMARK    3  A    between atoms: C_12  and  O_13
REMARK    4  A    between atoms: N_19  and  C_20
REMARK                            x       y       z     vdW  Elec       q    Type
REMARK                         _______ _______ _______ _____ _____    ______ ____
ROOT
ATOM      1  C   UNL     1      -0.699   3.648   0.142  0.00  0.00    +0.162 A 
ATOM      2  C   UNL     1      -1.811   2.837   0.356  0.00  0.00    -0.016 A 
ATOM      3  C   UNL     1      -1.688   1.435   0.322  0.00  0.00    -0.053 A 
ATOM      4  C   UNL     1      -0.447   0.802   0.117  0.00  0.00    -0.026 A 
ATOM      5  C   UNL     1       0.666   1.629  -0.023  0.00  0.00    +0.016 A 
ATOM      6  C   UNL     1       0.519   3.013  -0.063  0.00  0.00    +0.167 A 
ATOM      7  O   UNL     1       1.673   3.683  -0.387  0.00  0.00    -0.484 OA
ATOM      8  C   UNL     1       2.609   2.646  -0.792  0.00  0.00    +0.116 C 
ATOM      9  C   UNL     1       3.991   3.112  -0.305  0.00  0.00    +0.015 C 
ATOM     10  C   UNL     1       4.887   1.988   0.197  0.00  0.00    +0.077 C 
ATOM     11  C   UNL     1       4.145   1.155   1.186  0.00  0.00    -0.059 C 
ATOM     12  C   UNL     1       2.848   0.859   1.004  0.00  0.00    -0.071 C 
ATOM     13  C   UNL     1       2.103   1.267  -0.253  0.00  0.00    +0.056 C 
ATOM     14  C   UNL     1       2.177   0.176  -1.341  0.00  0.00    -0.024 C 
ATOM     15  C   UNL     1       1.835  -1.248  -0.865  0.00  0.00    +0.000 C 
ATOM     16  N   UNL     1       0.845  -1.369   0.215  0.00  0.00    -0.301 N 
ATOM     17  C   UNL     1       0.628  -2.784   0.528  0.00  0.00    -0.012 C 
ATOM     18  C   UNL     1      -0.430  -0.703  -0.068  0.00  0.00    +0.024 C 
ATOM     19  H   UNL     1       1.235  -0.884   1.023  0.00  0.00    +0.000 HD
ENDROOT
BRANCH   1  21
ATOM     20  C   UNL     1      -1.941   5.669   0.294  0.00  0.00    +0.079 C 
ATOM     21  O   UNL     1      -0.699   5.013   0.088  0.00  0.00    -0.491 OA
ENDBRANCH   1  21
BRANCH  10  22
ATOM     22  O   UNL     1       6.023   2.532   0.855  0.00  0.00    -0.388 OA
ATOM     23  H   UNL     1       5.734   3.065   1.612  0.00  0.00    +0.000 HD
ENDBRANCH  10  22
TORSDOF 2
