MODEL 1
REMARK VINA RESULT:    -7.113      0.000      0.000
REMARK INTER + INTRA:          -7.817
REMARK INTER:                  -7.737
REMARK INTRA:                  -0.079
REMARK UNBOUND:                -0.079
REMARK  Name = cpd174.pdb
REMARK  4 active torsions:
REMARK  status: ('A' for Active; 'I' for Inactive)
REMARK    1  A    between atoms: C_1  and  O_2
REMARK    2  A    between atoms: O_2  and  C_3
REMARK    3  A    between atoms: C_12  and  O_13
REMARK    4  A    between atoms: N_19  and  C_20
REMARK                            x       y       z     vdW  Elec       q    Type
REMARK                         _______ _______ _______ _____ _____    ______ ____
ROOT
ATOM      1  C   UNL     1      39.195 -35.888 -31.385  0.00  0.00    +0.162 A 
ATOM      2  C   UNL     1      39.233 -34.537 -31.721  0.00  0.00    -0.016 A 
ATOM      3  C   UNL     1      38.083 -33.736 -31.588  0.00  0.00    -0.053 A 
ATOM      4  C   UNL     1      36.875 -34.249 -31.075  0.00  0.00    -0.026 A 
ATOM      5  C   UNL     1      36.877 -35.584 -30.676  0.00  0.00    +0.016 A 
ATOM      6  C   UNL     1      37.998 -36.383 -30.884  0.00  0.00    +0.167 A 
ATOM      7  O   UNL     1      37.789 -37.712 -30.609  0.00  0.00    -0.484 OA
ATOM      8  C   UNL     1      36.355 -37.831 -30.397  0.00  0.00    +0.116 C 
ATOM      9  C   UNL     1      36.179 -38.893 -29.299  0.00  0.00    +0.015 C 
ATOM     10  C   UNL     1      35.042 -38.603 -28.328  0.00  0.00    +0.077 C 
ATOM     11  C   UNL     1      35.165 -37.210 -27.810  0.00  0.00    -0.059 C 
ATOM     12  C   UNL     1      35.543 -36.205 -28.616  0.00  0.00    -0.071 C 
ATOM     13  C   UNL     1      35.766 -36.412 -30.103  0.00  0.00    +0.056 C 
ATOM     14  C   UNL     1      34.480 -36.157 -30.915  0.00  0.00    -0.024 C 
ATOM     15  C   UNL     1      33.748 -34.843 -30.586  0.00  0.00    +0.000 C 
ATOM     16  N   UNL     1      34.579 -33.704 -30.170  0.00  0.00    -0.301 N 
ATOM     17  C   UNL     1      33.726 -32.539 -29.916  0.00  0.00    -0.012 C 
ATOM     18  C   UNL     1      35.644 -33.365 -31.118  0.00  0.00    +0.024 C 
ATOM     19  H   UNL     1      35.053 -33.988 -29.313  0.00  0.00    +0.000 HD
ENDROOT
BRANCH   1  21
ATOM     20  C   UNL     1      41.540 -36.276 -31.391  0.00  0.00    +0.079 C 
ATOM     21  O   UNL     1      40.220 -36.780 -31.527  0.00  0.00    -0.491 OA
ENDBRANCH   1  21
BRANCH  10  22
ATOM     22  O   UNL     1      35.118 -39.485 -27.217  0.00  0.00    -0.388 OA
ATOM     23  H   UNL     1      34.458 -39.229 -26.554  0.00  0.00    +0.000 HD
ENDBRANCH  10  22
TORSDOF 2
ENDMDL
MODEL 2
REMARK VINA RESULT:    -7.029      2.345      4.611
REMARK INTER + INTRA:          -7.725
REMARK INTER:                  -7.647
REMARK INTRA:                  -0.077
REMARK UNBOUND:                -0.079
REMARK  Name = cpd174.pdb
REMARK  4 active torsions:
REMARK  status: ('A' for Active; 'I' for Inactive)
REMARK    1  A    between atoms: C_1  and  O_2
REMARK    2  A    between atoms: O_2  and  C_3
REMARK    3  A    between atoms: C_12  and  O_13
REMARK    4  A    between atoms: N_19  and  C_20
REMARK                            x       y       z     vdW  Elec       q    Type
REMARK                         _______ _______ _______ _____ _____    ______ ____
ROOT
ATOM      1  C   UNL     1      33.923 -34.647 -29.019  0.00  0.00    +0.162 A 
ATOM      2  C   UNL     1      34.280 -33.578 -29.837  0.00  0.00    -0.016 A 
ATOM      3  C   UNL     1      35.446 -33.641 -30.623  0.00  0.00    -0.053 A 
ATOM      4  C   UNL     1      36.265 -34.786 -30.649  0.00  0.00    -0.026 A 
ATOM      5  C   UNL     1      35.853 -35.872 -29.879  0.00  0.00    +0.016 A 
ATOM      6  C   UNL     1      34.740 -35.770 -29.049  0.00  0.00    +0.167 A 
ATOM      7  O   UNL     1      34.566 -36.852 -28.221  0.00  0.00    -0.484 OA
ATOM      8  C   UNL     1      35.778 -37.641 -28.375  0.00  0.00    +0.116 C 
ATOM      9  C   UNL     1      35.338 -39.111 -28.274  0.00  0.00    +0.015 C 
ATOM     10  C   UNL     1      36.093 -40.053 -29.203  0.00  0.00    +0.077 C 
ATOM     11  C   UNL     1      36.081 -39.510 -30.591  0.00  0.00    -0.059 C 
ATOM     12  C   UNL     1      36.222 -38.194 -30.819  0.00  0.00    -0.071 C 
ATOM     13  C   UNL     1      36.499 -37.213 -29.695  0.00  0.00    +0.056 C 
ATOM     14  C   UNL     1      38.012 -37.013 -29.471  0.00  0.00    -0.024 C 
ATOM     15  C   UNL     1      38.831 -36.730 -30.743  0.00  0.00    +0.000 C 
ATOM     16  N   UNL     1      38.156 -35.990 -31.819  0.00  0.00    -0.301 N 
ATOM     17  C   UNL     1      39.081 -35.794 -32.938  0.00  0.00    -0.012 C 
ATOM     18  C   UNL     1      37.585 -34.708 -31.392  0.00  0.00    +0.024 C 
ATOM     19  H   UNL     1      37.363 -36.560 -32.111  0.00  0.00    +0.000 HD
ENDROOT
BRANCH   1  21
ATOM     20  C   UNL     1      31.960 -33.584 -28.201  0.00  0.00    +0.079 C 
ATOM     21  O   UNL     1      32.856 -34.685 -28.166  0.00  0.00    -0.491 OA
ENDBRANCH   1  21
BRANCH  10  22
ATOM     22  O   UNL     1      35.454 -41.322 -29.229  0.00  0.00    -0.388 OA
ATOM     23  H   UNL     1      35.113 -41.531 -28.345  0.00  0.00    +0.000 HD
ENDBRANCH  10  22
TORSDOF 2
ENDMDL
MODEL 3
REMARK VINA RESULT:    -6.860      2.441      4.908
REMARK INTER + INTRA:          -7.541
REMARK INTER:                  -7.463
REMARK INTRA:                  -0.078
REMARK UNBOUND:                -0.079
REMARK  Name = cpd174.pdb
REMARK  4 active torsions:
REMARK  status: ('A' for Active; 'I' for Inactive)
REMARK    1  A    between atoms: C_1  and  O_2
REMARK    2  A    between atoms: O_2  and  C_3
REMARK    3  A    between atoms: C_12  and  O_13
REMARK    4  A    between atoms: N_19  and  C_20
REMARK                            x       y       z     vdW  Elec       q    Type
REMARK                         _______ _______ _______ _____ _____    ______ ____
ROOT
ATOM      1  C   UNL     1      35.065 -34.312 -30.045  0.00  0.00    +0.162 A 
ATOM      2  C   UNL     1      33.808 -34.495 -29.473  0.00  0.00    -0.016 A 
ATOM      3  C   UNL     1      33.438 -35.748 -28.948  0.00  0.00    -0.053 A 
ATOM      4  C   UNL     1      34.325 -36.841 -28.940  0.00  0.00    -0.026 A 
ATOM      5  C   UNL     1      35.603 -36.620 -29.451  0.00  0.00    +0.016 A 
ATOM      6  C   UNL     1      35.930 -35.399 -30.035  0.00  0.00    +0.167 A 
ATOM      7  O   UNL     1      37.156 -35.391 -30.653  0.00  0.00    -0.484 OA
ATOM      8  C   UNL     1      37.586 -36.781 -30.652  0.00  0.00    +0.116 C 
ATOM      9  C   UNL     1      39.111 -36.750 -30.457  0.00  0.00    +0.015 C 
ATOM     10  C   UNL     1      39.651 -37.878 -29.590  0.00  0.00    +0.077 C 
ATOM     11  C   UNL     1      38.879 -37.950 -28.317  0.00  0.00    -0.059 C 
ATOM     12  C   UNL     1      37.549 -37.762 -28.304  0.00  0.00    -0.071 C 
ATOM     13  C   UNL     1      36.757 -37.568 -29.584  0.00  0.00    +0.056 C 
ATOM     14  C   UNL     1      36.242 -38.909 -30.146  0.00  0.00    -0.024 C 
ATOM     15  C   UNL     1      35.537 -39.820 -29.124  0.00  0.00    +0.000 C 
ATOM     16  N   UNL     1      34.796 -39.157 -28.042  0.00  0.00    -0.301 N 
ATOM     17  C   UNL     1      34.177 -40.167 -27.179  0.00  0.00    -0.012 C 
ATOM     18  C   UNL     1      33.794 -38.194 -28.508  0.00  0.00    +0.024 C 
ATOM     19  H   UNL     1      35.477 -38.611 -27.514  0.00  0.00    +0.000 HD
ENDROOT
BRANCH   1  21
ATOM     20  C   UNL     1      34.560 -32.158 -30.913  0.00  0.00    +0.079 C 
ATOM     21  O   UNL     1      35.518 -33.169 -30.641  0.00  0.00    -0.491 OA
ENDBRANCH   1  21
BRANCH  10  22
ATOM     22  O   UNL     1      41.010 -37.625 -29.258  0.00  0.00    -0.388 OA
ATOM     23  H   UNL     1      41.071 -37.359 -28.328  0.00  0.00    +0.000 HD
ENDBRANCH  10  22
TORSDOF 2
ENDMDL
MODEL 4
REMARK VINA RESULT:    -6.828      2.356      4.145
REMARK INTER + INTRA:          -7.506
REMARK INTER:                  -7.410
REMARK INTRA:                  -0.096
REMARK UNBOUND:                -0.079
REMARK  Name = cpd174.pdb
REMARK  4 active torsions:
REMARK  status: ('A' for Active; 'I' for Inactive)
REMARK    1  A    between atoms: C_1  and  O_2
REMARK    2  A    between atoms: O_2  and  C_3
REMARK    3  A    between atoms: C_12  and  O_13
REMARK    4  A    between atoms: N_19  and  C_20
REMARK                            x       y       z     vdW  Elec       q    Type
REMARK                         _______ _______ _______ _____ _____    ______ ____
ROOT
ATOM      1  C   UNL     1      38.665 -35.748 -31.238  0.00  0.00    +0.162 A 
ATOM      2  C   UNL     1      39.249 -36.851 -30.619  0.00  0.00    -0.016 A 
ATOM      3  C   UNL     1      38.517 -37.621 -29.696  0.00  0.00    -0.053 A 
ATOM      4  C   UNL     1      37.170 -37.340 -29.395  0.00  0.00    -0.026 A 
ATOM      5  C   UNL     1      36.581 -36.277 -30.078  0.00  0.00    +0.016 A 
ATOM      6  C   UNL     1      37.338 -35.478 -30.931  0.00  0.00    +0.167 A 
ATOM      7  O   UNL     1      36.670 -34.367 -31.386  0.00  0.00    -0.484 OA
ATOM      8  C   UNL     1      35.441 -34.323 -30.609  0.00  0.00    +0.116 C 
ATOM      9  C   UNL     1      34.359 -33.789 -31.562  0.00  0.00    +0.015 C 
ATOM     10  C   UNL     1      32.990 -34.428 -31.374  0.00  0.00    +0.077 C 
ATOM     11  C   UNL     1      33.122 -35.913 -31.378  0.00  0.00    -0.059 C 
ATOM     12  C   UNL     1      34.159 -36.516 -30.775  0.00  0.00    -0.071 C 
ATOM     13  C   UNL     1      35.187 -35.733 -29.980  0.00  0.00    +0.056 C 
ATOM     14  C   UNL     1      34.796 -35.623 -28.492  0.00  0.00    -0.024 C 
ATOM     15  C   UNL     1      34.387 -36.948 -27.822  0.00  0.00    +0.000 C 
ATOM     16  N   UNL     1      35.043 -38.170 -28.309  0.00  0.00    -0.301 N 
ATOM     17  C   UNL     1      34.553 -39.326 -27.555  0.00  0.00    -0.012 C 
ATOM     18  C   UNL     1      36.508 -38.115 -28.273  0.00  0.00    +0.024 C 
ATOM     19  H   UNL     1      34.796 -38.260 -29.294  0.00  0.00    +0.000 HD
ENDROOT
BRANCH   1  21
ATOM     20  C   UNL     1      40.353 -34.110 -31.580  0.00  0.00    +0.079 C 
ATOM     21  O   UNL     1      39.285 -34.888 -32.099  0.00  0.00    -0.491 OA
ENDBRANCH   1  21
BRANCH  10  22
ATOM     22  O   UNL     1      32.135 -34.066 -32.449  0.00  0.00    -0.388 OA
ATOM     23  H   UNL     1      32.548 -33.358 -32.967  0.00  0.00    +0.000 HD
ENDBRANCH  10  22
TORSDOF 2
ENDMDL
MODEL 5
REMARK VINA RESULT:    -6.810      2.853      5.828
REMARK INTER + INTRA:          -7.487
REMARK INTER:                  -7.391
REMARK INTRA:                  -0.096
REMARK UNBOUND:                -0.079
REMARK  Name = cpd174.pdb
REMARK  4 active torsions:
REMARK  status: ('A' for Active; 'I' for Inactive)
REMARK    1  A    between atoms: C_1  and  O_2
REMARK    2  A    between atoms: O_2  and  C_3
REMARK    3  A    between atoms: C_12  and  O_13
REMARK    4  A    between atoms: N_19  and  C_20
REMARK                            x       y       z     vdW  Elec       q    Type
REMARK                         _______ _______ _______ _____ _____    ______ ____
ROOT
ATOM      1  C   UNL     1      34.159 -37.024 -26.662  0.00  0.00    +0.162 A 
ATOM      2  C   UNL     1      35.366 -37.717 -26.700  0.00  0.00    -0.016 A 
ATOM      3  C   UNL     1      36.265 -37.527 -27.768  0.00  0.00    -0.053 A 
ATOM      4  C   UNL     1      36.005 -36.609 -28.803  0.00  0.00    -0.026 A 
ATOM      5  C   UNL     1      34.826 -35.872 -28.710  0.00  0.00    +0.016 A 
ATOM      6  C   UNL     1      33.912 -36.124 -27.691  0.00  0.00    +0.167 A 
ATOM      7  O   UNL     1      32.723 -35.452 -27.835  0.00  0.00    -0.484 OA
ATOM      8  C   UNL     1      32.782 -34.864 -29.164  0.00  0.00    +0.116 C 
ATOM      9  C   UNL     1      32.064 -33.508 -29.057  0.00  0.00    +0.015 C 
ATOM     10  C   UNL     1      32.691 -32.403 -29.896  0.00  0.00    +0.077 C 
ATOM     11  C   UNL     1      34.156 -32.336 -29.628  0.00  0.00    -0.059 C 
ATOM     12  C   UNL     1      34.880 -33.455 -29.464  0.00  0.00    -0.071 C 
ATOM     13  C   UNL     1      34.272 -34.834 -29.640  0.00  0.00    +0.056 C 
ATOM     14  C   UNL     1      34.408 -35.338 -31.092  0.00  0.00    -0.024 C 
ATOM     15  C   UNL     1      35.818 -35.211 -31.699  0.00  0.00    +0.000 C 
ATOM     16  N   UNL     1      36.955 -35.345 -30.777  0.00  0.00    -0.301 N 
ATOM     17  C   UNL     1      38.210 -35.217 -31.521  0.00  0.00    -0.012 C 
ATOM     18  C   UNL     1      36.944 -36.585 -29.994  0.00  0.00    +0.024 C 
ATOM     19  H   UNL     1      36.868 -34.590 -30.097  0.00  0.00    +0.000 HD
ENDROOT
BRANCH   1  21
ATOM     20  C   UNL     1      33.498 -36.772 -24.393  0.00  0.00    +0.079 C 
ATOM     21  O   UNL     1      33.181 -37.166 -25.720  0.00  0.00    -0.491 OA
ENDBRANCH   1  21
BRANCH  10  22
ATOM     22  O   UNL     1      32.129 -31.147 -29.541  0.00  0.00    -0.388 OA
ATOM     23  H   UNL     1      32.267 -30.987 -28.594  0.00  0.00    +0.000 HD
ENDBRANCH  10  22
TORSDOF 2
ENDMDL
MODEL 6
REMARK VINA RESULT:    -6.661     17.822     20.290
REMARK INTER + INTRA:          -7.324
REMARK INTER:                  -7.243
REMARK INTRA:                  -0.081
REMARK UNBOUND:                -0.079
REMARK  Name = cpd174.pdb
REMARK  4 active torsions:
REMARK  status: ('A' for Active; 'I' for Inactive)
REMARK    1  A    between atoms: C_1  and  O_2
REMARK    2  A    between atoms: O_2  and  C_3
REMARK    3  A    between atoms: C_12  and  O_13
REMARK    4  A    between atoms: N_19  and  C_20
REMARK                            x       y       z     vdW  Elec       q    Type
REMARK                         _______ _______ _______ _____ _____    ______ ____
ROOT
ATOM      1  C   UNL     1      46.771 -19.310 -36.438  0.00  0.00    +0.162 A 
ATOM      2  C   UNL     1      45.769 -19.554 -35.502  0.00  0.00    -0.016 A 
ATOM      3  C   UNL     1      44.534 -20.096 -35.906  0.00  0.00    -0.053 A 
ATOM      4  C   UNL     1      44.279 -20.451 -37.244  0.00  0.00    -0.026 A 
ATOM      5  C   UNL     1      45.319 -20.267 -38.154  0.00  0.00    +0.016 A 
ATOM      6  C   UNL     1      46.507 -19.660 -37.756  0.00  0.00    +0.167 A 
ATOM      7  O   UNL     1      47.361 -19.382 -38.795  0.00  0.00    -0.484 OA
ATOM      8  C   UNL     1      46.587 -19.643 -39.998  0.00  0.00    +0.116 C 
ATOM      9  C   UNL     1      47.580 -20.222 -41.021  0.00  0.00    +0.015 C 
ATOM     10  C   UNL     1      46.998 -21.315 -41.905  0.00  0.00    +0.077 C 
ATOM     11  C   UNL     1      46.329 -22.346 -41.060  0.00  0.00    -0.059 C 
ATOM     12  C   UNL     1      45.611 -21.993 -39.982  0.00  0.00    -0.071 C 
ATOM     13  C   UNL     1      45.360 -20.540 -39.628  0.00  0.00    +0.056 C 
ATOM     14  C   UNL     1      44.062 -20.011 -40.271  0.00  0.00    -0.024 C 
ATOM     15  C   UNL     1      42.824 -20.907 -40.082  0.00  0.00    +0.000 C 
ATOM     16  N   UNL     1      42.749 -21.684 -38.836  0.00  0.00    -0.301 N 
ATOM     17  C   UNL     1      41.507 -22.460 -38.813  0.00  0.00    -0.012 C 
ATOM     18  C   UNL     1      42.872 -20.873 -37.620  0.00  0.00    +0.024 C 
ATOM     19  H   UNL     1      43.556 -22.307 -38.833  0.00  0.00    +0.000 HD
ENDROOT
BRANCH   1  21
ATOM     20  C   UNL     1      48.630 -19.090 -34.973  0.00  0.00    +0.079 C 
ATOM     21  O   UNL     1      47.983 -18.733 -36.185  0.00  0.00    -0.491 OA
ENDBRANCH   1  21
BRANCH  10  22
ATOM     22  O   UNL     1      48.038 -21.958 -42.629  0.00  0.00    -0.388 OA
ATOM     23  H   UNL     1      48.497 -21.307 -43.182  0.00  0.00    +0.000 HD
ENDBRANCH  10  22
TORSDOF 2
ENDMDL
MODEL 7
REMARK VINA RESULT:    -6.466     18.654     21.473
REMARK INTER + INTRA:          -7.112
REMARK INTER:                  -7.035
REMARK INTRA:                  -0.078
REMARK UNBOUND:                -0.079
REMARK  Name = cpd174.pdb
REMARK  4 active torsions:
REMARK  status: ('A' for Active; 'I' for Inactive)
REMARK    1  A    between atoms: C_1  and  O_2
REMARK    2  A    between atoms: O_2  and  C_3
REMARK    3  A    between atoms: C_12  and  O_13
REMARK    4  A    between atoms: N_19  and  C_20
REMARK                            x       y       z     vdW  Elec       q    Type
REMARK                         _______ _______ _______ _____ _____    ______ ____
ROOT
ATOM      1  C   UNL     1      46.124 -17.269 -39.294  0.00  0.00    +0.162 A 
ATOM      2  C   UNL     1      44.929 -17.029 -38.620  0.00  0.00    -0.016 A 
ATOM      3  C   UNL     1      43.840 -17.911 -38.761  0.00  0.00    -0.053 A 
ATOM      4  C   UNL     1      43.926 -19.079 -39.543  0.00  0.00    -0.026 A 
ATOM      5  C   UNL     1      45.152 -19.340 -40.151  0.00  0.00    +0.016 A 
ATOM      6  C   UNL     1      46.196 -18.422 -40.065  0.00  0.00    +0.167 A 
ATOM      7  O   UNL     1      47.271 -18.730 -40.861  0.00  0.00    -0.484 OA
ATOM      8  C   UNL     1      46.819 -19.833 -41.694  0.00  0.00    +0.116 C 
ATOM      9  C   UNL     1      48.042 -20.745 -41.886  0.00  0.00    +0.015 C 
ATOM     10  C   UNL     1      47.715 -22.232 -41.901  0.00  0.00    +0.077 C 
ATOM     11  C   UNL     1      46.883 -22.578 -40.714  0.00  0.00    -0.059 C 
ATOM     12  C   UNL     1      45.916 -21.750 -40.285  0.00  0.00    -0.071 C 
ATOM     13  C   UNL     1      45.557 -20.482 -41.036  0.00  0.00    +0.056 C 
ATOM     14  C   UNL     1      44.444 -20.729 -42.075  0.00  0.00    -0.024 C 
ATOM     15  C   UNL     1      43.216 -21.495 -41.550  0.00  0.00    +0.000 C 
ATOM     16  N   UNL     1      42.856 -21.290 -40.139  0.00  0.00    -0.301 N 
ATOM     17  C   UNL     1      41.661 -22.075 -39.816  0.00  0.00    -0.012 C 
ATOM     18  C   UNL     1      42.662 -19.884 -39.773  0.00  0.00    +0.024 C 
ATOM     19  H   UNL     1      43.650 -21.611 -39.587  0.00  0.00    +0.000 HD
ENDROOT
BRANCH   1  21
ATOM     20  C   UNL     1      47.302 -15.478 -38.268  0.00  0.00    +0.079 C 
ATOM     21  O   UNL     1      47.225 -16.461 -39.289  0.00  0.00    -0.491 OA
ENDBRANCH   1  21
BRANCH  10  22
ATOM     22  O   UNL     1      48.914 -22.992 -41.825  0.00  0.00    -0.388 OA
ATOM     23  H   UNL     1      48.762 -23.874 -42.198  0.00  0.00    +0.000 HD
ENDBRANCH  10  22
TORSDOF 2
ENDMDL
MODEL 8
REMARK VINA RESULT:    -6.205     17.993     20.978
REMARK INTER + INTRA:          -6.828
REMARK INTER:                  -6.746
REMARK INTRA:                  -0.083
REMARK UNBOUND:                -0.079
REMARK  Name = cpd174.pdb
REMARK  4 active torsions:
REMARK  status: ('A' for Active; 'I' for Inactive)
REMARK    1  A    between atoms: C_1  and  O_2
REMARK    2  A    between atoms: O_2  and  C_3
REMARK    3  A    between atoms: C_12  and  O_13
REMARK    4  A    between atoms: N_19  and  C_20
REMARK                            x       y       z     vdW  Elec       q    Type
REMARK                         _______ _______ _______ _____ _____    ______ ____
ROOT
ATOM      1  C   UNL     1      42.519 -20.957 -39.612  0.00  0.00    +0.162 A 
ATOM      2  C   UNL     1      41.924 -19.850 -39.013  0.00  0.00    -0.016 A 
ATOM      3  C   UNL     1      42.714 -18.788 -38.533  0.00  0.00    -0.053 A 
ATOM      4  C   UNL     1      44.115 -18.781 -38.675  0.00  0.00    -0.026 A 
ATOM      5  C   UNL     1      44.686 -19.863 -39.342  0.00  0.00    +0.016 A 
ATOM      6  C   UNL     1      43.901 -20.941 -39.744  0.00  0.00    +0.167 A 
ATOM      7  O   UNL     1      44.625 -22.006 -40.220  0.00  0.00    -0.484 OA
ATOM      8  C   UNL     1      46.011 -21.683 -39.919  0.00  0.00    +0.116 C 
ATOM      9  C   UNL     1      46.838 -22.240 -41.089  0.00  0.00    +0.015 C 
ATOM     10  C   UNL     1      48.021 -21.368 -41.488  0.00  0.00    +0.077 C 
ATOM     11  C   UNL     1      47.568 -19.961 -41.681  0.00  0.00    -0.059 C 
ATOM     12  C   UNL     1      46.660 -19.409 -40.860  0.00  0.00    -0.071 C 
ATOM     13  C   UNL     1      46.127 -20.147 -39.646  0.00  0.00    +0.056 C 
ATOM     14  C   UNL     1      46.971 -19.860 -38.387  0.00  0.00    -0.024 C 
ATOM     15  C   UNL     1      47.261 -18.372 -38.118  0.00  0.00    +0.000 C 
ATOM     16  N   UNL     1      46.233 -17.407 -38.535  0.00  0.00    -0.301 N 
ATOM     17  C   UNL     1      46.662 -16.050 -38.188  0.00  0.00    -0.012 C 
ATOM     18  C   UNL     1      44.901 -17.681 -37.987  0.00  0.00    +0.024 C 
ATOM     19  H   UNL     1      46.139 -17.501 -39.546  0.00  0.00    +0.000 HD
ENDROOT
BRANCH   1  21
ATOM     20  C   UNL     1      40.722 -22.489 -39.336  0.00  0.00    +0.079 C 
ATOM     21  O   UNL     1      41.870 -22.073 -40.060  0.00  0.00    -0.491 OA
ENDBRANCH   1  21
BRANCH  10  22
ATOM     22  O   UNL     1      48.562 -21.822 -42.721  0.00  0.00    -0.388 OA
ATOM     23  H   UNL     1      49.495 -22.059 -42.597  0.00  0.00    +0.000 HD
ENDBRANCH  10  22
TORSDOF 2
ENDMDL
MODEL 9
REMARK VINA RESULT:    -6.161     13.738     16.414
REMARK INTER + INTRA:          -6.781
REMARK INTER:                  -6.682
REMARK INTRA:                  -0.098
REMARK UNBOUND:                -0.079
REMARK  Name = cpd174.pdb
REMARK  4 active torsions:
REMARK  status: ('A' for Active; 'I' for Inactive)
REMARK    1  A    between atoms: C_1  and  O_2
REMARK    2  A    between atoms: O_2  and  C_3
REMARK    3  A    between atoms: C_12  and  O_13
REMARK    4  A    between atoms: N_19  and  C_20
REMARK                            x       y       z     vdW  Elec       q    Type
REMARK                         _______ _______ _______ _____ _____    ______ ____
ROOT
ATOM      1  C   UNL     1      38.031 -22.910 -33.482  0.00  0.00    +0.162 A 
ATOM      2  C   UNL     1      37.039 -22.064 -32.990  0.00  0.00    -0.016 A 
ATOM      3  C   UNL     1      36.876 -20.771 -33.523  0.00  0.00    -0.053 A 
ATOM      4  C   UNL     1      37.667 -20.301 -34.589  0.00  0.00    -0.026 A 
ATOM      5  C   UNL     1      38.605 -21.188 -35.116  0.00  0.00    +0.016 A 
ATOM      6  C   UNL     1      38.807 -22.435 -34.531  0.00  0.00    +0.167 A 
ATOM      7  O   UNL     1      39.882 -23.118 -35.043  0.00  0.00    -0.484 OA
ATOM      8  C   UNL     1      40.567 -22.159 -35.895  0.00  0.00    +0.116 C 
ATOM      9  C   UNL     1      41.115 -22.967 -37.083  0.00  0.00    +0.015 C 
ATOM     10  C   UNL     1      41.057 -22.232 -38.416  0.00  0.00    +0.077 C 
ATOM     11  C   UNL     1      39.687 -21.688 -38.633  0.00  0.00    -0.059 C 
ATOM     12  C   UNL     1      38.987 -21.156 -37.619  0.00  0.00    -0.071 C 
ATOM     13  C   UNL     1      39.584 -20.990 -36.234  0.00  0.00    +0.056 C 
ATOM     14  C   UNL     1      40.265 -19.616 -36.066  0.00  0.00    -0.024 C 
ATOM     15  C   UNL     1      39.422 -18.408 -36.515  0.00  0.00    +0.000 C 
ATOM     16  N   UNL     1      37.965 -18.517 -36.356  0.00  0.00    -0.301 N 
ATOM     17  C   UNL     1      37.325 -17.280 -36.812  0.00  0.00    -0.012 C 
ATOM     18  C   UNL     1      37.537 -18.845 -34.992  0.00  0.00    +0.024 C 
ATOM     19  H   UNL     1      37.667 -19.303 -36.934  0.00  0.00    +0.000 HD
ENDROOT
BRANCH   1  21
ATOM     20  C   UNL     1      37.412 -25.198 -33.308  0.00  0.00    +0.079 C 
ATOM     21  O   UNL     1      38.329 -24.157 -33.010  0.00  0.00    -0.491 OA
ENDBRANCH   1  21
BRANCH  10  22
ATOM     22  O   UNL     1      41.339 -23.134 -39.478  0.00  0.00    -0.388 OA
ATOM     23  H   UNL     1      41.326 -24.044 -39.141  0.00  0.00    +0.000 HD
ENDBRANCH  10  22
TORSDOF 2
ENDMDL
MODEL 10
REMARK VINA RESULT:    -6.050     17.631     19.802
REMARK INTER + INTRA:          -6.660
REMARK INTER:                  -6.580
REMARK INTRA:                  -0.080
REMARK UNBOUND:                -0.079
REMARK  Name = cpd174.pdb
REMARK  4 active torsions:
REMARK  status: ('A' for Active; 'I' for Inactive)
REMARK    1  A    between atoms: C_1  and  O_2
REMARK    2  A    between atoms: O_2  and  C_3
REMARK    3  A    between atoms: C_12  and  O_13
REMARK    4  A    between atoms: N_19  and  C_20
REMARK                            x       y       z     vdW  Elec       q    Type
REMARK                         _______ _______ _______ _____ _____    ______ ____
ROOT
ATOM      1  C   UNL     1      46.224 -21.995 -41.729  0.00  0.00    +0.162 A 
ATOM      2  C   UNL     1      47.359 -21.341 -41.255  0.00  0.00    -0.016 A 
ATOM      3  C   UNL     1      47.241 -20.294 -40.322  0.00  0.00    -0.053 A 
ATOM      4  C   UNL     1      45.994 -19.898 -39.802  0.00  0.00    -0.026 A 
ATOM      5  C   UNL     1      44.877 -20.611 -40.233  0.00  0.00    +0.016 A 
ATOM      6  C   UNL     1      44.999 -21.594 -41.212  0.00  0.00    +0.167 A 
ATOM      7  O   UNL     1      43.796 -22.079 -41.663  0.00  0.00    -0.484 OA
ATOM      8  C   UNL     1      42.794 -21.201 -41.079  0.00  0.00    +0.116 C 
ATOM      9  C   UNL     1      41.583 -22.094 -40.765  0.00  0.00    +0.015 C 
ATOM     10  C   UNL     1      40.855 -21.730 -39.478  0.00  0.00    +0.077 C 
ATOM     11  C   UNL     1      41.834 -21.621 -38.359  0.00  0.00    -0.059 C 
ATOM     12  C   UNL     1      43.042 -21.065 -38.550  0.00  0.00    -0.071 C 
ATOM     13  C   UNL     1      43.432 -20.434 -39.873  0.00  0.00    +0.056 C 
ATOM     14  C   UNL     1      43.086 -18.932 -39.915  0.00  0.00    -0.024 C 
ATOM     15  C   UNL     1      43.549 -18.119 -38.692  0.00  0.00    +0.000 C 
ATOM     16  N   UNL     1      44.786 -18.558 -38.030  0.00  0.00    -0.301 N 
ATOM     17  C   UNL     1      45.087 -17.667 -36.906  0.00  0.00    -0.012 C 
ATOM     18  C   UNL     1      45.940 -18.658 -38.930  0.00  0.00    +0.024 C 
ATOM     19  H   UNL     1      44.616 -19.506 -37.695  0.00  0.00    +0.000 HD
ENDROOT
BRANCH   1  21
ATOM     20  C   UNL     1      47.289 -23.890 -42.690  0.00  0.00    +0.079 C 
ATOM     21  O   UNL     1      46.201 -22.979 -42.676  0.00  0.00    -0.491 OA
ENDBRANCH   1  21
BRANCH  10  22
ATOM     22  O   UNL     1      39.925 -22.750 -39.142  0.00  0.00    -0.388 OA
ATOM     23  H   UNL     1      39.275 -22.401 -38.513  0.00  0.00    +0.000 HD
ENDBRANCH  10  22
TORSDOF 2
ENDMDL
MODEL 11
REMARK VINA RESULT:    -6.047     36.447     38.401
REMARK INTER + INTRA:          -6.657
REMARK INTER:                  -6.579
REMARK INTRA:                  -0.078
REMARK UNBOUND:                -0.079
REMARK  Name = cpd174.pdb
REMARK  4 active torsions:
REMARK  status: ('A' for Active; 'I' for Inactive)
REMARK    1  A    between atoms: C_1  and  O_2
REMARK    2  A    between atoms: O_2  and  C_3
REMARK    3  A    between atoms: C_12  and  O_13
REMARK    4  A    between atoms: N_19  and  C_20
REMARK                            x       y       z     vdW  Elec       q    Type
REMARK                         _______ _______ _______ _____ _____    ______ ____
ROOT
ATOM      1  C   UNL     1      63.272 -21.249  -9.070  0.00  0.00    +0.162 A 
ATOM      2  C   UNL     1      63.162 -22.343  -9.925  0.00  0.00    -0.016 A 
ATOM      3  C   UNL     1      63.270 -23.654  -9.423  0.00  0.00    -0.053 A 
ATOM      4  C   UNL     1      63.446 -23.913  -8.051  0.00  0.00    -0.026 A 
ATOM      5  C   UNL     1      63.481 -22.809  -7.201  0.00  0.00    +0.016 A 
ATOM      6  C   UNL     1      63.449 -21.516  -7.718  0.00  0.00    +0.167 A 
ATOM      7  O   UNL     1      63.674 -20.539  -6.780  0.00  0.00    -0.484 OA
ATOM      8  C   UNL     1      64.089 -21.254  -5.584  0.00  0.00    +0.116 C 
ATOM      9  C   UNL     1      63.505 -20.468  -4.399  0.00  0.00    +0.015 C 
ATOM     10  C   UNL     1      63.023 -21.340  -3.248  0.00  0.00    +0.077 C 
ATOM     11  C   UNL     1      62.123 -22.409  -3.768  0.00  0.00    -0.059 C 
ATOM     12  C   UNL     1      62.388 -23.030  -4.928  0.00  0.00    -0.071 C 
ATOM     13  C   UNL     1      63.657 -22.753  -5.713  0.00  0.00    +0.056 C 
ATOM     14  C   UNL     1      64.800 -23.705  -5.307  0.00  0.00    -0.024 C 
ATOM     15  C   UNL     1      64.424 -25.198  -5.264  0.00  0.00    +0.000 C 
ATOM     16  N   UNL     1      63.406 -25.656  -6.220  0.00  0.00    -0.301 N 
ATOM     17  C   UNL     1      63.186 -27.095  -6.054  0.00  0.00    -0.012 C 
ATOM     18  C   UNL     1      63.716 -25.341  -7.618  0.00  0.00    +0.024 C 
ATOM     19  H   UNL     1      62.552 -25.141  -6.005  0.00  0.00    +0.000 HD
ENDROOT
BRANCH   1  21
ATOM     20  C   UNL     1      63.247 -19.654 -10.831  0.00  0.00    +0.079 C 
ATOM     21  O   UNL     1      63.248 -19.934  -9.440  0.00  0.00    -0.491 OA
ENDBRANCH   1  21
BRANCH  10  22
ATOM     22  O   UNL     1      62.277 -20.557  -2.327  0.00  0.00    -0.388 OA
ATOM     23  H   UNL     1      61.526 -20.147  -2.784  0.00  0.00    +0.000 HD
ENDBRANCH  10  22
TORSDOF 2
ENDMDL
MODEL 12
REMARK VINA RESULT:    -6.011     37.189     39.414
REMARK INTER + INTRA:          -6.617
REMARK INTER:                  -6.527
REMARK INTRA:                  -0.090
REMARK UNBOUND:                -0.079
REMARK  Name = cpd174.pdb
REMARK  4 active torsions:
REMARK  status: ('A' for Active; 'I' for Inactive)
REMARK    1  A    between atoms: C_1  and  O_2
REMARK    2  A    between atoms: O_2  and  C_3
REMARK    3  A    between atoms: C_12  and  O_13
REMARK    4  A    between atoms: N_19  and  C_20
REMARK                            x       y       z     vdW  Elec       q    Type
REMARK                         _______ _______ _______ _____ _____    ______ ____
ROOT
ATOM      1  C   UNL     1      64.166 -25.982  -6.561  0.00  0.00    +0.162 A 
ATOM      2  C   UNL     1      63.667 -25.821  -7.851  0.00  0.00    -0.016 A 
ATOM      3  C   UNL     1      63.397 -24.534  -8.355  0.00  0.00    -0.053 A 
ATOM      4  C   UNL     1      63.657 -23.371  -7.605  0.00  0.00    -0.026 A 
ATOM      5  C   UNL     1      64.224 -23.549  -6.345  0.00  0.00    +0.016 A 
ATOM      6  C   UNL     1      64.415 -24.828  -5.829  0.00  0.00    +0.167 A 
ATOM      7  O   UNL     1      64.809 -24.841  -4.513  0.00  0.00    -0.484 OA
ATOM      8  C   UNL     1      64.671 -23.464  -4.066  0.00  0.00    +0.116 C 
ATOM      9  C   UNL     1      65.826 -23.223  -3.080  0.00  0.00    +0.015 C 
ATOM     10  C   UNL     1      66.433 -21.829  -3.158  0.00  0.00    +0.077 C 
ATOM     11  C   UNL     1      66.767 -21.503  -4.574  0.00  0.00    -0.059 C 
ATOM     12  C   UNL     1      65.951 -21.865  -5.576  0.00  0.00    -0.071 C 
ATOM     13  C   UNL     1      64.611 -22.527  -5.318  0.00  0.00    +0.056 C 
ATOM     14  C   UNL     1      63.475 -21.490  -5.190  0.00  0.00    -0.024 C 
ATOM     15  C   UNL     1      63.426 -20.432  -6.308  0.00  0.00    +0.000 C 
ATOM     16  N   UNL     1      63.876 -20.853  -7.643  0.00  0.00    -0.301 N 
ATOM     17  C   UNL     1      63.746 -19.735  -8.582  0.00  0.00    -0.012 C 
ATOM     18  C   UNL     1      63.186 -22.040  -8.158  0.00  0.00    +0.024 C 
ATOM     19  H   UNL     1      64.855 -21.123  -7.549  0.00  0.00    +0.000 HD
ENDROOT
BRANCH   1  21
ATOM     20  C   UNL     1      63.359 -28.128  -5.934  0.00  0.00    +0.079 C 
ATOM     21  O   UNL     1      64.409 -27.172  -5.936  0.00  0.00    -0.491 OA
ENDBRANCH   1  21
BRANCH  10  22
ATOM     22  O   UNL     1      67.639 -21.783  -2.407  0.00  0.00    -0.388 OA
ATOM     23  H   UNL     1      68.178 -21.035  -2.707  0.00  0.00    +0.000 HD
ENDBRANCH  10  22
TORSDOF 2
ENDMDL
MODEL 13
REMARK VINA RESULT:    -5.951     23.525     26.597
REMARK INTER + INTRA:          -6.552
REMARK INTER:                  -6.459
REMARK INTRA:                  -0.092
REMARK UNBOUND:                -0.079
REMARK  Name = cpd174.pdb
REMARK  4 active torsions:
REMARK  status: ('A' for Active; 'I' for Inactive)
REMARK    1  A    between atoms: C_1  and  O_2
REMARK    2  A    between atoms: O_2  and  C_3
REMARK    3  A    between atoms: C_12  and  O_13
REMARK    4  A    between atoms: N_19  and  C_20
REMARK                            x       y       z     vdW  Elec       q    Type
REMARK                         _______ _______ _______ _____ _____    ______ ____
ROOT
ATOM      1  C   UNL     1      55.449 -35.136 -46.854  0.00  0.00    +0.162 A 
ATOM      2  C   UNL     1      56.235 -34.047 -47.223  0.00  0.00    -0.016 A 
ATOM      3  C   UNL     1      56.551 -33.822 -48.577  0.00  0.00    -0.053 A 
ATOM      4  C   UNL     1      56.057 -34.650 -49.603  0.00  0.00    -0.026 A 
ATOM      5  C   UNL     1      55.213 -35.691 -49.221  0.00  0.00    +0.016 A 
ATOM      6  C   UNL     1      54.970 -35.948 -47.874  0.00  0.00    +0.167 A 
ATOM      7  O   UNL     1      54.273 -37.109 -47.649  0.00  0.00    -0.484 OA
ATOM      8  C   UNL     1      54.226 -37.776 -48.941  0.00  0.00    +0.116 C 
ATOM      9  C   UNL     1      52.857 -38.473 -49.006  0.00  0.00    +0.015 C 
ATOM     10  C   UNL     1      52.214 -38.456 -50.387  0.00  0.00    +0.077 C 
ATOM     11  C   UNL     1      52.214 -37.066 -50.926  0.00  0.00    -0.059 C 
ATOM     12  C   UNL     1      53.266 -36.253 -50.739  0.00  0.00    -0.071 C 
ATOM     13  C   UNL     1      54.537 -36.732 -50.063  0.00  0.00    +0.056 C 
ATOM     14  C   UNL     1      55.552 -37.287 -51.084  0.00  0.00    -0.024 C 
ATOM     15  C   UNL     1      55.813 -36.386 -52.305  0.00  0.00    +0.000 C 
ATOM     16  N   UNL     1      55.721 -34.935 -52.093  0.00  0.00    -0.301 N 
ATOM     17  C   UNL     1      56.014 -34.234 -53.346  0.00  0.00    -0.012 C 
ATOM     18  C   UNL     1      56.576 -34.435 -51.012  0.00  0.00    +0.024 C 
ATOM     19  H   UNL     1      54.764 -34.744 -51.797  0.00  0.00    +0.000 HD
ENDROOT
BRANCH   1  21
ATOM     20  C   UNL     1      54.026 -34.832 -44.975  0.00  0.00    +0.079 C 
ATOM     21  O   UNL     1      55.126 -35.497 -45.577  0.00  0.00    -0.491 OA
ENDBRANCH   1  21
BRANCH  10  22
ATOM     22  O   UNL     1      50.863 -38.886 -50.296  0.00  0.00    -0.388 OA
ATOM     23  H   UNL     1      50.837 -39.840 -50.128  0.00  0.00    +0.000 HD
ENDBRANCH  10  22
TORSDOF 2
ENDMDL
MODEL 14
REMARK VINA RESULT:    -5.941     14.357     17.157
REMARK INTER + INTRA:          -6.542
REMARK INTER:                  -6.447
REMARK INTRA:                  -0.094
REMARK UNBOUND:                -0.079
REMARK  Name = cpd174.pdb
REMARK  4 active torsions:
REMARK  status: ('A' for Active; 'I' for Inactive)
REMARK    1  A    between atoms: C_1  and  O_2
REMARK    2  A    between atoms: O_2  and  C_3
REMARK    3  A    between atoms: C_12  and  O_13
REMARK    4  A    between atoms: N_19  and  C_20
REMARK                            x       y       z     vdW  Elec       q    Type
REMARK                         _______ _______ _______ _____ _____    ______ ____
ROOT
ATOM      1  C   UNL     1      40.190 -22.784 -32.955  0.00  0.00    +0.162 A 
ATOM      2  C   UNL     1      39.375 -23.487 -33.838  0.00  0.00    -0.016 A 
ATOM      3  C   UNL     1      39.252 -23.073 -35.178  0.00  0.00    -0.053 A 
ATOM      4  C   UNL     1      39.971 -21.973 -35.685  0.00  0.00    -0.026 A 
ATOM      5  C   UNL     1      40.836 -21.326 -34.805  0.00  0.00    +0.016 A 
ATOM      6  C   UNL     1      40.891 -21.699 -33.465  0.00  0.00    +0.167 A 
ATOM      7  O   UNL     1      41.648 -20.857 -32.687  0.00  0.00    -0.484 OA
ATOM      8  C   UNL     1      41.952 -19.723 -33.545  0.00  0.00    +0.116 C 
ATOM      9  C   UNL     1      43.372 -19.275 -33.163  0.00  0.00    +0.015 C 
ATOM     10  C   UNL     1      44.215 -18.804 -34.341  0.00  0.00    +0.077 C 
ATOM     11  C   UNL     1      44.173 -19.821 -35.430  0.00  0.00    -0.059 C 
ATOM     12  C   UNL     1      43.036 -20.472 -35.722  0.00  0.00    -0.071 C 
ATOM     13  C   UNL     1      41.724 -20.140 -35.036  0.00  0.00    +0.056 C 
ATOM     14  C   UNL     1      40.932 -19.064 -35.807  0.00  0.00    -0.024 C 
ATOM     15  C   UNL     1      40.782 -19.318 -37.318  0.00  0.00    +0.000 C 
ATOM     16  N   UNL     1      40.709 -20.720 -37.753  0.00  0.00    -0.301 N 
ATOM     17  C   UNL     1      40.550 -20.776 -39.209  0.00  0.00    -0.012 C 
ATOM     18  C   UNL     1      39.657 -21.496 -37.090  0.00  0.00    +0.024 C 
ATOM     19  H   UNL     1      41.589 -21.156 -37.477  0.00  0.00    +0.000 HD
ENDROOT
BRANCH   1  21
ATOM     20  C   UNL     1      41.262 -24.068 -31.266  0.00  0.00    +0.079 C 
ATOM     21  O   UNL     1      40.344 -23.046 -31.623  0.00  0.00    -0.491 OA
ENDBRANCH   1  21
BRANCH  10  22
ATOM     22  O   UNL     1      45.570 -18.657 -33.938  0.00  0.00    -0.388 OA
ATOM     23  H   UNL     1      45.737 -17.733 -33.695  0.00  0.00    +0.000 HD
ENDBRANCH  10  22
TORSDOF 2
ENDMDL
MODEL 15
REMARK VINA RESULT:    -5.925     32.955     35.469
REMARK INTER + INTRA:          -6.524
REMARK INTER:                  -6.427
REMARK INTRA:                  -0.096
REMARK UNBOUND:                -0.079
REMARK  Name = cpd174.pdb
REMARK  4 active torsions:
REMARK  status: ('A' for Active; 'I' for Inactive)
REMARK    1  A    between atoms: C_1  and  O_2
REMARK    2  A    between atoms: O_2  and  C_3
REMARK    3  A    between atoms: C_12  and  O_13
REMARK    4  A    between atoms: N_19  and  C_20
REMARK                            x       y       z     vdW  Elec       q    Type
REMARK                         _______ _______ _______ _____ _____    ______ ____
ROOT
ATOM      1  C   UNL     1      65.838 -15.261 -30.029  0.00  0.00    +0.162 A 
ATOM      2  C   UNL     1      66.689 -14.786 -29.034  0.00  0.00    -0.016 A 
ATOM      3  C   UNL     1      66.398 -13.585 -28.361  0.00  0.00    -0.053 A 
ATOM      4  C   UNL     1      65.231 -12.845 -28.630  0.00  0.00    -0.026 A 
ATOM      5  C   UNL     1      64.355 -13.373 -29.578  0.00  0.00    +0.016 A 
ATOM      6  C   UNL     1      64.691 -14.522 -30.289  0.00  0.00    +0.167 A 
ATOM      7  O   UNL     1      63.820 -14.815 -31.309  0.00  0.00    -0.484 OA
ATOM      8  C   UNL     1      62.951 -13.654 -31.408  0.00  0.00    +0.116 C 
ATOM      9  C   UNL     1      61.562 -14.197 -31.780  0.00  0.00    +0.015 C 
ATOM     10  C   UNL     1      60.405 -13.457 -31.122  0.00  0.00    +0.077 C 
ATOM     11  C   UNL     1      60.643 -13.354 -29.654  0.00  0.00    -0.059 C 
ATOM     12  C   UNL     1      61.871 -13.111 -29.168  0.00  0.00    -0.071 C 
ATOM     13  C   UNL     1      63.051 -12.831 -30.080  0.00  0.00    +0.056 C 
ATOM     14  C   UNL     1      63.210 -11.323 -30.363  0.00  0.00    -0.024 C 
ATOM     15  C   UNL     1      63.173 -10.416 -29.120  0.00  0.00    +0.000 C 
ATOM     16  N   UNL     1      63.705 -10.978 -27.870  0.00  0.00    -0.301 N 
ATOM     17  C   UNL     1      63.609  -9.980 -26.801  0.00  0.00    -0.012 C 
ATOM     18  C   UNL     1      65.077 -11.484 -27.980  0.00  0.00    +0.024 C 
ATOM     19  H   UNL     1      63.130 -11.790 -27.648  0.00  0.00    +0.000 HD
ENDROOT
BRANCH   1  21
ATOM     20  C   UNL     1      67.095 -16.326 -31.743  0.00  0.00    +0.079 C 
ATOM     21  O   UNL     1      66.040 -16.375 -30.794  0.00  0.00    -0.491 OA
ENDBRANCH   1  21
BRANCH  10  22
ATOM     22  O   UNL     1      59.196 -14.178 -31.315  0.00  0.00    -0.388 OA
ATOM     23  H   UNL     1      59.398 -15.115 -31.459  0.00  0.00    +0.000 HD
ENDBRANCH  10  22
TORSDOF 2
ENDMDL
MODEL 16
REMARK VINA RESULT:    -5.838      2.134      5.287
REMARK INTER + INTRA:          -6.429
REMARK INTER:                  -6.338
REMARK INTRA:                  -0.091
REMARK UNBOUND:                -0.079
REMARK  Name = cpd174.pdb
REMARK  4 active torsions:
REMARK  status: ('A' for Active; 'I' for Inactive)
REMARK    1  A    between atoms: C_1  and  O_2
REMARK    2  A    between atoms: O_2  and  C_3
REMARK    3  A    between atoms: C_12  and  O_13
REMARK    4  A    between atoms: N_19  and  C_20
REMARK                            x       y       z     vdW  Elec       q    Type
REMARK                         _______ _______ _______ _____ _____    ______ ____
ROOT
ATOM      1  C   UNL     1      34.506 -40.723 -28.615  0.00  0.00    +0.162 A 
ATOM      2  C   UNL     1      33.244 -40.520 -29.167  0.00  0.00    -0.016 A 
ATOM      3  C   UNL     1      32.912 -39.282 -29.751  0.00  0.00    -0.053 A 
ATOM      4  C   UNL     1      33.842 -38.228 -29.839  0.00  0.00    -0.026 A 
ATOM      5  C   UNL     1      35.122 -38.475 -29.346  0.00  0.00    +0.016 A 
ATOM      6  C   UNL     1      35.414 -39.676 -28.704  0.00  0.00    +0.167 A 
ATOM      7  O   UNL     1      36.654 -39.701 -28.115  0.00  0.00    -0.484 OA
ATOM      8  C   UNL     1      37.140 -38.333 -28.202  0.00  0.00    +0.116 C 
ATOM      9  C   UNL     1      38.657 -38.438 -28.430  0.00  0.00    +0.015 C 
ATOM     10  C   UNL     1      39.221 -37.382 -29.370  0.00  0.00    +0.077 C 
ATOM     11  C   UNL     1      38.420 -37.346 -30.627  0.00  0.00    -0.059 C 
ATOM     12  C   UNL     1      37.084 -37.479 -30.598  0.00  0.00    -0.071 C 
ATOM     13  C   UNL     1      36.317 -37.571 -29.293  0.00  0.00    +0.056 C 
ATOM     14  C   UNL     1      35.871 -36.181 -28.793  0.00  0.00    -0.024 C 
ATOM     15  C   UNL     1      35.178 -35.297 -29.846  0.00  0.00    +0.000 C 
ATOM     16  N   UNL     1      34.384 -35.986 -30.874  0.00  0.00    -0.301 N 
ATOM     17  C   UNL     1      33.784 -34.999 -31.776  0.00  0.00    -0.012 C 
ATOM     18  C   UNL     1      33.355 -36.880 -30.333  0.00  0.00    +0.024 C 
ATOM     19  H   UNL     1      35.029 -36.588 -31.386  0.00  0.00    +0.000 HD
ENDROOT
BRANCH   1  21
ATOM     20  C   UNL     1      34.127 -42.316 -26.892  0.00  0.00    +0.079 C 
ATOM     21  O   UNL     1      34.928 -41.850 -27.968  0.00  0.00    -0.491 OA
ENDBRANCH   1  21
BRANCH  10  22
ATOM     22  O   UNL     1      40.559 -37.709 -29.718  0.00  0.00    -0.388 OA
ATOM     23  H   UNL     1      41.136 -36.953 -29.530  0.00  0.00    +0.000 HD
ENDBRANCH  10  22
TORSDOF 2
ENDMDL
MODEL 17
REMARK VINA RESULT:    -5.664     18.439     21.293
REMARK INTER + INTRA:          -6.240
REMARK INTER:                  -6.152
REMARK INTRA:                  -0.088
REMARK UNBOUND:                -0.079
REMARK  Name = cpd174.pdb
REMARK  4 active torsions:
REMARK  status: ('A' for Active; 'I' for Inactive)
REMARK    1  A    between atoms: C_1  and  O_2
REMARK    2  A    between atoms: O_2  and  C_3
REMARK    3  A    between atoms: C_12  and  O_13
REMARK    4  A    between atoms: N_19  and  C_20
REMARK                            x       y       z     vdW  Elec       q    Type
REMARK                         _______ _______ _______ _____ _____    ______ ____
ROOT
ATOM      1  C   UNL     1      41.567 -19.925 -38.300  0.00  0.00    +0.162 A 
ATOM      2  C   UNL     1      40.913 -18.714 -38.087  0.00  0.00    -0.016 A 
ATOM      3  C   UNL     1      41.397 -17.530 -38.675  0.00  0.00    -0.053 A 
ATOM      4  C   UNL     1      42.519 -17.526 -39.525  0.00  0.00    -0.026 A 
ATOM      5  C   UNL     1      43.117 -18.758 -39.783  0.00  0.00    +0.016 A 
ATOM      6  C   UNL     1      42.676 -19.909 -39.136  0.00  0.00    +0.167 A 
ATOM      7  O   UNL     1      43.474 -21.006 -39.351  0.00  0.00    -0.484 OA
ATOM      8  C   UNL     1      44.650 -20.487 -40.032  0.00  0.00    +0.116 C 
ATOM      9  C   UNL     1      45.075 -21.578 -41.029  0.00  0.00    +0.015 C 
ATOM     10  C   UNL     1      45.604 -21.041 -42.352  0.00  0.00    +0.077 C 
ATOM     11  C   UNL     1      44.645 -20.047 -42.913  0.00  0.00    -0.059 C 
ATOM     12  C   UNL     1      44.013 -19.172 -42.115  0.00  0.00    -0.071 C 
ATOM     13  C   UNL     1      44.312 -19.082 -40.630  0.00  0.00    +0.056 C 
ATOM     14  C   UNL     1      45.429 -18.060 -40.333  0.00  0.00    -0.024 C 
ATOM     15  C   UNL     1      45.254 -16.685 -41.004  0.00  0.00    +0.000 C 
ATOM     16  N   UNL     1      43.876 -16.213 -41.206  0.00  0.00    -0.301 N 
ATOM     17  C   UNL     1      43.896 -14.890 -41.835  0.00  0.00    -0.012 C 
ATOM     18  C   UNL     1      43.070 -16.189 -39.982  0.00  0.00    +0.024 C 
ATOM     19  H   UNL     1      43.424 -16.890 -41.820  0.00  0.00    +0.000 HD
ENDROOT
BRANCH   1  21
ATOM     20  C   UNL     1      40.227 -21.886 -38.386  0.00  0.00    +0.079 C 
ATOM     21  O   UNL     1      41.236 -21.126 -37.739  0.00  0.00    -0.491 OA
ENDBRANCH   1  21
BRANCH  10  22
ATOM     22  O   UNL     1      45.726 -22.101 -43.290  0.00  0.00    -0.388 OA
ATOM     23  H   UNL     1      46.011 -21.745 -44.146  0.00  0.00    +0.000 HD
ENDBRANCH  10  22
TORSDOF 2
ENDMDL
MODEL 18
REMARK VINA RESULT:    -5.647     25.172     27.596
REMARK INTER + INTRA:          -6.222
REMARK INTER:                  -6.145
REMARK INTRA:                  -0.076
REMARK UNBOUND:                -0.079
REMARK  Name = cpd174.pdb
REMARK  4 active torsions:
REMARK  status: ('A' for Active; 'I' for Inactive)
REMARK    1  A    between atoms: C_1  and  O_2
REMARK    2  A    between atoms: O_2  and  C_3
REMARK    3  A    between atoms: C_12  and  O_13
REMARK    4  A    between atoms: N_19  and  C_20
REMARK                            x       y       z     vdW  Elec       q    Type
REMARK                         _______ _______ _______ _____ _____    ______ ____
ROOT
ATOM      1  C   UNL     1      44.713 -35.768 -54.236  0.00  0.00    +0.162 A 
ATOM      2  C   UNL     1      44.882 -35.284 -52.941  0.00  0.00    -0.016 A 
ATOM      3  C   UNL     1      45.548 -34.064 -52.716  0.00  0.00    -0.053 A 
ATOM      4  C   UNL     1      46.024 -33.271 -53.778  0.00  0.00    -0.026 A 
ATOM      5  C   UNL     1      45.782 -33.735 -55.069  0.00  0.00    +0.016 A 
ATOM      6  C   UNL     1      45.190 -34.979 -55.275  0.00  0.00    +0.167 A 
ATOM      7  O   UNL     1      45.183 -35.378 -56.588  0.00  0.00    -0.484 OA
ATOM      8  C   UNL     1      46.019 -34.410 -57.280  0.00  0.00    +0.116 C 
ATOM      9  C   UNL     1      45.383 -34.218 -58.667  0.00  0.00    +0.015 C 
ATOM     10  C   UNL     1      45.449 -32.790 -59.191  0.00  0.00    +0.077 C 
ATOM     11  C   UNL     1      44.939 -31.848 -58.154  0.00  0.00    -0.059 C 
ATOM     12  C   UNL     1      45.228 -32.029 -56.855  0.00  0.00    -0.071 C 
ATOM     13  C   UNL     1      46.159 -33.132 -56.389  0.00  0.00    +0.056 C 
ATOM     14  C   UNL     1      47.624 -32.652 -56.320  0.00  0.00    -0.024 C 
ATOM     15  C   UNL     1      47.841 -31.317 -55.582  0.00  0.00    +0.000 C 
ATOM     16  N   UNL     1      46.927 -31.014 -54.472  0.00  0.00    -0.301 N 
ATOM     17  C   UNL     1      47.287 -29.724 -53.877  0.00  0.00    -0.012 C 
ATOM     18  C   UNL     1      46.870 -32.057 -53.444  0.00  0.00    +0.024 C 
ATOM     19  H   UNL     1      45.989 -30.969 -54.871  0.00  0.00    +0.000 HD
ENDROOT
BRANCH   1  21
ATOM     20  C   UNL     1      42.736 -36.977 -54.764  0.00  0.00    +0.079 C 
ATOM     21  O   UNL     1      44.143 -36.961 -54.580  0.00  0.00    -0.491 OA
ENDBRANCH   1  21
BRANCH  10  22
ATOM     22  O   UNL     1      44.623 -32.657 -60.340  0.00  0.00    -0.388 OA
ATOM     23  H   UNL     1      44.980 -31.964 -60.916  0.00  0.00    +0.000 HD
ENDBRANCH  10  22
TORSDOF 2
ENDMDL
MODEL 19
REMARK VINA RESULT:    -5.476     19.412     22.054
REMARK INTER + INTRA:          -6.036
REMARK INTER:                  -5.952
REMARK INTRA:                  -0.084
REMARK UNBOUND:                -0.079
REMARK  Name = cpd174.pdb
REMARK  4 active torsions:
REMARK  status: ('A' for Active; 'I' for Inactive)
REMARK    1  A    between atoms: C_1  and  O_2
REMARK    2  A    between atoms: O_2  and  C_3
REMARK    3  A    between atoms: C_12  and  O_13
REMARK    4  A    between atoms: N_19  and  C_20
REMARK                            x       y       z     vdW  Elec       q    Type
REMARK                         _______ _______ _______ _____ _____    ______ ____
ROOT
ATOM      1  C   UNL     1      47.115 -15.652 -38.549  0.00  0.00    +0.162 A 
ATOM      2  C   UNL     1      46.688 -15.408 -39.852  0.00  0.00    -0.016 A 
ATOM      3  C   UNL     1      46.255 -16.468 -40.671  0.00  0.00    -0.053 A 
ATOM      4  C   UNL     1      46.196 -17.794 -40.202  0.00  0.00    -0.026 A 
ATOM      5  C   UNL     1      46.559 -18.008 -38.873  0.00  0.00    +0.016 A 
ATOM      6  C   UNL     1      47.056 -16.964 -38.098  0.00  0.00    +0.167 A 
ATOM      7  O   UNL     1      47.540 -17.363 -36.877  0.00  0.00    -0.484 OA
ATOM      8  C   UNL     1      47.548 -18.817 -36.932  0.00  0.00    +0.116 C 
ATOM      9  C   UNL     1      47.191 -19.295 -35.515  0.00  0.00    +0.015 C 
ATOM     10  C   UNL     1      46.316 -20.540 -35.478  0.00  0.00    +0.077 C 
ATOM     11  C   UNL     1      45.136 -20.353 -36.370  0.00  0.00    -0.059 C 
ATOM     12  C   UNL     1      45.258 -19.734 -37.556  0.00  0.00    -0.071 C 
ATOM     13  C   UNL     1      46.605 -19.286 -38.089  0.00  0.00    +0.056 C 
ATOM     14  C   UNL     1      47.272 -20.379 -38.950  0.00  0.00    -0.024 C 
ATOM     15  C   UNL     1      46.368 -21.006 -40.028  0.00  0.00    +0.000 C 
ATOM     16  N   UNL     1      45.344 -20.136 -40.626  0.00  0.00    -0.301 N 
ATOM     17  C   UNL     1      44.593 -20.885 -41.637  0.00  0.00    -0.012 C 
ATOM     18  C   UNL     1      45.876 -18.894 -41.195  0.00  0.00    +0.024 C 
ATOM     19  H   UNL     1      44.727 -19.849 -39.867  0.00  0.00    +0.000 HD
ENDROOT
BRANCH   1  21
ATOM     20  C   UNL     1      48.435 -13.702 -38.226  0.00  0.00    +0.079 C 
ATOM     21  O   UNL     1      47.614 -14.724 -37.680  0.00  0.00    -0.491 OA
ENDBRANCH   1  21
BRANCH  10  22
ATOM     22  O   UNL     1      45.832 -20.753 -34.159  0.00  0.00    -0.388 OA
ATOM     23  H   UNL     1      45.287 -19.998 -33.889  0.00  0.00    +0.000 HD
ENDBRANCH  10  22
TORSDOF 2
ENDMDL
MODEL 20
REMARK VINA RESULT:    -5.418     18.626     20.325
REMARK INTER + INTRA:          -5.973
REMARK INTER:                  -5.885
REMARK INTRA:                  -0.088
REMARK UNBOUND:                -0.079
REMARK  Name = cpd174.pdb
REMARK  4 active torsions:
REMARK  status: ('A' for Active; 'I' for Inactive)
REMARK    1  A    between atoms: C_1  and  O_2
REMARK    2  A    between atoms: O_2  and  C_3
REMARK    3  A    between atoms: C_12  and  O_13
REMARK    4  A    between atoms: N_19  and  C_20
REMARK                            x       y       z     vdW  Elec       q    Type
REMARK                         _______ _______ _______ _____ _____    ______ ____
ROOT
ATOM      1  C   UNL     1      45.969 -20.603 -41.487  0.00  0.00    +0.162 A 
ATOM      2  C   UNL     1      44.902 -20.952 -42.311  0.00  0.00    -0.016 A 
ATOM      3  C   UNL     1      43.590 -20.987 -41.802  0.00  0.00    -0.053 A 
ATOM      4  C   UNL     1      43.299 -20.635 -40.470  0.00  0.00    -0.026 A 
ATOM      5  C   UNL     1      44.370 -20.218 -39.681  0.00  0.00    +0.016 A 
ATOM      6  C   UNL     1      45.671 -20.260 -40.174  0.00  0.00    +0.167 A 
ATOM      7  O   UNL     1      46.631 -19.996 -39.228  0.00  0.00    -0.484 OA
ATOM      8  C   UNL     1      45.915 -19.977 -37.962  0.00  0.00    +0.116 C 
ATOM      9  C   UNL     1      46.598 -18.897 -37.108  0.00  0.00    +0.015 C 
ATOM     10  C   UNL     1      45.642 -18.092 -36.238  0.00  0.00    +0.077 C 
ATOM     11  C   UNL     1      44.511 -17.585 -37.067  0.00  0.00    -0.059 C 
ATOM     12  C   UNL     1      43.961 -18.348 -38.025  0.00  0.00    -0.071 C 
ATOM     13  C   UNL     1      44.388 -19.787 -38.245  0.00  0.00    +0.056 C 
ATOM     14  C   UNL     1      43.535 -20.769 -37.416  0.00  0.00    -0.024 C 
ATOM     15  C   UNL     1      42.013 -20.563 -37.518  0.00  0.00    +0.000 C 
ATOM     16  N   UNL     1      41.494 -20.056 -38.797  0.00  0.00    -0.301 N 
ATOM     17  C   UNL     1      40.036 -19.937 -38.725  0.00  0.00    -0.012 C 
ATOM     18  C   UNL     1      41.889 -20.857 -39.960  0.00  0.00    +0.024 C 
ATOM     19  H   UNL     1      41.917 -19.139 -38.939  0.00  0.00    +0.000 HD
ENDROOT
BRANCH   1  21
ATOM     20  C   UNL     1      47.954 -21.844 -41.900  0.00  0.00    +0.079 C 
ATOM     21  O   UNL     1      47.288 -20.591 -41.842  0.00  0.00    -0.491 OA
ENDBRANCH   1  21
BRANCH  10  22
ATOM     22  O   UNL     1      46.316 -16.968 -35.690  0.00  0.00    -0.388 OA
ATOM     23  H   UNL     1      46.216 -16.969 -34.725  0.00  0.00    +0.000 HD
ENDBRANCH  10  22
TORSDOF 2
ENDMDL
