@<TRIPOS>MOLECULE
*****
 24 26 0 0 0
SMALL
GASTEIGER

@<TRIPOS>ATOM
      1 C          -0.0000   -3.0000    0.0000 C.3     1  UNL1        0.0899
      2 N          -0.8660   -2.5000    0.0000 N.3     1  UNL1       -0.2662
      3 C          -1.7321   -3.0000    0.0000 C.3     1  UNL1        0.0960
      4 C          -1.7321   -4.0000    0.0000 C.3     1  UNL1        0.1312
      5 N          -2.5981   -4.5000    0.0000 N.pl3   1  UNL1       -0.2174
      6 C          -3.4641   -4.0000    0.0000 C.ar    1  UNL1        0.1693
      7 C          -3.4641   -3.0000    0.0000 C.ar    1  UNL1        0.0392
      8 C          -4.3301   -2.5000    0.0000 C.ar    1  UNL1        0.0239
      9 C          -5.1962   -3.0000    0.0000 C.ar    1  UNL1        0.1030
     10 C          -6.0622   -2.5000    0.0000 C.ar    1  UNL1        0.0194
     11 C          -6.0622   -1.5000    0.0000 C.ar    1  UNL1        0.0016
     12 C          -6.9282   -1.0000    0.0000 C.ar    1  UNL1        0.0000
     13 C          -7.7942   -1.5000    0.0000 C.ar    1  UNL1        0.0000
     14 C          -7.7942   -2.5000    0.0000 C.ar    1  UNL1        0.0000
     15 C          -6.9282   -3.0000    0.0000 C.ar    1  UNL1        0.0016
     16 N          -5.1962   -4.0000    0.0000 N.ar    1  UNL1       -0.1467
     17 N          -4.3301   -4.5000    0.0000 N.ar    1  UNL1       -0.1314
     18 C          -0.8660   -1.5000    0.0000 C.3     1  UNL1        0.0992
     19 C          -0.0000   -1.0000    0.0000 C.ar    1  UNL1       -0.0061
     20 C           0.8660   -1.5000    0.0000 C.ar    1  UNL1       -0.0029
     21 C           1.7321   -1.0000    0.0000 C.ar    1  UNL1       -0.0003
     22 C           1.7321   -0.0000    0.0000 C.ar    1  UNL1       -0.0000
     23 C           0.8660    0.5000    0.0000 C.ar    1  UNL1       -0.0003
     24 C          -0.0000   -0.0000    0.0000 C.ar    1  UNL1       -0.0029
@<TRIPOS>BOND
     1     1     2    1
     2     2     3    1
     3     3     4    1
     4     4     5    1
     5     5     6    1
     6     6     7   ar
     7     7     8   ar
     8     8     9   ar
     9     9    10    1
    10    10    11   ar
    11    11    12   ar
    12    12    13   ar
    13    13    14   ar
    14    14    15   ar
    15    10    15   ar
    16     9    16   ar
    17    16    17   ar
    18     6    17   ar
    19     2    18    1
    20    18    19    1
    21    19    20   ar
    22    20    21   ar
    23    21    22   ar
    24    22    23   ar
    25    23    24   ar
    26    19    24   ar
