REMARK  Name = cpd252.pdb
REMARK  8 active torsions:
REMARK  status: ('A' for Active; 'I' for Inactive)
REMARK    1  A    between atoms: C_1  and  N_2
REMARK    2  A    between atoms: N_2  and  C_3
REMARK    3  A    between atoms: N_2  and  C_18
REMARK    4  A    between atoms: C_3  and  C_4
REMARK    5  A    between atoms: C_4  and  N_5
REMARK    6  A    between atoms: N_5  and  C_6
REMARK    7  A    between atoms: C_9  and  C_10
REMARK    8  A    between atoms: C_18  and  C_19
REMARK                            x       y       z     vdW  Elec       q    Type
REMARK                         _______ _______ _______ _____ _____    ______ ____
ROOT
ATOM      1  N   UNL     1      -2.677  -4.635   0.920  0.00  0.00    -0.326 N 
ATOM      2  H   UNL     1      -2.452  -5.327   1.583  0.00  0.00    +0.000 HD
ENDROOT
BRANCH   1   3
ATOM      3  C   UNL     1      -3.983  -4.170   0.691  0.00  0.00    +0.141 A 
ATOM      4  C   UNL     1      -4.422  -2.956   1.187  0.00  0.00    -0.018 A 
ATOM      5  C   UNL     1      -5.726  -2.536   0.922  0.00  0.00    -0.031 A 
ATOM      6  C   UNL     1      -6.563  -3.343   0.162  0.00  0.00    +0.093 A 
ATOM      7  N   UNL     1      -6.108  -4.533  -0.289  0.00  0.00    -0.147 NA
ATOM      8  N   UNL     1      -4.819  -4.949  -0.017  0.00  0.00    -0.134 NA
BRANCH   6   9
ATOM      9  C   UNL     1      -7.954  -2.992  -0.185  0.00  0.00    +0.002 A 
ATOM     10  C   UNL     1      -8.382  -1.656  -0.306  0.00  0.00    -0.053 A 
ATOM     11  C   UNL     1      -9.706  -1.340  -0.633  0.00  0.00    -0.061 A 
ATOM     12  C   UNL     1     -10.633  -2.354  -0.850  0.00  0.00    -0.062 A 
ATOM     13  C   UNL     1     -10.237  -3.684  -0.745  0.00  0.00    -0.061 A 
ATOM     14  C   UNL     1      -8.913  -3.996  -0.418  0.00  0.00    -0.053 A 
ENDBRANCH   6   9
ENDBRANCH   1   3
BRANCH   1  15
ATOM     15  C   UNL     1      -1.680  -3.971   0.057  0.00  0.00    +0.023 C 
BRANCH  15  16
ATOM     16  C   UNL     1      -1.040  -2.741   0.736  0.00  0.00    +0.014 C 
BRANCH  16  18
ATOM     17  C   UNL     1      -0.166  -1.696  -1.284  0.00  0.00    -0.012 C 
ATOM     18  N   UNL     1       0.163  -2.217   0.048  0.00  0.00    -0.300 N 
ATOM     19  H   UNL     1       0.825  -2.982  -0.082  0.00  0.00    +0.000 HD
BRANCH  18  20
ATOM     20  C   UNL     1       0.782  -1.166   0.882  0.00  0.00    +0.024 C 
BRANCH  20  21
ATOM     21  C   UNL     1       2.158  -0.746   0.410  0.00  0.00    -0.033 A 
ATOM     22  C   UNL     1       3.197  -1.685   0.322  0.00  0.00    -0.057 A 
ATOM     23  C   UNL     1       4.470  -1.297  -0.098  0.00  0.00    -0.061 A 
ATOM     24  C   UNL     1       4.720   0.032  -0.431  0.00  0.00    -0.062 A 
ATOM     25  C   UNL     1       3.697   0.976  -0.345  0.00  0.00    -0.061 A 
ATOM     26  C   UNL     1       2.423   0.590   0.075  0.00  0.00    -0.057 A 
ENDBRANCH  20  21
ENDBRANCH  18  20
ENDBRANCH  16  18
ENDBRANCH  15  16
ENDBRANCH   1  15
TORSDOF 7
