MODEL 1
REMARK VINA RESULT:    -7.373      0.000      0.000
REMARK INTER + INTRA:         -11.417
REMARK INTER:                 -10.391
REMARK INTRA:                  -1.027
REMARK UNBOUND:                -1.027
REMARK  Name = cpd252.pdb
REMARK  8 active torsions:
REMARK  status: ('A' for Active; 'I' for Inactive)
REMARK    1  A    between atoms: C_1  and  N_2
REMARK    2  A    between atoms: N_2  and  C_3
REMARK    3  A    between atoms: N_2  and  C_18
REMARK    4  A    between atoms: C_3  and  C_4
REMARK    5  A    between atoms: C_4  and  N_5
REMARK    6  A    between atoms: N_5  and  C_6
REMARK    7  A    between atoms: C_9  and  C_10
REMARK    8  A    between atoms: C_18  and  C_19
REMARK                            x       y       z     vdW  Elec       q    Type
REMARK                         _______ _______ _______ _____ _____    ______ ____
ROOT
ATOM      1  N   UNL     1      35.455 -37.964 -27.293  0.00  0.00    -0.326 N 
ATOM      2  H   UNL     1      35.254 -38.817 -26.845  0.00  0.00    +0.000 HD
ENDROOT
BRANCH   1   3
ATOM      3  C   UNL     1      36.589 -37.754 -28.095  0.00  0.00    +0.141 A 
ATOM      4  C   UNL     1      36.624 -36.767 -29.063  0.00  0.00    -0.018 A 
ATOM      5  C   UNL     1      37.780 -36.593 -29.827  0.00  0.00    -0.031 A 
ATOM      6  C   UNL     1      38.878 -37.413 -29.601  0.00  0.00    +0.093 A 
ATOM      7  N   UNL     1      38.802 -38.381 -28.661  0.00  0.00    -0.147 NA
ATOM      8  N   UNL     1      37.653 -38.556 -27.914  0.00  0.00    -0.134 NA
BRANCH   6   9
ATOM      9  C   UNL     1      40.150 -37.309 -30.342  0.00  0.00    +0.002 A 
ATOM     10  C   UNL     1      40.367 -36.323 -31.323  0.00  0.00    -0.053 A 
ATOM     11  C   UNL     1      41.579 -36.241 -32.020  0.00  0.00    -0.061 A 
ATOM     12  C   UNL     1      42.604 -37.141 -31.748  0.00  0.00    -0.062 A 
ATOM     13  C   UNL     1      42.420 -38.122 -30.778  0.00  0.00    -0.061 A 
ATOM     14  C   UNL     1      41.208 -38.202 -30.084  0.00  0.00    -0.053 A 
ENDBRANCH   6   9
ENDBRANCH   1   3
BRANCH   1  15
ATOM     15  C   UNL     1      34.599 -36.765 -27.197  0.00  0.00    +0.023 C 
BRANCH  15  16
ATOM     16  C   UNL     1      33.190 -37.000 -27.782  0.00  0.00    +0.014 C 
BRANCH  16  18
ATOM     17  C   UNL     1      32.075 -37.230 -29.936  0.00  0.00    -0.012 C 
ATOM     18  N   UNL     1      32.974 -36.405 -29.122  0.00  0.00    -0.300 N 
ATOM     19  H   UNL     1      33.870 -36.363 -29.609  0.00  0.00    +0.000 HD
BRANCH  18  20
ATOM     20  C   UNL     1      32.433 -35.039 -28.966  0.00  0.00    +0.024 C 
BRANCH  20  21
ATOM     21  C   UNL     1      33.200 -33.988 -29.742  0.00  0.00    -0.033 A 
ATOM     22  C   UNL     1      32.630 -32.730 -29.989  0.00  0.00    -0.057 A 
ATOM     23  C   UNL     1      33.329 -31.766 -30.717  0.00  0.00    -0.061 A 
ATOM     24  C   UNL     1      34.601 -32.048 -31.208  0.00  0.00    -0.062 A 
ATOM     25  C   UNL     1      35.177 -33.296 -30.972  0.00  0.00    -0.061 A 
ATOM     26  C   UNL     1      34.480 -34.262 -30.245  0.00  0.00    -0.057 A 
ENDBRANCH  20  21
ENDBRANCH  18  20
ENDBRANCH  16  18
ENDBRANCH  15  16
ENDBRANCH   1  15
TORSDOF 7
ENDMDL
MODEL 2
REMARK VINA RESULT:    -6.993      2.458      4.672
REMARK INTER + INTRA:         -10.882
REMARK INTER:                  -9.847
REMARK INTRA:                  -1.035
REMARK UNBOUND:                -1.027
REMARK  Name = cpd252.pdb
REMARK  8 active torsions:
REMARK  status: ('A' for Active; 'I' for Inactive)
REMARK    1  A    between atoms: C_1  and  N_2
REMARK    2  A    between atoms: N_2  and  C_3
REMARK    3  A    between atoms: N_2  and  C_18
REMARK    4  A    between atoms: C_3  and  C_4
REMARK    5  A    between atoms: C_4  and  N_5
REMARK    6  A    between atoms: N_5  and  C_6
REMARK    7  A    between atoms: C_9  and  C_10
REMARK    8  A    between atoms: C_18  and  C_19
REMARK                            x       y       z     vdW  Elec       q    Type
REMARK                         _______ _______ _______ _____ _____    ______ ____
ROOT
ATOM      1  N   UNL     1      35.184 -34.803 -30.582  0.00  0.00    -0.326 N 
ATOM      2  H   UNL     1      34.976 -34.013 -30.033  0.00  0.00    +0.000 HD
ENDROOT
BRANCH   1   3
ATOM      3  C   UNL     1      36.474 -35.342 -30.716  0.00  0.00    +0.141 A 
ATOM      4  C   UNL     1      37.350 -34.902 -31.693  0.00  0.00    -0.018 A 
ATOM      5  C   UNL     1      38.624 -35.463 -31.777  0.00  0.00    -0.031 A 
ATOM      6  C   UNL     1      38.996 -36.454 -30.876  0.00  0.00    +0.093 A 
ATOM      7  N   UNL     1      38.108 -36.874 -29.948  0.00  0.00    -0.147 NA
ATOM      8  N   UNL     1      36.844 -36.322 -29.874  0.00  0.00    -0.134 NA
BRANCH   6   9
ATOM      9  C   UNL     1      40.320 -37.107 -30.869  0.00  0.00    +0.002 A 
ATOM     10  C   UNL     1      40.736 -37.945 -29.818  0.00  0.00    -0.053 A 
ATOM     11  C   UNL     1      41.996 -38.555 -29.825  0.00  0.00    -0.061 A 
ATOM     12  C   UNL     1      42.869 -38.342 -30.887  0.00  0.00    -0.062 A 
ATOM     13  C   UNL     1      42.482 -37.525 -31.944  0.00  0.00    -0.061 A 
ATOM     14  C   UNL     1      41.222 -36.917 -31.933  0.00  0.00    -0.053 A 
ENDBRANCH   6   9
ENDBRANCH   1   3
BRANCH   1  15
ATOM     15  C   UNL     1      34.174 -35.553 -31.356  0.00  0.00    +0.023 C 
BRANCH  15  16
ATOM     16  C   UNL     1      33.079 -36.166 -30.456  0.00  0.00    +0.014 C 
BRANCH  16  18
ATOM     17  C   UNL     1      31.624 -37.813 -31.507  0.00  0.00    -0.012 C 
ATOM     18  N   UNL     1      32.827 -37.607 -30.692  0.00  0.00    -0.300 N 
ATOM     19  H   UNL     1      32.665 -38.062 -29.793  0.00  0.00    +0.000 HD
BRANCH  18  20
ATOM     20  C   UNL     1      34.009 -38.208 -31.342  0.00  0.00    +0.024 C 
BRANCH  20  21
ATOM     21  C   UNL     1      34.617 -39.354 -30.561  0.00  0.00    -0.033 A 
ATOM     22  C   UNL     1      35.637 -40.136 -31.124  0.00  0.00    -0.057 A 
ATOM     23  C   UNL     1      36.188 -41.202 -30.412  0.00  0.00    -0.061 A 
ATOM     24  C   UNL     1      35.725 -41.501 -29.133  0.00  0.00    -0.062 A 
ATOM     25  C   UNL     1      34.709 -40.733 -28.563  0.00  0.00    -0.061 A 
ATOM     26  C   UNL     1      34.157 -39.666 -29.274  0.00  0.00    -0.057 A 
ENDBRANCH  20  21
ENDBRANCH  18  20
ENDBRANCH  16  18
ENDBRANCH  15  16
ENDBRANCH   1  15
TORSDOF 7
ENDMDL
MODEL 3
REMARK VINA RESULT:    -6.917      3.329      5.516
REMARK INTER + INTRA:         -10.774
REMARK INTER:                  -8.576
REMARK INTRA:                  -2.197
REMARK UNBOUND:                -1.027
REMARK  Name = cpd252.pdb
REMARK  8 active torsions:
REMARK  status: ('A' for Active; 'I' for Inactive)
REMARK    1  A    between atoms: C_1  and  N_2
REMARK    2  A    between atoms: N_2  and  C_3
REMARK    3  A    between atoms: N_2  and  C_18
REMARK    4  A    between atoms: C_3  and  C_4
REMARK    5  A    between atoms: C_4  and  N_5
REMARK    6  A    between atoms: N_5  and  C_6
REMARK    7  A    between atoms: C_9  and  C_10
REMARK    8  A    between atoms: C_18  and  C_19
REMARK                            x       y       z     vdW  Elec       q    Type
REMARK                         _______ _______ _______ _____ _____    ______ ____
ROOT
ATOM      1  N   UNL     1      32.458 -30.853 -30.806  0.00  0.00    -0.326 N 
ATOM      2  H   UNL     1      32.656 -29.984 -31.223  0.00  0.00    +0.000 HD
ENDROOT
BRANCH   1   3
ATOM      3  C   UNL     1      33.404 -31.882 -30.661  0.00  0.00    +0.141 A 
ATOM      4  C   UNL     1      33.342 -32.787 -29.618  0.00  0.00    -0.018 A 
ATOM      5  C   UNL     1      34.301 -33.797 -29.526  0.00  0.00    -0.031 A 
ATOM      6  C   UNL     1      35.302 -33.879 -30.485  0.00  0.00    +0.093 A 
ATOM      7  N   UNL     1      35.344 -32.964 -31.480  0.00  0.00    -0.147 NA
ATOM      8  N   UNL     1      34.398 -31.961 -31.562  0.00  0.00    -0.134 NA
BRANCH   6   9
ATOM      9  C   UNL     1      36.358 -34.910 -30.489  0.00  0.00    +0.002 A 
ATOM     10  C   UNL     1      36.375 -35.968 -29.561  0.00  0.00    -0.053 A 
ATOM     11  C   UNL     1      37.386 -36.937 -29.576  0.00  0.00    -0.061 A 
ATOM     12  C   UNL     1      38.402 -36.871 -30.523  0.00  0.00    -0.062 A 
ATOM     13  C   UNL     1      38.407 -35.840 -31.458  0.00  0.00    -0.061 A 
ATOM     14  C   UNL     1      37.395 -34.874 -31.440  0.00  0.00    -0.053 A 
ENDBRANCH   6   9
ENDBRANCH   1   3
BRANCH   1  15
ATOM     15  C   UNL     1      31.135 -31.219 -30.262  0.00  0.00    +0.023 C 
BRANCH  15  16
ATOM     16  C   UNL     1      30.115 -31.553 -31.371  0.00  0.00    +0.014 C 
BRANCH  16  18
ATOM     17  C   UNL     1      28.063 -32.857 -31.209  0.00  0.00    -0.012 C 
ATOM     18  N   UNL     1      29.528 -32.910 -31.276  0.00  0.00    -0.300 N 
ATOM     19  H   UNL     1      29.854 -33.349 -30.415  0.00  0.00    +0.000 HD
BRANCH  18  20
ATOM     20  C   UNL     1      29.968 -33.714 -32.435  0.00  0.00    +0.024 C 
BRANCH  20  21
ATOM     21  C   UNL     1      31.033 -34.736 -32.098  0.00  0.00    -0.033 A 
ATOM     22  C   UNL     1      30.889 -35.571 -30.980  0.00  0.00    -0.057 A 
ATOM     23  C   UNL     1      31.876 -36.503 -30.658  0.00  0.00    -0.061 A 
ATOM     24  C   UNL     1      33.019 -36.609 -31.447  0.00  0.00    -0.062 A 
ATOM     25  C   UNL     1      33.177 -35.783 -32.559  0.00  0.00    -0.061 A 
ATOM     26  C   UNL     1      32.190 -34.850 -32.883  0.00  0.00    -0.057 A 
ENDBRANCH  20  21
ENDBRANCH  18  20
ENDBRANCH  16  18
ENDBRANCH  15  16
ENDBRANCH   1  15
TORSDOF 7
ENDMDL
MODEL 4
REMARK VINA RESULT:    -6.814      1.480      2.360
REMARK INTER + INTRA:         -10.630
REMARK INTER:                  -9.176
REMARK INTRA:                  -1.454
REMARK UNBOUND:                -1.027
REMARK  Name = cpd252.pdb
REMARK  8 active torsions:
REMARK  status: ('A' for Active; 'I' for Inactive)
REMARK    1  A    between atoms: C_1  and  N_2
REMARK    2  A    between atoms: N_2  and  C_3
REMARK    3  A    between atoms: N_2  and  C_18
REMARK    4  A    between atoms: C_3  and  C_4
REMARK    5  A    between atoms: C_4  and  N_5
REMARK    6  A    between atoms: N_5  and  C_6
REMARK    7  A    between atoms: C_9  and  C_10
REMARK    8  A    between atoms: C_18  and  C_19
REMARK                            x       y       z     vdW  Elec       q    Type
REMARK                         _______ _______ _______ _____ _____    ______ ____
ROOT
ATOM      1  N   UNL     1      33.384 -39.358 -27.327  0.00  0.00    -0.326 N 
ATOM      2  H   UNL     1      33.253 -40.037 -26.626  0.00  0.00    +0.000 HD
ENDROOT
BRANCH   1   3
ATOM      3  C   UNL     1      34.636 -39.044 -27.883  0.00  0.00    +0.141 A 
ATOM      4  C   UNL     1      34.907 -39.239 -29.225  0.00  0.00    -0.018 A 
ATOM      5  C   UNL     1      36.163 -38.900 -29.729  0.00  0.00    -0.031 A 
ATOM      6  C   UNL     1      37.122 -38.370 -28.876  0.00  0.00    +0.093 A 
ATOM      7  N   UNL     1      36.830 -38.213 -27.566  0.00  0.00    -0.147 NA
ATOM      8  N   UNL     1      35.588 -38.558 -27.069  0.00  0.00    -0.134 NA
BRANCH   6   9
ATOM      9  C   UNL     1      38.476 -37.970 -29.305  0.00  0.00    +0.002 A 
ATOM     10  C   UNL     1      39.635 -38.410 -28.636  0.00  0.00    -0.053 A 
ATOM     11  C   UNL     1      40.912 -38.019 -29.055  0.00  0.00    -0.061 A 
ATOM     12  C   UNL     1      41.061 -37.180 -30.154  0.00  0.00    -0.062 A 
ATOM     13  C   UNL     1      39.934 -36.736 -30.840  0.00  0.00    -0.061 A 
ATOM     14  C   UNL     1      38.659 -37.129 -30.419  0.00  0.00    -0.053 A 
ENDBRANCH   6   9
ENDBRANCH   1   3
BRANCH   1  15
ATOM     15  C   UNL     1      32.289 -38.558 -27.909  0.00  0.00    +0.023 C 
BRANCH  15  16
ATOM     16  C   UNL     1      32.231 -37.129 -27.328  0.00  0.00    +0.014 C 
BRANCH  16  18
ATOM     17  C   UNL     1      30.406 -35.836 -28.295  0.00  0.00    -0.012 C 
ATOM     18  N   UNL     1      31.853 -36.084 -28.308  0.00  0.00    -0.300 N 
ATOM     19  H   UNL     1      32.095 -36.409 -29.244  0.00  0.00    +0.000 HD
BRANCH  18  20
ATOM     20  C   UNL     1      32.598 -34.843 -28.009  0.00  0.00    +0.024 C 
BRANCH  20  21
ATOM     21  C   UNL     1      33.724 -34.561 -28.982  0.00  0.00    -0.033 A 
ATOM     22  C   UNL     1      33.680 -33.429 -29.810  0.00  0.00    -0.057 A 
ATOM     23  C   UNL     1      34.709 -33.175 -30.718  0.00  0.00    -0.061 A 
ATOM     24  C   UNL     1      35.790 -34.048 -30.810  0.00  0.00    -0.062 A 
ATOM     25  C   UNL     1      35.844 -35.178 -29.994  0.00  0.00    -0.061 A 
ATOM     26  C   UNL     1      34.816 -35.435 -29.086  0.00  0.00    -0.057 A 
ENDBRANCH  20  21
ENDBRANCH  18  20
ENDBRANCH  16  18
ENDBRANCH  15  16
ENDBRANCH   1  15
TORSDOF 7
ENDMDL
MODEL 5
REMARK VINA RESULT:    -6.743      2.850      5.057
REMARK INTER + INTRA:         -10.528
REMARK INTER:                  -8.941
REMARK INTRA:                  -1.587
REMARK UNBOUND:                -1.027
REMARK  Name = cpd252.pdb
REMARK  8 active torsions:
REMARK  status: ('A' for Active; 'I' for Inactive)
REMARK    1  A    between atoms: C_1  and  N_2
REMARK    2  A    between atoms: N_2  and  C_3
REMARK    3  A    between atoms: N_2  and  C_18
REMARK    4  A    between atoms: C_3  and  C_4
REMARK    5  A    between atoms: C_4  and  N_5
REMARK    6  A    between atoms: N_5  and  C_6
REMARK    7  A    between atoms: C_9  and  C_10
REMARK    8  A    between atoms: C_18  and  C_19
REMARK                            x       y       z     vdW  Elec       q    Type
REMARK                         _______ _______ _______ _____ _____    ______ ____
ROOT
ATOM      1  N   UNL     1      33.506 -35.211 -30.739  0.00  0.00    -0.326 N 
ATOM      2  H   UNL     1      33.101 -34.414 -30.328  0.00  0.00    +0.000 HD
ENDROOT
BRANCH   1   3
ATOM      3  C   UNL     1      34.752 -35.737 -30.359  0.00  0.00    +0.141 A 
ATOM      4  C   UNL     1      35.040 -36.053 -29.044  0.00  0.00    -0.018 A 
ATOM      5  C   UNL     1      36.290 -36.582 -28.722  0.00  0.00    -0.031 A 
ATOM      6  C   UNL     1      37.227 -36.784 -29.727  0.00  0.00    +0.093 A 
ATOM      7  N   UNL     1      36.920 -36.444 -30.999  0.00  0.00    -0.147 NA
ATOM      8  N   UNL     1      35.684 -35.913 -31.312  0.00  0.00    -0.134 NA
BRANCH   6   9
ATOM      9  C   UNL     1      38.573 -37.345 -29.499  0.00  0.00    +0.002 A 
ATOM     10  C   UNL     1      39.658 -37.060 -30.350  0.00  0.00    -0.053 A 
ATOM     11  C   UNL     1      40.928 -37.603 -30.121  0.00  0.00    -0.061 A 
ATOM     12  C   UNL     1      41.143 -38.441 -29.032  0.00  0.00    -0.062 A 
ATOM     13  C   UNL     1      40.092 -38.734 -28.169  0.00  0.00    -0.061 A 
ATOM     14  C   UNL     1      38.824 -38.191 -28.401  0.00  0.00    -0.053 A 
ENDBRANCH   6   9
ENDBRANCH   1   3
BRANCH   1  15
ATOM     15  C   UNL     1      32.871 -35.987 -31.823  0.00  0.00    +0.023 C 
BRANCH  15  16
ATOM     16  C   UNL     1      32.409 -37.384 -31.354  0.00  0.00    +0.014 C 
BRANCH  16  18
ATOM     17  C   UNL     1      32.036 -38.057 -33.666  0.00  0.00    -0.012 C 
ATOM     18  N   UNL     1      32.578 -38.457 -32.362  0.00  0.00    -0.300 N 
ATOM     19  H   UNL     1      32.056 -39.278 -32.057  0.00  0.00    +0.000 HD
BRANCH  18  20
ATOM     20  C   UNL     1      34.012 -38.798 -32.475  0.00  0.00    +0.024 C 
BRANCH  20  21
ATOM     21  C   UNL     1      34.474 -39.824 -31.462  0.00  0.00    -0.033 A 
ATOM     22  C   UNL     1      33.587 -40.800 -30.982  0.00  0.00    -0.057 A 
ATOM     23  C   UNL     1      34.007 -41.737 -30.037  0.00  0.00    -0.061 A 
ATOM     24  C   UNL     1      35.315 -41.708 -29.559  0.00  0.00    -0.062 A 
ATOM     25  C   UNL     1      36.206 -40.741 -30.025  0.00  0.00    -0.061 A 
ATOM     26  C   UNL     1      35.788 -39.803 -30.971  0.00  0.00    -0.057 A 
ENDBRANCH  20  21
ENDBRANCH  18  20
ENDBRANCH  16  18
ENDBRANCH  15  16
ENDBRANCH   1  15
TORSDOF 7
ENDMDL
MODEL 6
REMARK VINA RESULT:    -6.739      2.754      4.944
REMARK INTER + INTRA:         -10.523
REMARK INTER:                  -9.705
REMARK INTRA:                  -0.818
REMARK UNBOUND:                -1.027
REMARK  Name = cpd252.pdb
REMARK  8 active torsions:
REMARK  status: ('A' for Active; 'I' for Inactive)
REMARK    1  A    between atoms: C_1  and  N_2
REMARK    2  A    between atoms: N_2  and  C_3
REMARK    3  A    between atoms: N_2  and  C_18
REMARK    4  A    between atoms: C_3  and  C_4
REMARK    5  A    between atoms: C_4  and  N_5
REMARK    6  A    between atoms: N_5  and  C_6
REMARK    7  A    between atoms: C_9  and  C_10
REMARK    8  A    between atoms: C_18  and  C_19
REMARK                            x       y       z     vdW  Elec       q    Type
REMARK                         _______ _______ _______ _____ _____    ______ ____
ROOT
ATOM      1  N   UNL     1      35.029 -36.550 -28.144  0.00  0.00    -0.326 N 
ATOM      2  H   UNL     1      34.833 -35.904 -27.427  0.00  0.00    +0.000 HD
ENDROOT
BRANCH   1   3
ATOM      3  C   UNL     1      36.329 -36.878 -28.565  0.00  0.00    +0.141 A 
ATOM      4  C   UNL     1      37.144 -37.716 -27.826  0.00  0.00    -0.018 A 
ATOM      5  C   UNL     1      38.423 -38.018 -28.294  0.00  0.00    -0.031 A 
ATOM      6  C   UNL     1      38.858 -37.474 -29.496  0.00  0.00    +0.093 A 
ATOM      7  N   UNL     1      38.043 -36.642 -30.181  0.00  0.00    -0.147 NA
ATOM      8  N   UNL     1      36.780 -36.339 -29.710  0.00  0.00    -0.134 NA
BRANCH   6   9
ATOM      9  C   UNL     1      40.186 -37.735 -30.086  0.00  0.00    +0.002 A 
ATOM     10  C   UNL     1      41.163 -38.502 -29.424  0.00  0.00    -0.053 A 
ATOM     11  C   UNL     1      42.419 -38.737 -29.996  0.00  0.00    -0.061 A 
ATOM     12  C   UNL     1      42.725 -38.212 -31.247  0.00  0.00    -0.062 A 
ATOM     13  C   UNL     1      41.776 -37.456 -31.929  0.00  0.00    -0.061 A 
ATOM     14  C   UNL     1      40.523 -37.223 -31.354  0.00  0.00    -0.053 A 
ENDBRANCH   6   9
ENDBRANCH   1   3
BRANCH   1  15
ATOM     15  C   UNL     1      33.989 -37.282 -28.895  0.00  0.00    +0.023 C 
BRANCH  15  16
ATOM     16  C   UNL     1      33.620 -38.626 -28.232  0.00  0.00    +0.014 C 
BRANCH  16  18
ATOM     17  C   UNL     1      31.549 -39.019 -27.010  0.00  0.00    -0.012 C 
ATOM     18  N   UNL     1      32.919 -38.498 -26.933  0.00  0.00    -0.300 N 
ATOM     19  H   UNL     1      32.853 -37.509 -26.693  0.00  0.00    +0.000 HD
BRANCH  18  20
ATOM     20  C   UNL     1      33.690 -39.208 -25.891  0.00  0.00    +0.024 C 
BRANCH  20  21
ATOM     21  C   UNL     1      33.634 -38.542 -24.533  0.00  0.00    -0.033 A 
ATOM     22  C   UNL     1      33.749 -37.148 -24.418  0.00  0.00    -0.057 A 
ATOM     23  C   UNL     1      33.713 -36.534 -23.166  0.00  0.00    -0.061 A 
ATOM     24  C   UNL     1      33.565 -37.304 -22.015  0.00  0.00    -0.062 A 
ATOM     25  C   UNL     1      33.452 -38.690 -22.114  0.00  0.00    -0.061 A 
ATOM     26  C   UNL     1      33.488 -39.307 -23.366  0.00  0.00    -0.057 A 
ENDBRANCH  20  21
ENDBRANCH  18  20
ENDBRANCH  16  18
ENDBRANCH  15  16
ENDBRANCH   1  15
TORSDOF 7
ENDMDL
MODEL 7
REMARK VINA RESULT:    -6.616      2.226      3.407
REMARK INTER + INTRA:         -10.350
REMARK INTER:                 -10.177
REMARK INTRA:                  -0.173
REMARK UNBOUND:                -1.027
REMARK  Name = cpd252.pdb
REMARK  8 active torsions:
REMARK  status: ('A' for Active; 'I' for Inactive)
REMARK    1  A    between atoms: C_1  and  N_2
REMARK    2  A    between atoms: N_2  and  C_3
REMARK    3  A    between atoms: N_2  and  C_18
REMARK    4  A    between atoms: C_3  and  C_4
REMARK    5  A    between atoms: C_4  and  N_5
REMARK    6  A    between atoms: N_5  and  C_6
REMARK    7  A    between atoms: C_9  and  C_10
REMARK    8  A    between atoms: C_18  and  C_19
REMARK                            x       y       z     vdW  Elec       q    Type
REMARK                         _______ _______ _______ _____ _____    ______ ____
ROOT
ATOM      1  N   UNL     1      34.873 -36.098 -30.528  0.00  0.00    -0.326 N 
ATOM      2  H   UNL     1      34.322 -36.274 -29.732  0.00  0.00    +0.000 HD
ENDROOT
BRANCH   1   3
ATOM      3  C   UNL     1      36.267 -36.274 -30.566  0.00  0.00    +0.141 A 
ATOM      4  C   UNL     1      36.938 -36.988 -29.590  0.00  0.00    -0.018 A 
ATOM      5  C   UNL     1      38.322 -37.142 -29.680  0.00  0.00    -0.031 A 
ATOM      6  C   UNL     1      39.004 -36.577 -30.750  0.00  0.00    +0.093 A 
ATOM      7  N   UNL     1      38.319 -35.868 -31.674  0.00  0.00    -0.147 NA
ATOM      8  N   UNL     1      36.950 -35.711 -31.576  0.00  0.00    -0.134 NA
BRANCH   6   9
ATOM      9  C   UNL     1      40.463 -36.687 -30.947  0.00  0.00    +0.002 A 
ATOM     10  C   UNL     1      41.178 -37.855 -30.622  0.00  0.00    -0.053 A 
ATOM     11  C   UNL     1      42.562 -37.942 -30.812  0.00  0.00    -0.061 A 
ATOM     12  C   UNL     1      43.264 -36.861 -31.337  0.00  0.00    -0.062 A 
ATOM     13  C   UNL     1      42.583 -35.695 -31.675  0.00  0.00    -0.061 A 
ATOM     14  C   UNL     1      41.199 -35.613 -31.483  0.00  0.00    -0.053 A 
ENDBRANCH   6   9
ENDBRANCH   1   3
BRANCH   1  15
ATOM     15  C   UNL     1      34.328 -35.621 -31.814  0.00  0.00    +0.023 C 
BRANCH  15  16
ATOM     16  C   UNL     1      33.370 -34.423 -31.639  0.00  0.00    +0.014 C 
BRANCH  16  18
ATOM     17  C   UNL     1      34.330 -32.238 -31.149  0.00  0.00    -0.012 C 
ATOM     18  N   UNL     1      33.769 -33.468 -30.579  0.00  0.00    -0.300 N 
ATOM     19  H   UNL     1      34.499 -33.897 -30.010  0.00  0.00    +0.000 HD
BRANCH  18  20
ATOM     20  C   UNL     1      32.598 -33.165 -29.730  0.00  0.00    +0.024 C 
BRANCH  20  21
ATOM     21  C   UNL     1      31.579 -32.266 -30.398  0.00  0.00    -0.033 A 
ATOM     22  C   UNL     1      31.549 -30.892 -30.116  0.00  0.00    -0.057 A 
ATOM     23  C   UNL     1      30.601 -30.064 -30.719  0.00  0.00    -0.061 A 
ATOM     24  C   UNL     1      29.671 -30.600 -31.607  0.00  0.00    -0.062 A 
ATOM     25  C   UNL     1      29.688 -31.965 -31.894  0.00  0.00    -0.061 A 
ATOM     26  C   UNL     1      30.636 -32.794 -31.292  0.00  0.00    -0.057 A 
ENDBRANCH  20  21
ENDBRANCH  18  20
ENDBRANCH  16  18
ENDBRANCH  15  16
ENDBRANCH   1  15
TORSDOF 7
ENDMDL
MODEL 8
REMARK VINA RESULT:    -6.596      2.783      4.907
REMARK INTER + INTRA:         -10.322
REMARK INTER:                  -8.423
REMARK INTRA:                  -1.900
REMARK UNBOUND:                -1.027
REMARK  Name = cpd252.pdb
REMARK  8 active torsions:
REMARK  status: ('A' for Active; 'I' for Inactive)
REMARK    1  A    between atoms: C_1  and  N_2
REMARK    2  A    between atoms: N_2  and  C_3
REMARK    3  A    between atoms: N_2  and  C_18
REMARK    4  A    between atoms: C_3  and  C_4
REMARK    5  A    between atoms: C_4  and  N_5
REMARK    6  A    between atoms: N_5  and  C_6
REMARK    7  A    between atoms: C_9  and  C_10
REMARK    8  A    between atoms: C_18  and  C_19
REMARK                            x       y       z     vdW  Elec       q    Type
REMARK                         _______ _______ _______ _____ _____    ______ ____
ROOT
ATOM      1  N   UNL     1      33.653 -37.563 -27.993  0.00  0.00    -0.326 N 
ATOM      2  H   UNL     1      32.806 -37.274 -28.403  0.00  0.00    +0.000 HD
ENDROOT
BRANCH   1   3
ATOM      3  C   UNL     1      34.902 -37.454 -28.626  0.00  0.00    +0.141 A 
ATOM      4  C   UNL     1      35.013 -37.220 -29.985  0.00  0.00    -0.018 A 
ATOM      5  C   UNL     1      36.278 -37.109 -30.562  0.00  0.00    -0.031 A 
ATOM      6  C   UNL     1      37.408 -37.234 -29.764  0.00  0.00    +0.093 A 
ATOM      7  N   UNL     1      37.263 -37.484 -28.443  0.00  0.00    -0.147 NA
ATOM      8  N   UNL     1      36.008 -37.601 -27.877  0.00  0.00    -0.134 NA
BRANCH   6   9
ATOM      9  C   UNL     1      38.790 -37.125 -30.268  0.00  0.00    +0.002 A 
ATOM     10  C   UNL     1      39.104 -36.429 -31.452  0.00  0.00    -0.053 A 
ATOM     11  C   UNL     1      40.420 -36.338 -31.919  0.00  0.00    -0.061 A 
ATOM     12  C   UNL     1      41.456 -36.938 -31.211  0.00  0.00    -0.062 A 
ATOM     13  C   UNL     1      41.178 -37.626 -30.033  0.00  0.00    -0.061 A 
ATOM     14  C   UNL     1      39.861 -37.715 -29.570  0.00  0.00    -0.053 A 
ENDBRANCH   6   9
ENDBRANCH   1   3
BRANCH   1  15
ATOM     15  C   UNL     1      33.751 -38.159 -26.646  0.00  0.00    +0.023 C 
BRANCH  15  16
ATOM     16  C   UNL     1      33.173 -39.589 -26.591  0.00  0.00    +0.014 C 
BRANCH  16  18
ATOM     17  C   UNL     1      33.999 -41.198 -24.958  0.00  0.00    -0.012 C 
ATOM     18  N   UNL     1      34.173 -40.645 -26.306  0.00  0.00    -0.300 N 
ATOM     19  H   UNL     1      35.105 -40.232 -26.345  0.00  0.00    +0.000 HD
BRANCH  18  20
ATOM     20  C   UNL     1      34.063 -41.708 -27.326  0.00  0.00    +0.024 C 
BRANCH  20  21
ATOM     21  C   UNL     1      34.655 -41.330 -28.667  0.00  0.00    -0.033 A 
ATOM     22  C   UNL     1      36.025 -41.047 -28.785  0.00  0.00    -0.057 A 
ATOM     23  C   UNL     1      36.570 -40.683 -30.017  0.00  0.00    -0.061 A 
ATOM     24  C   UNL     1      35.754 -40.594 -31.142  0.00  0.00    -0.062 A 
ATOM     25  C   UNL     1      34.391 -40.869 -31.038  0.00  0.00    -0.061 A 
ATOM     26  C   UNL     1      33.844 -41.233 -29.807  0.00  0.00    -0.057 A 
ENDBRANCH  20  21
ENDBRANCH  18  20
ENDBRANCH  16  18
ENDBRANCH  15  16
ENDBRANCH   1  15
TORSDOF 7
ENDMDL
MODEL 9
REMARK VINA RESULT:    -6.568      3.413      5.149
REMARK INTER + INTRA:         -10.282
REMARK INTER:                  -7.627
REMARK INTRA:                  -2.655
REMARK UNBOUND:                -1.027
REMARK  Name = cpd252.pdb
REMARK  8 active torsions:
REMARK  status: ('A' for Active; 'I' for Inactive)
REMARK    1  A    between atoms: C_1  and  N_2
REMARK    2  A    between atoms: N_2  and  C_3
REMARK    3  A    between atoms: N_2  and  C_18
REMARK    4  A    between atoms: C_3  and  C_4
REMARK    5  A    between atoms: C_4  and  N_5
REMARK    6  A    between atoms: N_5  and  C_6
REMARK    7  A    between atoms: C_9  and  C_10
REMARK    8  A    between atoms: C_18  and  C_19
REMARK                            x       y       z     vdW  Elec       q    Type
REMARK                         _______ _______ _______ _____ _____    ______ ____
ROOT
ATOM      1  N   UNL     1      34.673 -33.079 -31.759  0.00  0.00    -0.326 N 
ATOM      2  H   UNL     1      34.803 -32.716 -32.665  0.00  0.00    +0.000 HD
ENDROOT
BRANCH   1   3
ATOM      3  C   UNL     1      35.020 -34.390 -31.388  0.00  0.00    +0.141 A 
ATOM      4  C   UNL     1      36.010 -34.646 -30.457  0.00  0.00    -0.018 A 
ATOM      5  C   UNL     1      36.308 -35.965 -30.116  0.00  0.00    -0.031 A 
ATOM      6  C   UNL     1      35.605 -37.002 -30.716  0.00  0.00    +0.093 A 
ATOM      7  N   UNL     1      34.658 -36.717 -31.638  0.00  0.00    -0.147 NA
ATOM      8  N   UNL     1      34.372 -35.409 -31.979  0.00  0.00    -0.134 NA
BRANCH   6   9
ATOM      9  C   UNL     1      35.833 -38.431 -30.423  0.00  0.00    +0.002 A 
ATOM     10  C   UNL     1      35.353 -39.454 -31.263  0.00  0.00    -0.053 A 
ATOM     11  C   UNL     1      35.576 -40.805 -30.968  0.00  0.00    -0.061 A 
ATOM     12  C   UNL     1      36.286 -41.163 -29.828  0.00  0.00    -0.062 A 
ATOM     13  C   UNL     1      36.778 -40.173 -28.983  0.00  0.00    -0.061 A 
ATOM     14  C   UNL     1      36.554 -38.825 -29.280  0.00  0.00    -0.053 A 
ENDBRANCH   6   9
ENDBRANCH   1   3
BRANCH   1  15
ATOM     15  C   UNL     1      34.093 -32.309 -30.642  0.00  0.00    +0.023 C 
BRANCH  15  16
ATOM     16  C   UNL     1      32.554 -32.408 -30.595  0.00  0.00    +0.014 C 
BRANCH  16  18
ATOM     17  C   UNL     1      30.949 -32.387 -28.762  0.00  0.00    -0.012 C 
ATOM     18  N   UNL     1      32.021 -33.141 -29.422  0.00  0.00    -0.300 N 
ATOM     19  H   UNL     1      32.772 -33.257 -28.741  0.00  0.00    +0.000 HD
BRANCH  18  20
ATOM     20  C   UNL     1      31.538 -34.468 -29.854  0.00  0.00    +0.024 C 
BRANCH  20  21
ATOM     21  C   UNL     1      32.201 -35.622 -29.132  0.00  0.00    -0.033 A 
ATOM     22  C   UNL     1      31.857 -36.947 -29.442  0.00  0.00    -0.057 A 
ATOM     23  C   UNL     1      32.455 -38.012 -28.767  0.00  0.00    -0.061 A 
ATOM     24  C   UNL     1      33.399 -37.765 -27.773  0.00  0.00    -0.062 A 
ATOM     25  C   UNL     1      33.747 -36.454 -27.452  0.00  0.00    -0.061 A 
ATOM     26  C   UNL     1      33.150 -35.387 -28.127  0.00  0.00    -0.057 A 
ENDBRANCH  20  21
ENDBRANCH  18  20
ENDBRANCH  16  18
ENDBRANCH  15  16
ENDBRANCH   1  15
TORSDOF 7
ENDMDL
MODEL 10
REMARK VINA RESULT:    -6.464      1.466      2.103
REMARK INTER + INTRA:         -10.136
REMARK INTER:                  -9.206
REMARK INTRA:                  -0.930
REMARK UNBOUND:                -1.027
REMARK  Name = cpd252.pdb
REMARK  8 active torsions:
REMARK  status: ('A' for Active; 'I' for Inactive)
REMARK    1  A    between atoms: C_1  and  N_2
REMARK    2  A    between atoms: N_2  and  C_3
REMARK    3  A    between atoms: N_2  and  C_18
REMARK    4  A    between atoms: C_3  and  C_4
REMARK    5  A    between atoms: C_4  and  N_5
REMARK    6  A    between atoms: N_5  and  C_6
REMARK    7  A    between atoms: C_9  and  C_10
REMARK    8  A    between atoms: C_18  and  C_19
REMARK                            x       y       z     vdW  Elec       q    Type
REMARK                         _______ _______ _______ _____ _____    ______ ____
ROOT
ATOM      1  N   UNL     1      34.538 -37.936 -27.768  0.00  0.00    -0.326 N 
ATOM      2  H   UNL     1      34.462 -38.256 -26.840  0.00  0.00    +0.000 HD
ENDROOT
BRANCH   1   3
ATOM      3  C   UNL     1      35.763 -37.717 -28.419  0.00  0.00    +0.141 A 
ATOM      4  C   UNL     1      36.735 -38.697 -28.493  0.00  0.00    -0.018 A 
ATOM      5  C   UNL     1      37.931 -38.431 -29.161  0.00  0.00    -0.031 A 
ATOM      6  C   UNL     1      38.126 -37.185 -29.744  0.00  0.00    +0.093 A 
ATOM      7  N   UNL     1      37.163 -36.243 -29.635  0.00  0.00    -0.147 NA
ATOM      8  N   UNL     1      35.984 -36.508 -28.965  0.00  0.00    -0.134 NA
BRANCH   6   9
ATOM      9  C   UNL     1      39.346 -36.802 -30.481  0.00  0.00    +0.002 A 
ATOM     10  C   UNL     1      40.621 -37.273 -30.115  0.00  0.00    -0.053 A 
ATOM     11  C   UNL     1      41.769 -36.897 -30.823  0.00  0.00    -0.061 A 
ATOM     12  C   UNL     1      41.668 -36.043 -31.916  0.00  0.00    -0.062 A 
ATOM     13  C   UNL     1      40.419 -35.568 -32.306  0.00  0.00    -0.061 A 
ATOM     14  C   UNL     1      39.274 -35.946 -31.596  0.00  0.00    -0.053 A 
ENDBRANCH   6   9
ENDBRANCH   1   3
BRANCH   1  15
ATOM     15  C   UNL     1      33.377 -37.635 -28.628  0.00  0.00    +0.023 C 
BRANCH  15  16
ATOM     16  C   UNL     1      33.536 -38.206 -30.053  0.00  0.00    +0.014 C 
BRANCH  16  18
ATOM     17  C   UNL     1      33.231 -37.770 -32.431  0.00  0.00    -0.012 C 
ATOM     18  N   UNL     1      33.558 -37.184 -31.126  0.00  0.00    -0.300 N 
ATOM     19  H   UNL     1      34.501 -36.801 -31.194  0.00  0.00    +0.000 HD
BRANCH  18  20
ATOM     20  C   UNL     1      32.610 -36.102 -30.786  0.00  0.00    +0.024 C 
BRANCH  20  21
ATOM     21  C   UNL     1      33.263 -34.743 -30.645  0.00  0.00    -0.033 A 
ATOM     22  C   UNL     1      33.957 -34.172 -31.723  0.00  0.00    -0.057 A 
ATOM     23  C   UNL     1      34.573 -32.927 -31.590  0.00  0.00    -0.061 A 
ATOM     24  C   UNL     1      34.505 -32.241 -30.380  0.00  0.00    -0.062 A 
ATOM     25  C   UNL     1      33.822 -32.798 -29.300  0.00  0.00    -0.061 A 
ATOM     26  C   UNL     1      33.206 -34.044 -29.430  0.00  0.00    -0.057 A 
ENDBRANCH  20  21
ENDBRANCH  18  20
ENDBRANCH  16  18
ENDBRANCH  15  16
ENDBRANCH   1  15
TORSDOF 7
ENDMDL
MODEL 11
REMARK VINA RESULT:    -6.433      2.660      4.969
REMARK INTER + INTRA:         -10.092
REMARK INTER:                  -9.054
REMARK INTRA:                  -1.038
REMARK UNBOUND:                -1.027
REMARK  Name = cpd252.pdb
REMARK  8 active torsions:
REMARK  status: ('A' for Active; 'I' for Inactive)
REMARK    1  A    between atoms: C_1  and  N_2
REMARK    2  A    between atoms: N_2  and  C_3
REMARK    3  A    between atoms: N_2  and  C_18
REMARK    4  A    between atoms: C_3  and  C_4
REMARK    5  A    between atoms: C_4  and  N_5
REMARK    6  A    between atoms: N_5  and  C_6
REMARK    7  A    between atoms: C_9  and  C_10
REMARK    8  A    between atoms: C_18  and  C_19
REMARK                            x       y       z     vdW  Elec       q    Type
REMARK                         _______ _______ _______ _____ _____    ______ ____
ROOT
ATOM      1  N   UNL     1      34.791 -37.046 -28.244  0.00  0.00    -0.326 N 
ATOM      2  H   UNL     1      34.586 -37.153 -27.288  0.00  0.00    +0.000 HD
ENDROOT
BRANCH   1   3
ATOM      3  C   UNL     1      36.096 -37.032 -28.765  0.00  0.00    +0.141 A 
ATOM      4  C   UNL     1      37.117 -37.768 -28.192  0.00  0.00    -0.018 A 
ATOM      5  C   UNL     1      38.393 -37.727 -28.755  0.00  0.00    -0.031 A 
ATOM      6  C   UNL     1      38.618 -36.949 -29.884  0.00  0.00    +0.093 A 
ATOM      7  N   UNL     1      37.602 -36.227 -30.405  0.00  0.00    -0.147 NA
ATOM      8  N   UNL     1      36.342 -36.263 -29.840  0.00  0.00    -0.134 NA
BRANCH   6   9
ATOM      9  C   UNL     1      39.924 -36.842 -30.563  0.00  0.00    +0.002 A 
ATOM     10  C   UNL     1      41.021 -37.652 -30.212  0.00  0.00    -0.053 A 
ATOM     11  C   UNL     1      42.253 -37.535 -30.865  0.00  0.00    -0.061 A 
ATOM     12  C   UNL     1      42.417 -36.607 -31.888  0.00  0.00    -0.062 A 
ATOM     13  C   UNL     1      41.348 -35.798 -32.262  0.00  0.00    -0.061 A 
ATOM     14  C   UNL     1      40.118 -35.917 -31.607  0.00  0.00    -0.053 A 
ENDBRANCH   6   9
ENDBRANCH   1   3
BRANCH   1  15
ATOM     15  C   UNL     1      33.762 -36.882 -29.290  0.00  0.00    +0.023 C 
BRANCH  15  16
ATOM     16  C   UNL     1      32.607 -37.896 -29.144  0.00  0.00    +0.014 C 
BRANCH  16  18
ATOM     17  C   UNL     1      31.827 -38.230 -31.428  0.00  0.00    -0.012 C 
ATOM     18  N   UNL     1      32.482 -38.850 -30.270  0.00  0.00    -0.300 N 
ATOM     19  H   UNL     1      31.896 -39.631 -29.974  0.00  0.00    +0.000 HD
BRANCH  18  20
ATOM     20  C   UNL     1      33.823 -39.351 -30.635  0.00  0.00    +0.024 C 
BRANCH  20  21
ATOM     21  C   UNL     1      34.286 -40.520 -29.792  0.00  0.00    -0.033 A 
ATOM     22  C   UNL     1      35.607 -40.579 -29.321  0.00  0.00    -0.057 A 
ATOM     23  C   UNL     1      36.040 -41.663 -28.556  0.00  0.00    -0.061 A 
ATOM     24  C   UNL     1      35.161 -42.701 -28.257  0.00  0.00    -0.062 A 
ATOM     25  C   UNL     1      33.847 -42.657 -28.722  0.00  0.00    -0.061 A 
ATOM     26  C   UNL     1      33.412 -41.574 -29.487  0.00  0.00    -0.057 A 
ENDBRANCH  20  21
ENDBRANCH  18  20
ENDBRANCH  16  18
ENDBRANCH  15  16
ENDBRANCH   1  15
TORSDOF 7
ENDMDL
MODEL 12
REMARK VINA RESULT:    -6.416     33.167     35.105
REMARK INTER + INTRA:         -10.069
REMARK INTER:                  -9.487
REMARK INTRA:                  -0.582
REMARK UNBOUND:                -1.027
REMARK  Name = cpd252.pdb
REMARK  8 active torsions:
REMARK  status: ('A' for Active; 'I' for Inactive)
REMARK    1  A    between atoms: C_1  and  N_2
REMARK    2  A    between atoms: N_2  and  C_3
REMARK    3  A    between atoms: N_2  and  C_18
REMARK    4  A    between atoms: C_3  and  C_4
REMARK    5  A    between atoms: C_4  and  N_5
REMARK    6  A    between atoms: N_5  and  C_6
REMARK    7  A    between atoms: C_9  and  C_10
REMARK    8  A    between atoms: C_18  and  C_19
REMARK                            x       y       z     vdW  Elec       q    Type
REMARK                         _______ _______ _______ _____ _____    ______ ____
ROOT
ATOM      1  N   UNL     1      63.083 -19.541  -9.695  0.00  0.00    -0.326 N 
ATOM      2  H   UNL     1      63.645 -18.807  -9.357  0.00  0.00    +0.000 HD
ENDROOT
BRANCH   1   3
ATOM      3  C   UNL     1      63.191 -20.871  -9.255  0.00  0.00    +0.141 A 
ATOM      4  C   UNL     1      63.209 -21.933 -10.141  0.00  0.00    -0.018 A 
ATOM      5  C   UNL     1      63.328 -23.235  -9.653  0.00  0.00    -0.031 A 
ATOM      6  C   UNL     1      63.429 -23.444  -8.283  0.00  0.00    +0.093 A 
ATOM      7  N   UNL     1      63.387 -22.385  -7.445  0.00  0.00    -0.147 NA
ATOM      8  N   UNL     1      63.260 -21.099  -7.932  0.00  0.00    -0.134 NA
BRANCH   6   9
ATOM      9  C   UNL     1      63.567 -24.776  -7.661  0.00  0.00    +0.002 A 
ATOM     10  C   UNL     1      64.824 -25.334  -7.359  0.00  0.00    -0.053 A 
ATOM     11  C   UNL     1      64.938 -26.600  -6.772  0.00  0.00    -0.061 A 
ATOM     12  C   UNL     1      63.797 -27.336  -6.470  0.00  0.00    -0.062 A 
ATOM     13  C   UNL     1      62.541 -26.806  -6.750  0.00  0.00    -0.061 A 
ATOM     14  C   UNL     1      62.431 -25.540  -7.337  0.00  0.00    -0.053 A 
ENDBRANCH   6   9
ENDBRANCH   1   3
BRANCH   1  15
ATOM     15  C   UNL     1      62.035 -19.367 -10.720  0.00  0.00    +0.023 C 
BRANCH  15  16
ATOM     16  C   UNL     1      61.131 -18.148 -10.436  0.00  0.00    +0.014 C 
BRANCH  16  18
ATOM     17  C   UNL     1      58.945 -17.931  -9.383  0.00  0.00    -0.012 C 
ATOM     18  N   UNL     1      59.680 -18.419 -10.556  0.00  0.00    -0.300 N 
ATOM     19  H   UNL     1      59.538 -19.428 -10.603  0.00  0.00    +0.000 HD
BRANCH  18  20
ATOM     20  C   UNL     1      59.168 -17.792 -11.792  0.00  0.00    +0.024 C 
BRANCH  20  21
ATOM     21  C   UNL     1      58.024 -18.551 -12.432  0.00  0.00    -0.033 A 
ATOM     22  C   UNL     1      57.944 -19.947 -12.315  0.00  0.00    -0.057 A 
ATOM     23  C   UNL     1      56.900 -20.650 -12.917  0.00  0.00    -0.061 A 
ATOM     24  C   UNL     1      55.927 -19.968 -13.643  0.00  0.00    -0.062 A 
ATOM     25  C   UNL     1      55.997 -18.581 -13.770  0.00  0.00    -0.061 A 
ATOM     26  C   UNL     1      57.041 -17.876 -13.169  0.00  0.00    -0.057 A 
ENDBRANCH  20  21
ENDBRANCH  18  20
ENDBRANCH  16  18
ENDBRANCH  15  16
ENDBRANCH   1  15
TORSDOF 7
ENDMDL
MODEL 13
REMARK VINA RESULT:    -6.369     25.452     29.824
REMARK INTER + INTRA:         -10.002
REMARK INTER:                  -7.792
REMARK INTRA:                  -2.210
REMARK UNBOUND:                -1.027
REMARK  Name = cpd252.pdb
REMARK  8 active torsions:
REMARK  status: ('A' for Active; 'I' for Inactive)
REMARK    1  A    between atoms: C_1  and  N_2
REMARK    2  A    between atoms: N_2  and  C_3
REMARK    3  A    between atoms: N_2  and  C_18
REMARK    4  A    between atoms: C_3  and  C_4
REMARK    5  A    between atoms: C_4  and  N_5
REMARK    6  A    between atoms: N_5  and  C_6
REMARK    7  A    between atoms: C_9  and  C_10
REMARK    8  A    between atoms: C_18  and  C_19
REMARK                            x       y       z     vdW  Elec       q    Type
REMARK                         _______ _______ _______ _____ _____    ______ ____
ROOT
ATOM      1  N   UNL     1      57.037 -38.117 -52.873  0.00  0.00    -0.326 N 
ATOM      2  H   UNL     1      56.409 -38.605 -53.453  0.00  0.00    +0.000 HD
ENDROOT
BRANCH   1   3
ATOM      3  C   UNL     1      56.652 -37.441 -51.703  0.00  0.00    +0.141 A 
ATOM      4  C   UNL     1      55.329 -37.144 -51.434  0.00  0.00    -0.018 A 
ATOM      5  C   UNL     1      54.999 -36.481 -50.251  0.00  0.00    -0.031 A 
ATOM      6  C   UNL     1      56.006 -36.130 -49.361  0.00  0.00    +0.093 A 
ATOM      7  N   UNL     1      57.291 -36.418 -49.665  0.00  0.00    -0.147 NA
ATOM      8  N   UNL     1      57.614 -37.067 -50.841  0.00  0.00    -0.134 NA
BRANCH   6   9
ATOM      9  C   UNL     1      55.769 -35.437 -48.080  0.00  0.00    +0.002 A 
ATOM     10  C   UNL     1      54.909 -35.957 -47.093  0.00  0.00    -0.053 A 
ATOM     11  C   UNL     1      54.693 -35.285 -45.885  0.00  0.00    -0.061 A 
ATOM     12  C   UNL     1      55.333 -34.076 -45.633  0.00  0.00    -0.062 A 
ATOM     13  C   UNL     1      56.194 -33.541 -46.586  0.00  0.00    -0.061 A 
ATOM     14  C   UNL     1      56.409 -34.216 -47.793  0.00  0.00    -0.053 A 
ENDBRANCH   6   9
ENDBRANCH   1   3
BRANCH   1  15
ATOM     15  C   UNL     1      58.486 -38.013 -53.136  0.00  0.00    +0.023 C 
BRANCH  15  16
ATOM     16  C   UNL     1      58.806 -37.048 -54.298  0.00  0.00    +0.014 C 
BRANCH  16  18
ATOM     17  C   UNL     1      60.419 -35.224 -54.210  0.00  0.00    -0.012 C 
ATOM     18  N   UNL     1      59.052 -35.648 -53.882  0.00  0.00    -0.300 N 
ATOM     19  H   UNL     1      58.952 -35.585 -52.869  0.00  0.00    +0.000 HD
BRANCH  18  20
ATOM     20  C   UNL     1      58.062 -34.765 -54.533  0.00  0.00    +0.024 C 
BRANCH  20  21
ATOM     21  C   UNL     1      56.994 -34.250 -53.590  0.00  0.00    -0.033 A 
ATOM     22  C   UNL     1      55.640 -34.303 -53.953  0.00  0.00    -0.057 A 
ATOM     23  C   UNL     1      54.656 -33.814 -53.092  0.00  0.00    -0.061 A 
ATOM     24  C   UNL     1      55.014 -33.265 -51.863  0.00  0.00    -0.062 A 
ATOM     25  C   UNL     1      56.356 -33.204 -51.492  0.00  0.00    -0.061 A 
ATOM     26  C   UNL     1      57.342 -33.692 -52.351  0.00  0.00    -0.057 A 
ENDBRANCH  20  21
ENDBRANCH  18  20
ENDBRANCH  16  18
ENDBRANCH  15  16
ENDBRANCH   1  15
TORSDOF 7
ENDMDL
MODEL 14
REMARK VINA RESULT:    -6.312      3.447      5.938
REMARK INTER + INTRA:          -9.921
REMARK INTER:                  -7.734
REMARK INTRA:                  -2.187
REMARK UNBOUND:                -1.027
REMARK  Name = cpd252.pdb
REMARK  8 active torsions:
REMARK  status: ('A' for Active; 'I' for Inactive)
REMARK    1  A    between atoms: C_1  and  N_2
REMARK    2  A    between atoms: N_2  and  C_3
REMARK    3  A    between atoms: N_2  and  C_18
REMARK    4  A    between atoms: C_3  and  C_4
REMARK    5  A    between atoms: C_4  and  N_5
REMARK    6  A    between atoms: N_5  and  C_6
REMARK    7  A    between atoms: C_9  and  C_10
REMARK    8  A    between atoms: C_18  and  C_19
REMARK                            x       y       z     vdW  Elec       q    Type
REMARK                         _______ _______ _______ _____ _____    ______ ____
ROOT
ATOM      1  N   UNL     1      32.533 -39.232 -26.893  0.00  0.00    -0.326 N 
ATOM      2  H   UNL     1      32.453 -39.354 -25.920  0.00  0.00    +0.000 HD
ENDROOT
BRANCH   1   3
ATOM      3  C   UNL     1      33.657 -38.666 -27.519  0.00  0.00    +0.141 A 
ATOM      4  C   UNL     1      34.844 -38.464 -26.840  0.00  0.00    -0.018 A 
ATOM      5  C   UNL     1      35.934 -37.907 -27.510  0.00  0.00    -0.031 A 
ATOM      6  C   UNL     1      35.810 -37.567 -28.851  0.00  0.00    +0.093 A 
ATOM      7  N   UNL     1      34.628 -37.758 -29.478  0.00  0.00    -0.147 NA
ATOM      8  N   UNL     1      33.549 -38.301 -28.808  0.00  0.00    -0.134 NA
BRANCH   6   9
ATOM      9  C   UNL     1      36.899 -36.982 -29.657  0.00  0.00    +0.002 A 
ATOM     10  C   UNL     1      38.204 -37.510 -29.650  0.00  0.00    -0.053 A 
ATOM     11  C   UNL     1      39.227 -36.942 -30.418  0.00  0.00    -0.061 A 
ATOM     12  C   UNL     1      38.968 -35.832 -31.215  0.00  0.00    -0.062 A 
ATOM     13  C   UNL     1      37.685 -35.292 -31.249  0.00  0.00    -0.061 A 
ATOM     14  C   UNL     1      36.666 -35.863 -30.480  0.00  0.00    -0.053 A 
ENDBRANCH   6   9
ENDBRANCH   1   3
BRANCH   1  15
ATOM     15  C   UNL     1      31.486 -39.624 -27.857  0.00  0.00    +0.023 C 
BRANCH  15  16
ATOM     16  C   UNL     1      31.143 -41.127 -27.775  0.00  0.00    +0.014 C 
BRANCH  16  18
ATOM     17  C   UNL     1      31.648 -42.800 -26.077  0.00  0.00    -0.012 C 
ATOM     18  N   UNL     1      32.195 -41.963 -27.151  0.00  0.00    -0.300 N 
ATOM     19  H   UNL     1      32.894 -41.350 -26.730  0.00  0.00    +0.000 HD
BRANCH  18  20
ATOM     20  C   UNL     1      32.834 -42.798 -28.190  0.00  0.00    +0.024 C 
BRANCH  20  21
ATOM     21  C   UNL     1      34.075 -42.175 -28.793  0.00  0.00    -0.033 A 
ATOM     22  C   UNL     1      35.260 -42.086 -28.047  0.00  0.00    -0.057 A 
ATOM     23  C   UNL     1      36.401 -41.498 -28.596  0.00  0.00    -0.061 A 
ATOM     24  C   UNL     1      36.370 -40.990 -29.892  0.00  0.00    -0.062 A 
ATOM     25  C   UNL     1      35.197 -41.069 -30.643  0.00  0.00    -0.061 A 
ATOM     26  C   UNL     1      34.055 -41.657 -30.096  0.00  0.00    -0.057 A 
ENDBRANCH  20  21
ENDBRANCH  18  20
ENDBRANCH  16  18
ENDBRANCH  15  16
ENDBRANCH   1  15
TORSDOF 7
ENDMDL
MODEL 15
REMARK VINA RESULT:    -6.311     19.868     21.664
REMARK INTER + INTRA:          -9.920
REMARK INTER:                  -7.506
REMARK INTRA:                  -2.414
REMARK UNBOUND:                -1.027
REMARK  Name = cpd252.pdb
REMARK  8 active torsions:
REMARK  status: ('A' for Active; 'I' for Inactive)
REMARK    1  A    between atoms: C_1  and  N_2
REMARK    2  A    between atoms: N_2  and  C_3
REMARK    3  A    between atoms: N_2  and  C_18
REMARK    4  A    between atoms: C_3  and  C_4
REMARK    5  A    between atoms: C_4  and  N_5
REMARK    6  A    between atoms: N_5  and  C_6
REMARK    7  A    between atoms: C_9  and  C_10
REMARK    8  A    between atoms: C_18  and  C_19
REMARK                            x       y       z     vdW  Elec       q    Type
REMARK                         _______ _______ _______ _____ _____    ______ ____
ROOT
ATOM      1  N   UNL     1      45.803 -19.146 -34.851  0.00  0.00    -0.326 N 
ATOM      2  H   UNL     1      45.651 -19.654 -34.022  0.00  0.00    +0.000 HD
ENDROOT
BRANCH   1   3
ATOM      3  C   UNL     1      45.685 -19.700 -36.137  0.00  0.00    +0.141 A 
ATOM      4  C   UNL     1      44.454 -19.887 -36.740  0.00  0.00    -0.018 A 
ATOM      5  C   UNL     1      44.393 -20.432 -38.023  0.00  0.00    -0.031 A 
ATOM      6  C   UNL     1      45.569 -20.776 -38.676  0.00  0.00    +0.093 A 
ATOM      7  N   UNL     1      46.753 -20.600 -38.050  0.00  0.00    -0.147 NA
ATOM      8  N   UNL     1      46.809 -20.068 -36.776  0.00  0.00    -0.134 NA
BRANCH   6   9
ATOM      9  C   UNL     1      45.619 -21.349 -40.036  0.00  0.00    +0.002 A 
ATOM     10  C   UNL     1      44.655 -21.042 -41.015  0.00  0.00    -0.053 A 
ATOM     11  C   UNL     1      44.715 -21.597 -42.299  0.00  0.00    -0.061 A 
ATOM     12  C   UNL     1      45.744 -22.470 -42.634  0.00  0.00    -0.062 A 
ATOM     13  C   UNL     1      46.715 -22.787 -41.690  0.00  0.00    -0.061 A 
ATOM     14  C   UNL     1      46.652 -22.231 -40.408  0.00  0.00    -0.053 A 
ENDBRANCH   6   9
ENDBRANCH   1   3
BRANCH   1  15
ATOM     15  C   UNL     1      46.180 -17.719 -34.882  0.00  0.00    +0.023 C 
BRANCH  15  16
ATOM     16  C   UNL     1      44.952 -16.788 -34.965  0.00  0.00    +0.014 C 
BRANCH  16  18
ATOM     17  C   UNL     1      44.573 -14.585 -35.936  0.00  0.00    -0.012 C 
ATOM     18  N   UNL     1      44.867 -15.996 -36.215  0.00  0.00    -0.300 N 
ATOM     19  H   UNL     1      44.098 -16.358 -36.780  0.00  0.00    +0.000 HD
BRANCH  18  20
ATOM     20  C   UNL     1      46.134 -16.128 -36.963  0.00  0.00    +0.024 C 
BRANCH  20  21
ATOM     21  C   UNL     1      45.964 -16.712 -38.350  0.00  0.00    -0.033 A 
ATOM     22  C   UNL     1      47.073 -17.201 -39.056  0.00  0.00    -0.057 A 
ATOM     23  C   UNL     1      46.922 -17.725 -40.341  0.00  0.00    -0.061 A 
ATOM     24  C   UNL     1      45.662 -17.764 -40.934  0.00  0.00    -0.062 A 
ATOM     25  C   UNL     1      44.552 -17.278 -40.244  0.00  0.00    -0.061 A 
ATOM     26  C   UNL     1      44.702 -16.753 -38.959  0.00  0.00    -0.057 A 
ENDBRANCH  20  21
ENDBRANCH  18  20
ENDBRANCH  16  18
ENDBRANCH  15  16
ENDBRANCH   1  15
TORSDOF 7
ENDMDL
MODEL 16
REMARK VINA RESULT:    -6.070      3.461      5.362
REMARK INTER + INTRA:          -9.580
REMARK INTER:                  -8.721
REMARK INTRA:                  -0.859
REMARK UNBOUND:                -1.027
REMARK  Name = cpd252.pdb
REMARK  8 active torsions:
REMARK  status: ('A' for Active; 'I' for Inactive)
REMARK    1  A    between atoms: C_1  and  N_2
REMARK    2  A    between atoms: N_2  and  C_3
REMARK    3  A    between atoms: N_2  and  C_18
REMARK    4  A    between atoms: C_3  and  C_4
REMARK    5  A    between atoms: C_4  and  N_5
REMARK    6  A    between atoms: N_5  and  C_6
REMARK    7  A    between atoms: C_9  and  C_10
REMARK    8  A    between atoms: C_18  and  C_19
REMARK                            x       y       z     vdW  Elec       q    Type
REMARK                         _______ _______ _______ _____ _____    ______ ____
ROOT
ATOM      1  N   UNL     1      34.665 -37.269 -28.406  0.00  0.00    -0.326 N 
ATOM      2  H   UNL     1      34.037 -36.527 -28.248  0.00  0.00    +0.000 HD
ENDROOT
BRANCH   1   3
ATOM      3  C   UNL     1      35.898 -37.119 -29.064  0.00  0.00    +0.141 A 
ATOM      4  C   UNL     1      36.095 -36.150 -30.031  0.00  0.00    -0.018 A 
ATOM      5  C   UNL     1      37.342 -36.038 -30.647  0.00  0.00    -0.031 A 
ATOM      6  C   UNL     1      38.367 -36.900 -30.278  0.00  0.00    +0.093 A 
ATOM      7  N   UNL     1      38.133 -37.849 -29.345  0.00  0.00    -0.147 NA
ATOM      8  N   UNL     1      36.894 -37.963 -28.744  0.00  0.00    -0.134 NA
BRANCH   6   9
ATOM      9  C   UNL     1      39.724 -36.862 -30.858  0.00  0.00    +0.002 A 
ATOM     10  C   UNL     1      40.796 -37.589 -30.304  0.00  0.00    -0.053 A 
ATOM     11  C   UNL     1      42.077 -37.540 -30.865  0.00  0.00    -0.061 A 
ATOM     12  C   UNL     1      42.317 -36.765 -31.995  0.00  0.00    -0.062 A 
ATOM     13  C   UNL     1      41.275 -36.043 -32.569  0.00  0.00    -0.061 A 
ATOM     14  C   UNL     1      39.995 -36.094 -32.006  0.00  0.00    -0.053 A 
ENDBRANCH   6   9
ENDBRANCH   1   3
BRANCH   1  15
ATOM     15  C   UNL     1      34.417 -38.659 -27.976  0.00  0.00    +0.023 C 
BRANCH  15  16
ATOM     16  C   UNL     1      33.664 -39.480 -29.045  0.00  0.00    +0.014 C 
BRANCH  16  18
ATOM     17  C   UNL     1      35.263 -41.231 -28.486  0.00  0.00    -0.012 C 
ATOM     18  N   UNL     1      34.396 -40.674 -29.530  0.00  0.00    -0.300 N 
ATOM     19  H   UNL     1      34.997 -40.396 -30.306  0.00  0.00    +0.000 HD
BRANCH  18  20
ATOM     20  C   UNL     1      33.424 -41.684 -29.997  0.00  0.00    +0.024 C 
BRANCH  20  21
ATOM     21  C   UNL     1      33.420 -41.878 -31.498  0.00  0.00    -0.033 A 
ATOM     22  C   UNL     1      34.391 -41.255 -32.298  0.00  0.00    -0.057 A 
ATOM     23  C   UNL     1      34.380 -41.420 -33.684  0.00  0.00    -0.061 A 
ATOM     24  C   UNL     1      33.399 -42.205 -34.286  0.00  0.00    -0.062 A 
ATOM     25  C   UNL     1      32.427 -42.827 -33.503  0.00  0.00    -0.061 A 
ATOM     26  C   UNL     1      32.436 -42.663 -32.116  0.00  0.00    -0.057 A 
ENDBRANCH  20  21
ENDBRANCH  18  20
ENDBRANCH  16  18
ENDBRANCH  15  16
ENDBRANCH   1  15
TORSDOF 7
ENDMDL
MODEL 17
REMARK VINA RESULT:    -5.953     16.496     18.645
REMARK INTER + INTRA:          -9.415
REMARK INTER:                  -7.909
REMARK INTRA:                  -1.507
REMARK UNBOUND:                -1.027
REMARK  Name = cpd252.pdb
REMARK  8 active torsions:
REMARK  status: ('A' for Active; 'I' for Inactive)
REMARK    1  A    between atoms: C_1  and  N_2
REMARK    2  A    between atoms: N_2  and  C_3
REMARK    3  A    between atoms: N_2  and  C_18
REMARK    4  A    between atoms: C_3  and  C_4
REMARK    5  A    between atoms: C_4  and  N_5
REMARK    6  A    between atoms: N_5  and  C_6
REMARK    7  A    between atoms: C_9  and  C_10
REMARK    8  A    between atoms: C_18  and  C_19
REMARK                            x       y       z     vdW  Elec       q    Type
REMARK                         _______ _______ _______ _____ _____    ______ ____
ROOT
ATOM      1  N   UNL     1      43.432 -19.021 -35.794  0.00  0.00    -0.326 N 
ATOM      2  H   UNL     1      42.912 -18.196 -35.927  0.00  0.00    +0.000 HD
ENDROOT
BRANCH   1   3
ATOM      3  C   UNL     1      44.071 -19.717 -36.834  0.00  0.00    +0.141 A 
ATOM      4  C   UNL     1      43.371 -20.201 -37.925  0.00  0.00    -0.018 A 
ATOM      5  C   UNL     1      44.056 -20.876 -38.936  0.00  0.00    -0.031 A 
ATOM      6  C   UNL     1      45.430 -21.051 -38.832  0.00  0.00    +0.093 A 
ATOM      7  N   UNL     1      46.078 -20.584 -37.742  0.00  0.00    -0.147 NA
ATOM      8  N   UNL     1      45.396 -19.923 -36.739  0.00  0.00    -0.134 NA
BRANCH   6   9
ATOM      9  C   UNL     1      46.251 -21.740 -39.846  0.00  0.00    +0.002 A 
ATOM     10  C   UNL     1      45.740 -22.098 -41.108  0.00  0.00    -0.053 A 
ATOM     11  C   UNL     1      46.532 -22.754 -42.058  0.00  0.00    -0.061 A 
ATOM     12  C   UNL     1      47.856 -23.066 -41.768  0.00  0.00    -0.062 A 
ATOM     13  C   UNL     1      48.391 -22.718 -40.531  0.00  0.00    -0.061 A 
ATOM     14  C   UNL     1      47.597 -22.062 -39.585  0.00  0.00    -0.053 A 
ENDBRANCH   6   9
ENDBRANCH   1   3
BRANCH   1  15
ATOM     15  C   UNL     1      43.626 -19.665 -34.479  0.00  0.00    +0.023 C 
BRANCH  15  16
ATOM     16  C   UNL     1      42.321 -19.728 -33.657  0.00  0.00    +0.014 C 
BRANCH  16  18
ATOM     17  C   UNL     1      41.240 -21.694 -32.706  0.00  0.00    -0.012 C 
ATOM     18  N   UNL     1      41.482 -20.919 -33.928  0.00  0.00    -0.300 N 
ATOM     19  H   UNL     1      41.978 -21.528 -34.579  0.00  0.00    +0.000 HD
BRANCH  18  20
ATOM     20  C   UNL     1      40.205 -20.487 -34.535  0.00  0.00    +0.024 C 
BRANCH  20  21
ATOM     21  C   UNL     1      40.114 -20.760 -36.021  0.00  0.00    -0.033 A 
ATOM     22  C   UNL     1      39.782 -19.731 -36.915  0.00  0.00    -0.057 A 
ATOM     23  C   UNL     1      39.682 -19.984 -38.283  0.00  0.00    -0.061 A 
ATOM     24  C   UNL     1      39.909 -21.268 -38.774  0.00  0.00    -0.062 A 
ATOM     25  C   UNL     1      40.237 -22.301 -37.896  0.00  0.00    -0.061 A 
ATOM     26  C   UNL     1      40.337 -22.050 -36.527  0.00  0.00    -0.057 A 
ENDBRANCH  20  21
ENDBRANCH  18  20
ENDBRANCH  16  18
ENDBRANCH  15  16
ENDBRANCH   1  15
TORSDOF 7
ENDMDL
MODEL 18
REMARK VINA RESULT:    -5.951     18.586     20.347
REMARK INTER + INTRA:          -9.413
REMARK INTER:                  -6.804
REMARK INTRA:                  -2.609
REMARK UNBOUND:                -1.027
REMARK  Name = cpd252.pdb
REMARK  8 active torsions:
REMARK  status: ('A' for Active; 'I' for Inactive)
REMARK    1  A    between atoms: C_1  and  N_2
REMARK    2  A    between atoms: N_2  and  C_3
REMARK    3  A    between atoms: N_2  and  C_18
REMARK    4  A    between atoms: C_3  and  C_4
REMARK    5  A    between atoms: C_4  and  N_5
REMARK    6  A    between atoms: N_5  and  C_6
REMARK    7  A    between atoms: C_9  and  C_10
REMARK    8  A    between atoms: C_18  and  C_19
REMARK                            x       y       z     vdW  Elec       q    Type
REMARK                         _______ _______ _______ _____ _____    ______ ____
ROOT
ATOM      1  N   UNL     1      40.719 -19.562 -37.719  0.00  0.00    -0.326 N 
ATOM      2  H   UNL     1      39.830 -19.880 -37.998  0.00  0.00    +0.000 HD
ENDROOT
BRANCH   1   3
ATOM      3  C   UNL     1      41.897 -19.800 -38.447  0.00  0.00    +0.141 A 
ATOM      4  C   UNL     1      42.563 -18.785 -39.108  0.00  0.00    -0.018 A 
ATOM      5  C   UNL     1      43.735 -19.073 -39.809  0.00  0.00    -0.031 A 
ATOM      6  C   UNL     1      44.215 -20.377 -39.829  0.00  0.00    +0.093 A 
ATOM      7  N   UNL     1      43.527 -21.348 -39.190  0.00  0.00    -0.147 NA
ATOM      8  N   UNL     1      42.363 -21.060 -38.505  0.00  0.00    -0.134 NA
BRANCH   6   9
ATOM      9  C   UNL     1      45.447 -20.790 -40.530  0.00  0.00    +0.002 A 
ATOM     10  C   UNL     1      46.230 -19.881 -41.268  0.00  0.00    -0.053 A 
ATOM     11  C   UNL     1      47.394 -20.290 -41.929  0.00  0.00    -0.061 A 
ATOM     12  C   UNL     1      47.805 -21.617 -41.865  0.00  0.00    -0.062 A 
ATOM     13  C   UNL     1      47.055 -22.536 -41.136  0.00  0.00    -0.061 A 
ATOM     14  C   UNL     1      45.892 -22.124 -40.477  0.00  0.00    -0.053 A 
ENDBRANCH   6   9
ENDBRANCH   1   3
BRANCH   1  15
ATOM     15  C   UNL     1      40.961 -18.780 -36.490  0.00  0.00    +0.023 C 
BRANCH  15  16
ATOM     16  C   UNL     1      41.561 -19.638 -35.356  0.00  0.00    +0.014 C 
BRANCH  16  18
ATOM     17  C   UNL     1      42.935 -19.063 -33.428  0.00  0.00    -0.012 C 
ATOM     18  N   UNL     1      42.895 -19.193 -34.889  0.00  0.00    -0.300 N 
ATOM     19  H   UNL     1      43.087 -18.271 -35.280  0.00  0.00    +0.000 HD
BRANCH  18  20
ATOM     20  C   UNL     1      43.919 -20.150 -35.357  0.00  0.00    +0.024 C 
BRANCH  20  21
ATOM     21  C   UNL     1      45.009 -19.514 -36.194  0.00  0.00    -0.033 A 
ATOM     22  C   UNL     1      44.998 -18.134 -36.447  0.00  0.00    -0.057 A 
ATOM     23  C   UNL     1      45.993 -17.548 -37.231  0.00  0.00    -0.061 A 
ATOM     24  C   UNL     1      47.005 -18.334 -37.775  0.00  0.00    -0.062 A 
ATOM     25  C   UNL     1      47.026 -19.708 -37.535  0.00  0.00    -0.061 A 
ATOM     26  C   UNL     1      46.032 -20.296 -36.750  0.00  0.00    -0.057 A 
ENDBRANCH  20  21
ENDBRANCH  18  20
ENDBRANCH  16  18
ENDBRANCH  15  16
ENDBRANCH   1  15
TORSDOF 7
ENDMDL
MODEL 19
REMARK VINA RESULT:    -5.811     16.083     18.395
REMARK INTER + INTRA:          -9.215
REMARK INTER:                  -6.734
REMARK INTRA:                  -2.482
REMARK UNBOUND:                -1.027
REMARK  Name = cpd252.pdb
REMARK  8 active torsions:
REMARK  status: ('A' for Active; 'I' for Inactive)
REMARK    1  A    between atoms: C_1  and  N_2
REMARK    2  A    between atoms: N_2  and  C_3
REMARK    3  A    between atoms: N_2  and  C_18
REMARK    4  A    between atoms: C_3  and  C_4
REMARK    5  A    between atoms: C_4  and  N_5
REMARK    6  A    between atoms: N_5  and  C_6
REMARK    7  A    between atoms: C_9  and  C_10
REMARK    8  A    between atoms: C_18  and  C_19
REMARK                            x       y       z     vdW  Elec       q    Type
REMARK                         _______ _______ _______ _____ _____    ______ ____
ROOT
ATOM      1  N   UNL     1      42.698 -19.133 -33.398  0.00  0.00    -0.326 N 
ATOM      2  H   UNL     1      43.333 -18.715 -32.772  0.00  0.00    +0.000 HD
ENDROOT
BRANCH   1   3
ATOM      3  C   UNL     1      42.942 -19.280 -34.774  0.00  0.00    +0.141 A 
ATOM      4  C   UNL     1      42.250 -18.546 -35.720  0.00  0.00    -0.018 A 
ATOM      5  C   UNL     1      42.538 -18.723 -37.073  0.00  0.00    -0.031 A 
ATOM      6  C   UNL     1      43.518 -19.633 -37.450  0.00  0.00    +0.093 A 
ATOM      7  N   UNL     1      44.160 -20.349 -36.501  0.00  0.00    -0.147 NA
ATOM      8  N   UNL     1      43.865 -20.177 -35.162  0.00  0.00    -0.134 NA
BRANCH   6   9
ATOM      9  C   UNL     1      43.908 -19.891 -38.850  0.00  0.00    +0.002 A 
ATOM     10  C   UNL     1      43.715 -18.939 -39.870  0.00  0.00    -0.053 A 
ATOM     11  C   UNL     1      44.088 -19.201 -41.194  0.00  0.00    -0.061 A 
ATOM     12  C   UNL     1      44.666 -20.421 -41.528  0.00  0.00    -0.062 A 
ATOM     13  C   UNL     1      44.877 -21.378 -40.540  0.00  0.00    -0.061 A 
ATOM     14  C   UNL     1      44.503 -21.113 -39.218  0.00  0.00    -0.053 A 
ENDBRANCH   6   9
ENDBRANCH   1   3
BRANCH   1  15
ATOM     15  C   UNL     1      41.384 -19.674 -32.995  0.00  0.00    +0.023 C 
BRANCH  15  16
ATOM     16  C   UNL     1      41.451 -21.174 -32.636  0.00  0.00    +0.014 C 
BRANCH  16  18
ATOM     17  C   UNL     1      40.384 -23.313 -33.108  0.00  0.00    -0.012 C 
ATOM     18  N   UNL     1      40.929 -22.079 -33.687  0.00  0.00    -0.300 N 
ATOM     19  H   UNL     1      41.700 -22.348 -34.299  0.00  0.00    +0.000 HD
BRANCH  18  20
ATOM     20  C   UNL     1      39.898 -21.371 -34.473  0.00  0.00    +0.024 C 
BRANCH  20  21
ATOM     21  C   UNL     1      40.107 -21.458 -35.970  0.00  0.00    -0.033 A 
ATOM     22  C   UNL     1      41.089 -22.307 -36.503  0.00  0.00    -0.057 A 
ATOM     23  C   UNL     1      41.294 -22.377 -37.881  0.00  0.00    -0.061 A 
ATOM     24  C   UNL     1      40.524 -21.598 -38.742  0.00  0.00    -0.062 A 
ATOM     25  C   UNL     1      39.547 -20.748 -38.225  0.00  0.00    -0.061 A 
ATOM     26  C   UNL     1      39.341 -20.676 -36.847  0.00  0.00    -0.057 A 
ENDBRANCH  20  21
ENDBRANCH  18  20
ENDBRANCH  16  18
ENDBRANCH  15  16
ENDBRANCH   1  15
TORSDOF 7
ENDMDL
MODEL 20
REMARK VINA RESULT:    -5.790     16.911     19.838
REMARK INTER + INTRA:          -9.187
REMARK INTER:                  -6.434
REMARK INTRA:                  -2.752
REMARK UNBOUND:                -1.027
REMARK  Name = cpd252.pdb
REMARK  8 active torsions:
REMARK  status: ('A' for Active; 'I' for Inactive)
REMARK    1  A    between atoms: C_1  and  N_2
REMARK    2  A    between atoms: N_2  and  C_3
REMARK    3  A    between atoms: N_2  and  C_18
REMARK    4  A    between atoms: C_3  and  C_4
REMARK    5  A    between atoms: C_4  and  N_5
REMARK    6  A    between atoms: N_5  and  C_6
REMARK    7  A    between atoms: C_9  and  C_10
REMARK    8  A    between atoms: C_18  and  C_19
REMARK                            x       y       z     vdW  Elec       q    Type
REMARK                         _______ _______ _______ _____ _____    ______ ____
ROOT
ATOM      1  N   UNL     1      46.317 -17.469 -34.455  0.00  0.00    -0.326 N 
ATOM      2  H   UNL     1      47.067 -17.365 -33.826  0.00  0.00    +0.000 HD
ENDROOT
BRANCH   1   3
ATOM      3  C   UNL     1      45.058 -17.976 -34.092  0.00  0.00    +0.141 A 
ATOM      4  C   UNL     1      43.932 -17.174 -34.053  0.00  0.00    -0.018 A 
ATOM      5  C   UNL     1      42.704 -17.730 -33.695  0.00  0.00    -0.031 A 
ATOM      6  C   UNL     1      42.630 -19.082 -33.385  0.00  0.00    +0.093 A 
ATOM      7  N   UNL     1      43.753 -19.832 -33.413  0.00  0.00    -0.147 NA
ATOM      8  N   UNL     1      44.969 -19.275 -33.759  0.00  0.00    -0.134 NA
BRANCH   6   9
ATOM      9  C   UNL     1      41.382 -19.773 -33.004  0.00  0.00    +0.002 A 
ATOM     10  C   UNL     1      40.143 -19.106 -32.948  0.00  0.00    -0.053 A 
ATOM     11  C   UNL     1      38.969 -19.776 -32.582  0.00  0.00    -0.061 A 
ATOM     12  C   UNL     1      39.007 -21.129 -32.265  0.00  0.00    -0.062 A 
ATOM     13  C   UNL     1      40.217 -21.816 -32.318  0.00  0.00    -0.061 A 
ATOM     14  C   UNL     1      41.387 -21.144 -32.685  0.00  0.00    -0.053 A 
ENDBRANCH   6   9
ENDBRANCH   1   3
BRANCH   1  15
ATOM     15  C   UNL     1      46.391 -17.108 -35.885  0.00  0.00    +0.023 C 
BRANCH  15  16
ATOM     16  C   UNL     1      46.674 -18.329 -36.786  0.00  0.00    +0.014 C 
BRANCH  16  18
ATOM     17  C   UNL     1      46.025 -18.738 -39.099  0.00  0.00    -0.012 C 
ATOM     18  N   UNL     1      45.567 -18.682 -37.706  0.00  0.00    -0.300 N 
ATOM     19  H   UNL     1      44.852 -17.957 -37.652  0.00  0.00    +0.000 HD
BRANCH  18  20
ATOM     20  C   UNL     1      44.986 -19.977 -37.294  0.00  0.00    +0.024 C 
BRANCH  20  21
ATOM     21  C   UNL     1      43.493 -19.924 -37.048  0.00  0.00    -0.033 A 
ATOM     22  C   UNL     1      42.798 -21.074 -36.643  0.00  0.00    -0.057 A 
ATOM     23  C   UNL     1      41.420 -21.031 -36.430  0.00  0.00    -0.061 A 
ATOM     24  C   UNL     1      40.720 -19.842 -36.623  0.00  0.00    -0.062 A 
ATOM     25  C   UNL     1      41.399 -18.693 -37.029  0.00  0.00    -0.061 A 
ATOM     26  C   UNL     1      42.778 -18.734 -37.242  0.00  0.00    -0.057 A 
ENDBRANCH  20  21
ENDBRANCH  18  20
ENDBRANCH  16  18
ENDBRANCH  15  16
ENDBRANCH   1  15
TORSDOF 7
ENDMDL
