REMARK  Name = cpd173.pdb
REMARK  5 active torsions:
REMARK  status: ('A' for Active; 'I' for Inactive)
REMARK    1  A    between atoms: C_1  and  C_2
REMARK    2  A    between atoms: C_6  and  N_7
REMARK    3  A    between atoms: N_7  and  C_8
REMARK    4  A    between atoms: C_13  and  C_14
REMARK    5  A    between atoms: C_17  and  C_18
REMARK                            x       y       z     vdW  Elec       q    Type
REMARK                         _______ _______ _______ _____ _____    ______ ____
ROOT
ATOM      1  N   UNL A   1      -1.885  -0.053  -0.131  0.00  0.00    -0.314 N 
ATOM      2  H   UNL A   1      -1.859   0.922  -0.265  0.00  0.00    +0.000 HD
ENDROOT
BRANCH   1   8
ATOM      3  C   UNL A   1       3.101   0.287  -0.154  0.00  0.00    -0.039 C 
ATOM      4  C   UNL A   1       1.826  -0.471   0.095  0.00  0.00    -0.046 A 
ATOM      5  C   UNL A   1       1.906  -1.776   0.601  0.00  0.00    -0.058 A 
ATOM      6  C   UNL A   1       0.752  -2.505   0.868  0.00  0.00    -0.060 A 
ATOM      7  C   UNL A   1      -0.499  -1.938   0.629  0.00  0.00    -0.040 A 
ATOM      8  C   UNL A   1      -0.622  -0.644   0.107  0.00  0.00    +0.035 A 
ATOM      9  C   UNL A   1       0.556   0.094  -0.178  0.00  0.00    -0.026 A 
ATOM     10  C   UNL A   1       0.432   1.504  -0.710  0.00  0.00    -0.038 C 
ENDBRANCH   1   8
BRANCH   1  11
ATOM     11  C   UNL A   1      -3.182  -0.622  -0.210  0.00  0.00    +0.046 A 
ATOM     12  C   UNL A   1      -3.382  -1.851  -0.864  0.00  0.00    -0.040 A 
ATOM     13  C   UNL A   1      -4.652  -2.419  -0.973  0.00  0.00    -0.060 A 
ATOM     14  C   UNL A   1      -5.751  -1.758  -0.440  0.00  0.00    -0.061 A 
ATOM     15  C   UNL A   1      -5.578  -0.525   0.187  0.00  0.00    -0.046 A 
ATOM     16  C   UNL A   1      -4.304   0.070   0.306  0.00  0.00    +0.084 A 
BRANCH  16  17
ATOM     17  C   UNL A   1      -4.185   1.426   0.985  0.00  0.00    +0.388 C 
ATOM     18  O   UNL A   1      -3.023   1.954   1.037  0.00  0.00    -0.241 OA
ATOM     19  O   UNL A   1      -5.248   1.946   1.452  0.00  0.00    -0.241 OA
ENDBRANCH  16  17
ENDBRANCH   1  11
TORSDOF 3
