@<TRIPOS>MOLECULE
*****
 18 19 0 0 0
SMALL
GASTEIGER

@<TRIPOS>ATOM
      1 C           1.7321   -0.0000    0.0000 C.3     1  UNL1        0.0307
      2 C           0.8660   -0.5000    0.0000 C.ar    1  UNL1       -0.0245
      3 C           0.8660   -1.5000    0.0000 C.ar    1  UNL1       -0.0045
      4 C           0.0000   -2.0000    0.0000 C.ar    1  UNL1        0.0010
      5 C          -0.8660   -1.5000    0.0000 C.ar    1  UNL1        0.0162
      6 C          -0.8660   -0.5000    0.0000 C.ar    1  UNL1        0.0662
      7 N          -1.7321   -0.0000    0.0000 N.pl3   1  UNL1       -0.2126
      8 C          -2.5981   -0.5000    0.0000 C.ar    1  UNL1        0.0768
      9 C          -2.5981   -1.5000    0.0000 C.ar    1  UNL1        0.0167
     10 C          -3.4641   -2.0000    0.0000 C.ar    1  UNL1        0.0013
     11 C          -4.3301   -1.5000    0.0000 C.ar    1  UNL1        0.0003
     12 C          -4.3301   -0.5000    0.0000 C.ar    1  UNL1        0.0079
     13 C          -3.4641   -0.0000    0.0000 C.ar    1  UNL1        0.0950
     14 C          -3.4641    1.0000    0.0000 C.2     1  UNL1        0.3890
     15 O          -2.5981    1.5000    0.0000 O.co2   1  UNL1       -0.2405
     16 O          -4.3301    1.5000    0.0000 O.co2   1  UNL1       -0.2405
     17 C           0.0000   -0.0000    0.0000 C.ar    1  UNL1       -0.0105
     18 C          -0.0000    1.0000    0.0000 C.3     1  UNL1        0.0321
@<TRIPOS>BOND
     1     1     2    1
     2     2     3   ar
     3     3     4   ar
     4     4     5   ar
     5     5     6   ar
     6     6     7    1
     7     7     8    1
     8     8     9   ar
     9     9    10   ar
    10    10    11   ar
    11    11    12   ar
    12    12    13   ar
    13     8    13   ar
    14    13    14    1
    15    14    15   ar
    16    14    16   ar
    17     6    17   ar
    18     2    17   ar
    19    17    18    1
