MODEL 1
REMARK VINA RESULT:    -8.776      0.000      0.000
REMARK INTER + INTRA:         -10.430
REMARK INTER:                 -10.316
REMARK INTRA:                  -0.114
REMARK UNBOUND:                -0.114
REMARK  Name = cpd173.pdb
REMARK  5 active torsions:
REMARK  status: ('A' for Active; 'I' for Inactive)
REMARK    1  A    between atoms: C_1  and  C_2
REMARK    2  A    between atoms: C_6  and  N_7
REMARK    3  A    between atoms: N_7  and  C_8
REMARK    4  A    between atoms: C_13  and  C_14
REMARK    5  A    between atoms: C_17  and  C_18
REMARK                            x       y       z     vdW  Elec       q    Type
REMARK                         _______ _______ _______ _____ _____    ______ ____
ROOT
ATOM      1  N   UNL A   1      38.703 -36.576 -30.675  0.00  0.00    -0.314 N 
ATOM      2  H   UNL A   1      38.448 -35.984 -31.420  0.00  0.00    +0.000 HD
ENDROOT
BRANCH   1   8
ATOM      3  C   UNL A   1      34.186 -35.397 -28.891  0.00  0.00    -0.039 C 
ATOM      4  C   UNL A   1      35.481 -36.159 -28.820  0.00  0.00    -0.046 A 
ATOM      5  C   UNL A   1      35.671 -37.068 -27.770  0.00  0.00    -0.058 A 
ATOM      6  C   UNL A   1      36.843 -37.811 -27.678  0.00  0.00    -0.060 A 
ATOM      7  C   UNL A   1      37.843 -37.652 -28.637  0.00  0.00    -0.040 A 
ATOM      8  C   UNL A   1      37.700 -36.741 -29.691  0.00  0.00    +0.035 A 
ATOM      9  C   UNL A   1      36.510 -35.973 -29.776  0.00  0.00    -0.026 A 
ATOM     10  C   UNL A   1      36.333 -35.012 -30.930  0.00  0.00    -0.038 C 
ENDBRANCH   1   8
BRANCH   1  11
ATOM     11  C   UNL A   1      40.011 -37.116 -30.775  0.00  0.00    +0.046 A 
ATOM     12  C   UNL A   1      40.506 -37.972 -29.775  0.00  0.00    -0.040 A 
ATOM     13  C   UNL A   1      41.797 -38.497 -29.841  0.00  0.00    -0.060 A 
ATOM     14  C   UNL A   1      42.624 -38.163 -30.906  0.00  0.00    -0.061 A 
ATOM     15  C   UNL A   1      42.162 -37.294 -31.892  0.00  0.00    -0.046 A 
ATOM     16  C   UNL A   1      40.861 -36.748 -31.845  0.00  0.00    +0.084 A 
BRANCH  16  17
ATOM     17  C   UNL A   1      40.424 -35.790 -32.943  0.00  0.00    +0.388 C 
ATOM     18  O   UNL A   1      39.765 -34.755 -32.588  0.00  0.00    -0.241 OA
ATOM     19  O   UNL A   1      40.745 -36.080 -34.139  0.00  0.00    -0.241 OA
ENDBRANCH  16  17
ENDBRANCH   1  11
TORSDOF 3
ENDMDL
MODEL 2
REMARK VINA RESULT:    -8.106      2.629      6.010
REMARK INTER + INTRA:          -9.642
REMARK INTER:                  -8.767
REMARK INTRA:                  -0.875
REMARK UNBOUND:                -0.114
REMARK  Name = cpd173.pdb
REMARK  5 active torsions:
REMARK  status: ('A' for Active; 'I' for Inactive)
REMARK    1  A    between atoms: C_1  and  C_2
REMARK    2  A    between atoms: C_6  and  N_7
REMARK    3  A    between atoms: N_7  and  C_8
REMARK    4  A    between atoms: C_13  and  C_14
REMARK    5  A    between atoms: C_17  and  C_18
REMARK                            x       y       z     vdW  Elec       q    Type
REMARK                         _______ _______ _______ _____ _____    ______ ____
ROOT
ATOM      1  N   UNL A   1      37.180 -36.456 -31.040  0.00  0.00    -0.314 N 
ATOM      2  H   UNL A   1      36.828 -37.010 -31.774  0.00  0.00    +0.000 HD
ENDROOT
BRANCH   1   8
ATOM      3  C   UNL A   1      42.130 -36.360 -31.717  0.00  0.00    -0.039 C 
ATOM      4  C   UNL A   1      40.907 -36.765 -30.942  0.00  0.00    -0.046 A 
ATOM      5  C   UNL A   1      41.073 -37.488 -29.752  0.00  0.00    -0.058 A 
ATOM      6  C   UNL A   1      39.970 -37.863 -28.991  0.00  0.00    -0.060 A 
ATOM      7  C   UNL A   1      38.686 -37.523 -29.413  0.00  0.00    -0.040 A 
ATOM      8  C   UNL A   1      38.477 -36.817 -30.605  0.00  0.00    +0.035 A 
ATOM      9  C   UNL A   1      39.601 -36.446 -31.387  0.00  0.00    -0.026 A 
ATOM     10  C   UNL A   1      39.386 -35.655 -32.658  0.00  0.00    -0.038 C 
ENDBRANCH   1   8
BRANCH   1  11
ATOM     11  C   UNL A   1      36.299 -35.435 -30.601  0.00  0.00    +0.046 A 
ATOM     12  C   UNL A   1      36.381 -34.141 -31.145  0.00  0.00    -0.040 A 
ATOM     13  C   UNL A   1      35.539 -33.115 -30.714  0.00  0.00    -0.060 A 
ATOM     14  C   UNL A   1      34.606 -33.363 -29.716  0.00  0.00    -0.061 A 
ATOM     15  C   UNL A   1      34.527 -34.632 -29.143  0.00  0.00    -0.046 A 
ATOM     16  C   UNL A   1      35.371 -35.683 -29.561  0.00  0.00    +0.084 A 
BRANCH  16  17
ATOM     17  C   UNL A   1      35.248 -37.040 -28.883  0.00  0.00    +0.388 C 
ATOM     18  O   UNL A   1      35.423 -37.079 -27.618  0.00  0.00    -0.241 OA
ATOM     19  O   UNL A   1      34.977 -38.042 -29.617  0.00  0.00    -0.241 OA
ENDBRANCH  16  17
ENDBRANCH   1  11
TORSDOF 3
ENDMDL
MODEL 3
REMARK VINA RESULT:    -7.784      2.704      6.261
REMARK INTER + INTRA:          -9.263
REMARK INTER:                  -8.581
REMARK INTRA:                  -0.682
REMARK UNBOUND:                -0.114
REMARK  Name = cpd173.pdb
REMARK  5 active torsions:
REMARK  status: ('A' for Active; 'I' for Inactive)
REMARK    1  A    between atoms: C_1  and  C_2
REMARK    2  A    between atoms: C_6  and  N_7
REMARK    3  A    between atoms: N_7  and  C_8
REMARK    4  A    between atoms: C_13  and  C_14
REMARK    5  A    between atoms: C_17  and  C_18
REMARK                            x       y       z     vdW  Elec       q    Type
REMARK                         _______ _______ _______ _____ _____    ______ ____
ROOT
ATOM      1  N   UNL A   1      38.048 -37.033 -29.353  0.00  0.00    -0.314 N 
ATOM      2  H   UNL A   1      38.615 -37.270 -28.584  0.00  0.00    +0.000 HD
ENDROOT
BRANCH   1   8
ATOM      3  C   UNL A   1      42.262 -37.194 -32.036  0.00  0.00    -0.039 C 
ATOM      4  C   UNL A   1      40.835 -36.761 -31.834  0.00  0.00    -0.046 A 
ATOM      5  C   UNL A   1      40.207 -36.019 -32.844  0.00  0.00    -0.058 A 
ATOM      6  C   UNL A   1      38.882 -35.618 -32.709  0.00  0.00    -0.060 A 
ATOM      7  C   UNL A   1      38.168 -35.953 -31.560  0.00  0.00    -0.040 A 
ATOM      8  C   UNL A   1      38.764 -36.678 -30.520  0.00  0.00    +0.035 A 
ATOM      9  C   UNL A   1      40.120 -37.075 -30.652  0.00  0.00    -0.026 A 
ATOM     10  C   UNL A   1      40.761 -37.887 -29.549  0.00  0.00    -0.038 C 
ENDBRANCH   1   8
BRANCH   1  11
ATOM     11  C   UNL A   1      36.654 -37.107 -29.099  0.00  0.00    +0.046 A 
ATOM     12  C   UNL A   1      35.872 -35.938 -29.073  0.00  0.00    -0.040 A 
ATOM     13  C   UNL A   1      34.504 -35.985 -28.804  0.00  0.00    -0.060 A 
ATOM     14  C   UNL A   1      33.893 -37.204 -28.541  0.00  0.00    -0.061 A 
ATOM     15  C   UNL A   1      34.656 -38.371 -28.533  0.00  0.00    -0.046 A 
ATOM     16  C   UNL A   1      36.042 -38.348 -28.800  0.00  0.00    +0.084 A 
BRANCH  16  17
ATOM     17  C   UNL A   1      36.822 -39.654 -28.758  0.00  0.00    +0.388 C 
ATOM     18  O   UNL A   1      36.328 -40.650 -29.388  0.00  0.00    -0.241 OA
ATOM     19  O   UNL A   1      37.913 -39.667 -28.105  0.00  0.00    -0.241 OA
ENDBRANCH  16  17
ENDBRANCH   1  11
TORSDOF 3
ENDMDL
MODEL 4
REMARK VINA RESULT:    -7.708      2.680      6.288
REMARK INTER + INTRA:          -9.174
REMARK INTER:                  -8.311
REMARK INTRA:                  -0.863
REMARK UNBOUND:                -0.114
REMARK  Name = cpd173.pdb
REMARK  5 active torsions:
REMARK  status: ('A' for Active; 'I' for Inactive)
REMARK    1  A    between atoms: C_1  and  C_2
REMARK    2  A    between atoms: C_6  and  N_7
REMARK    3  A    between atoms: N_7  and  C_8
REMARK    4  A    between atoms: C_13  and  C_14
REMARK    5  A    between atoms: C_17  and  C_18
REMARK                            x       y       z     vdW  Elec       q    Type
REMARK                         _______ _______ _______ _____ _____    ______ ____
ROOT
ATOM      1  N   UNL A   1      36.786 -35.939 -31.613  0.00  0.00    -0.314 N 
ATOM      2  H   UNL A   1      36.403 -36.595 -32.240  0.00  0.00    +0.000 HD
ENDROOT
BRANCH   1   8
ATOM      3  C   UNL A   1      40.897 -37.906 -29.561  0.00  0.00    -0.039 C 
ATOM      4  C   UNL A   1      40.212 -36.953 -30.502  0.00  0.00    -0.046 A 
ATOM      5  C   UNL A   1      40.999 -36.119 -31.308  0.00  0.00    -0.058 A 
ATOM      6  C   UNL A   1      40.408 -35.239 -32.208  0.00  0.00    -0.060 A 
ATOM      7  C   UNL A   1      39.019 -35.180 -32.312  0.00  0.00    -0.040 A 
ATOM      8  C   UNL A   1      38.196 -35.983 -31.511  0.00  0.00    +0.035 A 
ATOM      9  C   UNL A   1      38.800 -36.870 -30.583  0.00  0.00    -0.026 A 
ATOM     10  C   UNL A   1      37.920 -37.765 -29.740  0.00  0.00    -0.038 C 
ENDBRANCH   1   8
BRANCH   1  11
ATOM     11  C   UNL A   1      35.828 -35.116 -30.968  0.00  0.00    +0.046 A 
ATOM     12  C   UNL A   1      36.018 -33.724 -30.897  0.00  0.00    -0.040 A 
ATOM     13  C   UNL A   1      35.100 -32.896 -30.249  0.00  0.00    -0.060 A 
ATOM     14  C   UNL A   1      33.979 -33.451 -29.644  0.00  0.00    -0.061 A 
ATOM     15  C   UNL A   1      33.788 -34.831 -29.678  0.00  0.00    -0.046 A 
ATOM     16  C   UNL A   1      34.704 -35.687 -30.325  0.00  0.00    +0.084 A 
BRANCH  16  17
ATOM     17  C   UNL A   1      34.447 -37.187 -30.310  0.00  0.00    +0.388 C 
ATOM     18  O   UNL A   1      34.323 -37.747 -29.169  0.00  0.00    -0.241 OA
ATOM     19  O   UNL A   1      34.370 -37.782 -31.432  0.00  0.00    -0.241 OA
ENDBRANCH  16  17
ENDBRANCH   1  11
TORSDOF 3
ENDMDL
MODEL 5
REMARK VINA RESULT:    -7.681      3.092      6.044
REMARK INTER + INTRA:          -9.143
REMARK INTER:                  -8.392
REMARK INTRA:                  -0.751
REMARK UNBOUND:                -0.114
REMARK  Name = cpd173.pdb
REMARK  5 active torsions:
REMARK  status: ('A' for Active; 'I' for Inactive)
REMARK    1  A    between atoms: C_1  and  C_2
REMARK    2  A    between atoms: C_6  and  N_7
REMARK    3  A    between atoms: N_7  and  C_8
REMARK    4  A    between atoms: C_13  and  C_14
REMARK    5  A    between atoms: C_17  and  C_18
REMARK                            x       y       z     vdW  Elec       q    Type
REMARK                         _______ _______ _______ _____ _____    ______ ____
ROOT
ATOM      1  N   UNL A   1      35.462 -35.170 -30.020  0.00  0.00    -0.314 N 
ATOM      2  H   UNL A   1      35.369 -34.371 -29.453  0.00  0.00    +0.000 HD
ENDROOT
BRANCH   1   8
ATOM      3  C   UNL A   1      40.049 -37.058 -30.634  0.00  0.00    -0.039 C 
ATOM      4  C   UNL A   1      38.731 -36.987 -29.913  0.00  0.00    -0.046 A 
ATOM      5  C   UNL A   1      38.531 -37.807 -28.793  0.00  0.00    -0.058 A 
ATOM      6  C   UNL A   1      37.337 -37.757 -28.082  0.00  0.00    -0.060 A 
ATOM      7  C   UNL A   1      36.324 -36.887 -28.484  0.00  0.00    -0.040 A 
ATOM      8  C   UNL A   1      36.477 -36.065 -29.607  0.00  0.00    +0.035 A 
ATOM      9  C   UNL A   1      37.691 -36.126 -30.340  0.00  0.00    -0.026 A 
ATOM     10  C   UNL A   1      37.877 -35.217 -31.534  0.00  0.00    -0.038 C 
ENDBRANCH   1   8
BRANCH   1  11
ATOM     11  C   UNL A   1      34.555 -35.226 -31.110  0.00  0.00    +0.046 A 
ATOM     12  C   UNL A   1      34.240 -36.457 -31.711  0.00  0.00    -0.040 A 
ATOM     13  C   UNL A   1      33.367 -36.534 -32.798  0.00  0.00    -0.060 A 
ATOM     14  C   UNL A   1      32.804 -35.374 -33.313  0.00  0.00    -0.061 A 
ATOM     15  C   UNL A   1      33.126 -34.140 -32.749  0.00  0.00    -0.046 A 
ATOM     16  C   UNL A   1      34.008 -34.038 -31.652  0.00  0.00    +0.084 A 
BRANCH  16  17
ATOM     17  C   UNL A   1      34.334 -32.661 -31.094  0.00  0.00    +0.388 C 
ATOM     18  O   UNL A   1      33.956 -32.409 -29.900  0.00  0.00    -0.241 OA
ATOM     19  O   UNL A   1      34.963 -31.853 -31.850  0.00  0.00    -0.241 OA
ENDBRANCH  16  17
ENDBRANCH   1  11
TORSDOF 3
ENDMDL
MODEL 6
REMARK VINA RESULT:    -7.662      1.595      2.879
REMARK INTER + INTRA:          -9.120
REMARK INTER:                  -8.255
REMARK INTRA:                  -0.864
REMARK UNBOUND:                -0.114
REMARK  Name = cpd173.pdb
REMARK  5 active torsions:
REMARK  status: ('A' for Active; 'I' for Inactive)
REMARK    1  A    between atoms: C_1  and  C_2
REMARK    2  A    between atoms: C_6  and  N_7
REMARK    3  A    between atoms: N_7  and  C_8
REMARK    4  A    between atoms: C_13  and  C_14
REMARK    5  A    between atoms: C_17  and  C_18
REMARK                            x       y       z     vdW  Elec       q    Type
REMARK                         _______ _______ _______ _____ _____    ______ ____
ROOT
ATOM      1  N   UNL A   1      37.078 -36.242 -31.435  0.00  0.00    -0.314 N 
ATOM      2  H   UNL A   1      37.004 -36.562 -32.363  0.00  0.00    +0.000 HD
ENDROOT
BRANCH   1   8
ATOM      3  C   UNL A   1      32.424 -35.767 -29.677  0.00  0.00    -0.039 C 
ATOM      4  C   UNL A   1      33.727 -35.184 -30.152  0.00  0.00    -0.046 A 
ATOM      5  C   UNL A   1      33.883 -33.791 -30.147  0.00  0.00    -0.058 A 
ATOM      6  C   UNL A   1      35.078 -33.210 -30.557  0.00  0.00    -0.060 A 
ATOM      7  C   UNL A   1      36.134 -34.017 -30.980  0.00  0.00    -0.040 A 
ATOM      8  C   UNL A   1      36.012 -35.412 -31.017  0.00  0.00    +0.035 A 
ATOM      9  C   UNL A   1      34.787 -36.003 -30.612  0.00  0.00    -0.026 A 
ATOM     10  C   UNL A   1      34.659 -37.509 -30.618  0.00  0.00    -0.038 C 
ENDBRANCH   1   8
BRANCH   1  11
ATOM     11  C   UNL A   1      38.235 -36.693 -30.749  0.00  0.00    +0.046 A 
ATOM     12  C   UNL A   1      38.113 -37.448 -29.569  0.00  0.00    -0.040 A 
ATOM     13  C   UNL A   1      39.237 -37.884 -28.865  0.00  0.00    -0.060 A 
ATOM     14  C   UNL A   1      40.507 -37.558 -29.323  0.00  0.00    -0.061 A 
ATOM     15  C   UNL A   1      40.648 -36.786 -30.475  0.00  0.00    -0.046 A 
ATOM     16  C   UNL A   1      39.527 -36.332 -31.201  0.00  0.00    +0.084 A 
BRANCH  16  17
ATOM     17  C   UNL A   1      39.748 -35.477 -32.440  0.00  0.00    +0.388 C 
ATOM     18  O   UNL A   1      40.196 -36.064 -33.482  0.00  0.00    -0.241 OA
ATOM     19  O   UNL A   1      39.470 -34.238 -32.358  0.00  0.00    -0.241 OA
ENDBRANCH  16  17
ENDBRANCH   1  11
TORSDOF 3
ENDMDL
MODEL 7
REMARK VINA RESULT:    -7.563      2.383      5.762
REMARK INTER + INTRA:          -9.004
REMARK INTER:                  -8.118
REMARK INTRA:                  -0.885
REMARK UNBOUND:                -0.114
REMARK  Name = cpd173.pdb
REMARK  5 active torsions:
REMARK  status: ('A' for Active; 'I' for Inactive)
REMARK    1  A    between atoms: C_1  and  C_2
REMARK    2  A    between atoms: C_6  and  N_7
REMARK    3  A    between atoms: N_7  and  C_8
REMARK    4  A    between atoms: C_13  and  C_14
REMARK    5  A    between atoms: C_17  and  C_18
REMARK                            x       y       z     vdW  Elec       q    Type
REMARK                         _______ _______ _______ _____ _____    ______ ____
ROOT
ATOM      1  N   UNL A   1      37.966 -36.922 -29.507  0.00  0.00    -0.314 N 
ATOM      2  H   UNL A   1      38.095 -36.338 -28.724  0.00  0.00    +0.000 HD
ENDROOT
BRANCH   1   8
ATOM      3  C   UNL A   1      42.448 -37.376 -31.672  0.00  0.00    -0.039 C 
ATOM      4  C   UNL A   1      41.031 -36.870 -31.652  0.00  0.00    -0.046 A 
ATOM      5  C   UNL A   1      40.563 -36.135 -32.750  0.00  0.00    -0.058 A 
ATOM      6  C   UNL A   1      39.253 -35.668 -32.784  0.00  0.00    -0.060 A 
ATOM      7  C   UNL A   1      38.395 -35.928 -31.716  0.00  0.00    -0.040 A 
ATOM      8  C   UNL A   1      38.829 -36.643 -30.592  0.00  0.00    +0.035 A 
ATOM      9  C   UNL A   1      40.169 -37.107 -30.553  0.00  0.00    -0.026 A 
ATOM     10  C   UNL A   1      40.637 -37.908 -29.359  0.00  0.00    -0.038 C 
ENDBRANCH   1   8
BRANCH   1  11
ATOM     11  C   UNL A   1      36.947 -37.897 -29.351  0.00  0.00    +0.046 A 
ATOM     12  C   UNL A   1      37.267 -39.200 -28.930  0.00  0.00    -0.040 A 
ATOM     13  C   UNL A   1      36.285 -40.181 -28.790  0.00  0.00    -0.060 A 
ATOM     14  C   UNL A   1      34.962 -39.879 -29.085  0.00  0.00    -0.061 A 
ATOM     15  C   UNL A   1      34.628 -38.601 -29.531  0.00  0.00    -0.046 A 
ATOM     16  C   UNL A   1      35.605 -37.594 -29.683  0.00  0.00    +0.084 A 
BRANCH  16  17
ATOM     17  C   UNL A   1      35.179 -36.225 -30.192  0.00  0.00    +0.388 C 
ATOM     18  O   UNL A   1      35.367 -35.228 -29.416  0.00  0.00    -0.241 OA
ATOM     19  O   UNL A   1      34.669 -36.163 -31.356  0.00  0.00    -0.241 OA
ENDBRANCH  16  17
ENDBRANCH   1  11
TORSDOF 3
ENDMDL
MODEL 8
REMARK VINA RESULT:    -7.525      2.411      5.682
REMARK INTER + INTRA:          -8.959
REMARK INTER:                  -8.276
REMARK INTRA:                  -0.683
REMARK UNBOUND:                -0.114
REMARK  Name = cpd173.pdb
REMARK  5 active torsions:
REMARK  status: ('A' for Active; 'I' for Inactive)
REMARK    1  A    between atoms: C_1  and  C_2
REMARK    2  A    between atoms: C_6  and  N_7
REMARK    3  A    between atoms: N_7  and  C_8
REMARK    4  A    between atoms: C_13  and  C_14
REMARK    5  A    between atoms: C_17  and  C_18
REMARK                            x       y       z     vdW  Elec       q    Type
REMARK                         _______ _______ _______ _____ _____    ______ ____
ROOT
ATOM      1  N   UNL A   1      37.018 -37.103 -30.094  0.00  0.00    -0.314 N 
ATOM      2  H   UNL A   1      36.604 -37.248 -30.975  0.00  0.00    +0.000 HD
ENDROOT
BRANCH   1   8
ATOM      3  C   UNL A   1      41.227 -35.118 -31.917  0.00  0.00    -0.039 C 
ATOM      4  C   UNL A   1      40.495 -36.070 -31.011  0.00  0.00    -0.046 A 
ATOM      5  C   UNL A   1      41.240 -36.891 -30.154  0.00  0.00    -0.058 A 
ATOM      6  C   UNL A   1      40.604 -37.770 -29.283  0.00  0.00    -0.060 A 
ATOM      7  C   UNL A   1      39.212 -37.839 -29.260  0.00  0.00    -0.040 A 
ATOM      8  C   UNL A   1      38.431 -37.049 -30.113  0.00  0.00    +0.035 A 
ATOM      9  C   UNL A   1      39.081 -36.163 -31.011  0.00  0.00    -0.026 A 
ATOM     10  C   UNL A   1      38.245 -35.282 -31.912  0.00  0.00    -0.038 C 
ENDBRANCH   1   8
BRANCH   1  11
ATOM     11  C   UNL A   1      36.094 -36.983 -29.024  0.00  0.00    +0.046 A 
ATOM     12  C   UNL A   1      36.189 -37.828 -27.903  0.00  0.00    -0.040 A 
ATOM     13  C   UNL A   1      35.278 -37.743 -26.849  0.00  0.00    -0.060 A 
ATOM     14  C   UNL A   1      34.243 -36.819 -26.905  0.00  0.00    -0.061 A 
ATOM     15  C   UNL A   1      34.114 -35.993 -28.020  0.00  0.00    -0.046 A 
ATOM     16  C   UNL A   1      35.021 -36.062 -29.099  0.00  0.00    +0.084 A 
BRANCH  16  17
ATOM     17  C   UNL A   1      34.815 -35.146 -30.295  0.00  0.00    +0.388 C 
ATOM     18  O   UNL A   1      34.922 -33.889 -30.094  0.00  0.00    -0.241 OA
ATOM     19  O   UNL A   1      34.553 -35.689 -31.415  0.00  0.00    -0.241 OA
ENDBRANCH  16  17
ENDBRANCH   1  11
TORSDOF 3
ENDMDL
MODEL 9
REMARK VINA RESULT:    -7.348      3.017      6.283
REMARK INTER + INTRA:          -8.751
REMARK INTER:                  -7.899
REMARK INTRA:                  -0.852
REMARK UNBOUND:                -0.114
REMARK  Name = cpd173.pdb
REMARK  5 active torsions:
REMARK  status: ('A' for Active; 'I' for Inactive)
REMARK    1  A    between atoms: C_1  and  C_2
REMARK    2  A    between atoms: C_6  and  N_7
REMARK    3  A    between atoms: N_7  and  C_8
REMARK    4  A    between atoms: C_13  and  C_14
REMARK    5  A    between atoms: C_17  and  C_18
REMARK                            x       y       z     vdW  Elec       q    Type
REMARK                         _______ _______ _______ _____ _____    ______ ____
ROOT
ATOM      1  N   UNL A   1      35.817 -36.102 -31.037  0.00  0.00    -0.314 N 
ATOM      2  H   UNL A   1      35.290 -36.931 -31.087  0.00  0.00    +0.000 HD
ENDROOT
BRANCH   1   8
ATOM      3  C   UNL A   1      39.806 -38.013 -28.710  0.00  0.00    -0.039 C 
ATOM      4  C   UNL A   1      39.172 -37.243 -29.836  0.00  0.00    -0.046 A 
ATOM      5  C   UNL A   1      39.992 -36.746 -30.858  0.00  0.00    -0.058 A 
ATOM      6  C   UNL A   1      39.445 -36.049 -31.930  0.00  0.00    -0.060 A 
ATOM      7  C   UNL A   1      38.069 -35.837 -31.992  0.00  0.00    -0.040 A 
ATOM      8  C   UNL A   1      37.217 -36.301 -30.982  0.00  0.00    +0.035 A 
ATOM      9  C   UNL A   1      37.777 -37.001 -29.881  0.00  0.00    -0.026 A 
ATOM     10  C   UNL A   1      36.861 -37.535 -28.804  0.00  0.00    -0.038 C 
ENDBRANCH   1   8
BRANCH   1  11
ATOM     11  C   UNL A   1      35.043 -34.913 -31.031  0.00  0.00    +0.046 A 
ATOM     12  C   UNL A   1      35.243 -33.937 -30.038  0.00  0.00    -0.040 A 
ATOM     13  C   UNL A   1      34.478 -32.771 -30.000  0.00  0.00    -0.060 A 
ATOM     14  C   UNL A   1      33.486 -32.565 -30.950  0.00  0.00    -0.061 A 
ATOM     15  C   UNL A   1      33.253 -33.533 -31.926  0.00  0.00    -0.046 A 
ATOM     16  C   UNL A   1      34.011 -34.722 -31.981  0.00  0.00    +0.084 A 
BRANCH  16  17
ATOM     17  C   UNL A   1      33.695 -35.748 -33.059  0.00  0.00    +0.388 C 
ATOM     18  O   UNL A   1      33.697 -35.343 -34.271  0.00  0.00    -0.241 OA
ATOM     19  O   UNL A   1      33.452 -36.939 -32.685  0.00  0.00    -0.241 OA
ENDBRANCH  16  17
ENDBRANCH   1  11
TORSDOF 3
ENDMDL
MODEL 10
REMARK VINA RESULT:    -7.330      2.926      5.950
REMARK INTER + INTRA:          -8.730
REMARK INTER:                  -7.906
REMARK INTRA:                  -0.825
REMARK UNBOUND:                -0.114
REMARK  Name = cpd173.pdb
REMARK  5 active torsions:
REMARK  status: ('A' for Active; 'I' for Inactive)
REMARK    1  A    between atoms: C_1  and  C_2
REMARK    2  A    between atoms: C_6  and  N_7
REMARK    3  A    between atoms: N_7  and  C_8
REMARK    4  A    between atoms: C_13  and  C_14
REMARK    5  A    between atoms: C_17  and  C_18
REMARK                            x       y       z     vdW  Elec       q    Type
REMARK                         _______ _______ _______ _____ _____    ______ ____
ROOT
ATOM      1  N   UNL A   1      36.939 -37.336 -29.691  0.00  0.00    -0.314 N 
ATOM      2  H   UNL A   1      36.530 -36.823 -30.425  0.00  0.00    +0.000 HD
ENDROOT
BRANCH   1   8
ATOM      3  C   UNL A   1      41.229 -36.192 -31.984  0.00  0.00    -0.039 C 
ATOM      4  C   UNL A   1      40.450 -36.887 -30.901  0.00  0.00    -0.046 A 
ATOM      5  C   UNL A   1      41.148 -37.637 -29.944  0.00  0.00    -0.058 A 
ATOM      6  C   UNL A   1      40.470 -38.277 -28.912  0.00  0.00    -0.060 A 
ATOM      7  C   UNL A   1      39.082 -38.177 -28.826  0.00  0.00    -0.040 A 
ATOM      8  C   UNL A   1      38.346 -37.453 -29.772  0.00  0.00    +0.035 A 
ATOM      9  C   UNL A   1      39.037 -36.812 -30.833  0.00  0.00    -0.026 A 
ATOM     10  C   UNL A   1      38.253 -36.000 -31.839  0.00  0.00    -0.038 C 
ENDBRANCH   1   8
BRANCH   1  11
ATOM     11  C   UNL A   1      36.014 -37.831 -28.735  0.00  0.00    +0.046 A 
ATOM     12  C   UNL A   1      35.616 -37.031 -27.649  0.00  0.00    -0.040 A 
ATOM     13  C   UNL A   1      34.725 -37.504 -26.685  0.00  0.00    -0.060 A 
ATOM     14  C   UNL A   1      34.226 -38.796 -26.783  0.00  0.00    -0.061 A 
ATOM     15  C   UNL A   1      34.630 -39.615 -27.836  0.00  0.00    -0.046 A 
ATOM     16  C   UNL A   1      35.532 -39.159 -28.821  0.00  0.00    +0.084 A 
BRANCH  16  17
ATOM     17  C   UNL A   1      35.948 -40.108 -29.934  0.00  0.00    +0.388 C 
ATOM     18  O   UNL A   1      35.706 -39.744 -31.134  0.00  0.00    -0.241 OA
ATOM     19  O   UNL A   1      36.512 -41.198 -29.599  0.00  0.00    -0.241 OA
ENDBRANCH  16  17
ENDBRANCH   1  11
TORSDOF 3
ENDMDL
MODEL 11
REMARK VINA RESULT:    -7.252      2.420      6.166
REMARK INTER + INTRA:          -8.638
REMARK INTER:                  -8.511
REMARK INTRA:                  -0.127
REMARK UNBOUND:                -0.114
REMARK  Name = cpd173.pdb
REMARK  5 active torsions:
REMARK  status: ('A' for Active; 'I' for Inactive)
REMARK    1  A    between atoms: C_1  and  C_2
REMARK    2  A    between atoms: C_6  and  N_7
REMARK    3  A    between atoms: N_7  and  C_8
REMARK    4  A    between atoms: C_13  and  C_14
REMARK    5  A    between atoms: C_17  and  C_18
REMARK                            x       y       z     vdW  Elec       q    Type
REMARK                         _______ _______ _______ _____ _____    ______ ____
ROOT
ATOM      1  N   UNL A   1      35.707 -35.412 -30.399  0.00  0.00    -0.314 N 
ATOM      2  H   UNL A   1      35.787 -35.320 -31.376  0.00  0.00    +0.000 HD
ENDROOT
BRANCH   1   8
ATOM      3  C   UNL A   1      40.273 -37.440 -30.519  0.00  0.00    -0.039 C 
ATOM      4  C   UNL A   1      38.931 -37.236 -29.872  0.00  0.00    -0.046 A 
ATOM      5  C   UNL A   1      38.672 -37.864 -28.645  0.00  0.00    -0.058 A 
ATOM      6  C   UNL A   1      37.453 -37.684 -28.000  0.00  0.00    -0.060 A 
ATOM      7  C   UNL A   1      36.475 -36.875 -28.576  0.00  0.00    -0.040 A 
ATOM      8  C   UNL A   1      36.687 -36.244 -29.809  0.00  0.00    +0.035 A 
ATOM      9  C   UNL A   1      37.926 -36.439 -30.473  0.00  0.00    -0.026 A 
ATOM     10  C   UNL A   1      38.176 -35.735 -31.788  0.00  0.00    -0.038 C 
ENDBRANCH   1   8
BRANCH   1  11
ATOM     11  C   UNL A   1      34.629 -34.689 -29.828  0.00  0.00    +0.046 A 
ATOM     12  C   UNL A   1      33.716 -35.330 -28.971  0.00  0.00    -0.040 A 
ATOM     13  C   UNL A   1      32.635 -34.644 -28.415  0.00  0.00    -0.060 A 
ATOM     14  C   UNL A   1      32.440 -33.303 -28.718  0.00  0.00    -0.061 A 
ATOM     15  C   UNL A   1      33.317 -32.657 -29.588  0.00  0.00    -0.046 A 
ATOM     16  C   UNL A   1      34.414 -33.331 -30.164  0.00  0.00    +0.084 A 
BRANCH  16  17
ATOM     17  C   UNL A   1      35.324 -32.574 -31.120  0.00  0.00    +0.388 C 
ATOM     18  O   UNL A   1      34.877 -31.484 -31.613  0.00  0.00    -0.241 OA
ATOM     19  O   UNL A   1      36.469 -33.073 -31.363  0.00  0.00    -0.241 OA
ENDBRANCH  16  17
ENDBRANCH   1  11
TORSDOF 3
ENDMDL
MODEL 12
REMARK VINA RESULT:    -7.249      2.788      5.551
REMARK INTER + INTRA:          -8.635
REMARK INTER:                  -7.834
REMARK INTRA:                  -0.800
REMARK UNBOUND:                -0.114
REMARK  Name = cpd173.pdb
REMARK  5 active torsions:
REMARK  status: ('A' for Active; 'I' for Inactive)
REMARK    1  A    between atoms: C_1  and  C_2
REMARK    2  A    between atoms: C_6  and  N_7
REMARK    3  A    between atoms: N_7  and  C_8
REMARK    4  A    between atoms: C_13  and  C_14
REMARK    5  A    between atoms: C_17  and  C_18
REMARK                            x       y       z     vdW  Elec       q    Type
REMARK                         _______ _______ _______ _____ _____    ______ ____
ROOT
ATOM      1  N   UNL A   1      37.070 -36.932 -29.871  0.00  0.00    -0.314 N 
ATOM      2  H   UNL A   1      36.837 -36.116 -29.372  0.00  0.00    +0.000 HD
ENDROOT
BRANCH   1   8
ATOM      3  C   UNL A   1      41.744 -36.807 -31.636  0.00  0.00    -0.039 C 
ATOM      4  C   UNL A   1      40.719 -37.253 -30.629  0.00  0.00    -0.046 A 
ATOM      5  C   UNL A   1      41.137 -38.041 -29.547  0.00  0.00    -0.058 A 
ATOM      6  C   UNL A   1      40.228 -38.456 -28.580  0.00  0.00    -0.060 A 
ATOM      7  C   UNL A   1      38.886 -38.089 -28.684  0.00  0.00    -0.040 A 
ATOM      8  C   UNL A   1      38.426 -37.318 -29.759  0.00  0.00    +0.035 A 
ATOM      9  C   UNL A   1      39.351 -36.907 -30.752  0.00  0.00    -0.026 A 
ATOM     10  C   UNL A   1      38.869 -36.046 -31.898  0.00  0.00    -0.038 C 
ENDBRANCH   1   8
BRANCH   1  11
ATOM     11  C   UNL A   1      35.988 -37.516 -30.579  0.00  0.00    +0.046 A 
ATOM     12  C   UNL A   1      35.996 -38.888 -30.887  0.00  0.00    -0.040 A 
ATOM     13  C   UNL A   1      34.954 -39.480 -31.601  0.00  0.00    -0.060 A 
ATOM     14  C   UNL A   1      33.887 -38.703 -32.034  0.00  0.00    -0.061 A 
ATOM     15  C   UNL A   1      33.874 -37.336 -31.765  0.00  0.00    -0.046 A 
ATOM     16  C   UNL A   1      34.918 -36.715 -31.047  0.00  0.00    +0.084 A 
BRANCH  16  17
ATOM     17  C   UNL A   1      34.853 -35.215 -30.802  0.00  0.00    +0.388 C 
ATOM     18  O   UNL A   1      35.228 -34.793 -29.656  0.00  0.00    -0.241 OA
ATOM     19  O   UNL A   1      34.435 -34.481 -31.753  0.00  0.00    -0.241 OA
ENDBRANCH  16  17
ENDBRANCH   1  11
TORSDOF 3
ENDMDL
MODEL 13
REMARK VINA RESULT:    -7.136      3.664      6.105
REMARK INTER + INTRA:          -8.502
REMARK INTER:                  -7.625
REMARK INTRA:                  -0.876
REMARK UNBOUND:                -0.114
REMARK  Name = cpd173.pdb
REMARK  5 active torsions:
REMARK  status: ('A' for Active; 'I' for Inactive)
REMARK    1  A    between atoms: C_1  and  C_2
REMARK    2  A    between atoms: C_6  and  N_7
REMARK    3  A    between atoms: N_7  and  C_8
REMARK    4  A    between atoms: C_13  and  C_14
REMARK    5  A    between atoms: C_17  and  C_18
REMARK                            x       y       z     vdW  Elec       q    Type
REMARK                         _______ _______ _______ _____ _____    ______ ____
ROOT
ATOM      1  N   UNL A   1      36.783 -37.756 -29.611  0.00  0.00    -0.314 N 
ATOM      2  H   UNL A   1      36.254 -36.940 -29.452  0.00  0.00    +0.000 HD
ENDROOT
BRANCH   1   8
ATOM      3  C   UNL A   1      40.626 -35.412 -31.782  0.00  0.00    -0.039 C 
ATOM      4  C   UNL A   1      40.060 -36.384 -30.783  0.00  0.00    -0.046 A 
ATOM      5  C   UNL A   1      40.941 -37.057 -29.924  0.00  0.00    -0.058 A 
ATOM      6  C   UNL A   1      40.459 -37.946 -28.970  0.00  0.00    -0.060 A 
ATOM      7  C   UNL A   1      39.088 -38.177 -28.863  0.00  0.00    -0.040 A 
ATOM      8  C   UNL A   1      38.177 -37.539 -29.714  0.00  0.00    +0.035 A 
ATOM      9  C   UNL A   1      38.670 -36.641 -30.697  0.00  0.00    -0.026 A 
ATOM     10  C   UNL A   1      37.690 -35.923 -31.597  0.00  0.00    -0.038 C 
ENDBRANCH   1   8
BRANCH   1  11
ATOM     11  C   UNL A   1      36.014 -38.945 -29.696  0.00  0.00    +0.046 A 
ATOM     12  C   UNL A   1      36.086 -39.759 -30.841  0.00  0.00    -0.040 A 
ATOM     13  C   UNL A   1      35.323 -40.922 -30.957  0.00  0.00    -0.060 A 
ATOM     14  C   UNL A   1      34.461 -41.285 -29.931  0.00  0.00    -0.061 A 
ATOM     15  C   UNL A   1      34.354 -40.477 -28.800  0.00  0.00    -0.046 A 
ATOM     16  C   UNL A   1      35.113 -39.296 -28.662  0.00  0.00    +0.084 A 
BRANCH  16  17
ATOM     17  C   UNL A   1      34.936 -38.448 -27.412  0.00  0.00    +0.388 C 
ATOM     18  O   UNL A   1      35.992 -37.969 -26.876  0.00  0.00    -0.241 OA
ATOM     19  O   UNL A   1      33.751 -38.269 -26.984  0.00  0.00    -0.241 OA
ENDBRANCH  16  17
ENDBRANCH   1  11
TORSDOF 3
ENDMDL
MODEL 14
REMARK VINA RESULT:    -7.038      2.844      6.124
REMARK INTER + INTRA:          -8.387
REMARK INTER:                  -7.495
REMARK INTRA:                  -0.891
REMARK UNBOUND:                -0.114
REMARK  Name = cpd173.pdb
REMARK  5 active torsions:
REMARK  status: ('A' for Active; 'I' for Inactive)
REMARK    1  A    between atoms: C_1  and  C_2
REMARK    2  A    between atoms: C_6  and  N_7
REMARK    3  A    between atoms: N_7  and  C_8
REMARK    4  A    between atoms: C_13  and  C_14
REMARK    5  A    between atoms: C_17  and  C_18
REMARK                            x       y       z     vdW  Elec       q    Type
REMARK                         _______ _______ _______ _____ _____    ______ ____
ROOT
ATOM      1  N   UNL A   1      36.433 -36.069 -31.157  0.00  0.00    -0.314 N 
ATOM      2  H   UNL A   1      36.611 -36.106 -32.124  0.00  0.00    +0.000 HD
ENDROOT
BRANCH   1   8
ATOM      3  C   UNL A   1      41.217 -37.239 -30.310  0.00  0.00    -0.039 C 
ATOM      4  C   UNL A   1      39.758 -37.284 -29.947  0.00  0.00    -0.046 A 
ATOM      5  C   UNL A   1      39.375 -37.953 -28.776  0.00  0.00    -0.058 A 
ATOM      6  C   UNL A   1      38.040 -37.999 -28.390  0.00  0.00    -0.060 A 
ATOM      7  C   UNL A   1      37.068 -37.377 -29.172  0.00  0.00    -0.040 A 
ATOM      8  C   UNL A   1      37.407 -36.713 -30.358  0.00  0.00    +0.035 A 
ATOM      9  C   UNL A   1      38.768 -36.679 -30.759  0.00  0.00    -0.026 A 
ATOM     10  C   UNL A   1      39.146 -35.935 -32.020  0.00  0.00    -0.038 C 
ENDBRANCH   1   8
BRANCH   1  11
ATOM     11  C   UNL A   1      35.244 -35.381 -30.804  0.00  0.00    +0.046 A 
ATOM     12  C   UNL A   1      35.307 -34.148 -30.130  0.00  0.00    -0.040 A 
ATOM     13  C   UNL A   1      34.151 -33.464 -29.754  0.00  0.00    -0.060 A 
ATOM     14  C   UNL A   1      32.905 -34.009 -30.035  0.00  0.00    -0.061 A 
ATOM     15  C   UNL A   1      32.820 -35.244 -30.677  0.00  0.00    -0.046 A 
ATOM     16  C   UNL A   1      33.976 -35.955 -31.064  0.00  0.00    +0.084 A 
BRANCH  16  17
ATOM     17  C   UNL A   1      33.816 -37.306 -31.744  0.00  0.00    +0.388 C 
ATOM     18  O   UNL A   1      33.268 -37.318 -32.899  0.00  0.00    -0.241 OA
ATOM     19  O   UNL A   1      34.240 -38.332 -31.124  0.00  0.00    -0.241 OA
ENDBRANCH  16  17
ENDBRANCH   1  11
TORSDOF 3
ENDMDL
MODEL 15
REMARK VINA RESULT:    -6.906     19.775     21.238
REMARK INTER + INTRA:          -8.232
REMARK INTER:                  -7.398
REMARK INTRA:                  -0.834
REMARK UNBOUND:                -0.114
REMARK  Name = cpd173.pdb
REMARK  5 active torsions:
REMARK  status: ('A' for Active; 'I' for Inactive)
REMARK    1  A    between atoms: C_1  and  C_2
REMARK    2  A    between atoms: C_6  and  N_7
REMARK    3  A    between atoms: N_7  and  C_8
REMARK    4  A    between atoms: C_13  and  C_14
REMARK    5  A    between atoms: C_17  and  C_18
REMARK                            x       y       z     vdW  Elec       q    Type
REMARK                         _______ _______ _______ _____ _____    ______ ____
ROOT
ATOM      1  N   UNL A   1      45.869 -20.283 -39.785  0.00  0.00    -0.314 N 
ATOM      2  H   UNL A   1      45.028 -20.478 -39.314  0.00  0.00    +0.000 HD
ENDROOT
BRANCH   1   8
ATOM      3  C   UNL A   1      47.294 -16.627 -36.690  0.00  0.00    -0.039 C 
ATOM      4  C   UNL A   1      47.054 -17.176 -38.070  0.00  0.00    -0.046 A 
ATOM      5  C   UNL A   1      47.350 -16.369 -39.177  0.00  0.00    -0.058 A 
ATOM      6  C   UNL A   1      47.166 -16.846 -40.471  0.00  0.00    -0.060 A 
ATOM      7  C   UNL A   1      46.679 -18.136 -40.674  0.00  0.00    -0.040 A 
ATOM      8  C   UNL A   1      46.354 -18.968 -39.594  0.00  0.00    +0.035 A 
ATOM      9  C   UNL A   1      46.530 -18.476 -38.275  0.00  0.00    -0.026 A 
ATOM     10  C   UNL A   1      46.214 -19.379 -37.104  0.00  0.00    -0.038 C 
ENDBRANCH   1   8
BRANCH   1  11
ATOM     11  C   UNL A   1      46.386 -21.368 -40.539  0.00  0.00    +0.046 A 
ATOM     12  C   UNL A   1      47.539 -22.048 -40.109  0.00  0.00    -0.040 A 
ATOM     13  C   UNL A   1      48.078 -23.104 -40.846  0.00  0.00    -0.060 A 
ATOM     14  C   UNL A   1      47.478 -23.491 -42.037  0.00  0.00    -0.061 A 
ATOM     15  C   UNL A   1      46.350 -22.811 -42.495  0.00  0.00    -0.046 A 
ATOM     16  C   UNL A   1      45.790 -21.738 -41.769  0.00  0.00    +0.084 A 
BRANCH  16  17
ATOM     17  C   UNL A   1      44.570 -21.025 -42.332  0.00  0.00    +0.388 C 
ATOM     18  O   UNL A   1      43.433 -21.578 -42.148  0.00  0.00    -0.241 OA
ATOM     19  O   UNL A   1      44.761 -19.926 -42.944  0.00  0.00    -0.241 OA
ENDBRANCH  16  17
ENDBRANCH   1  11
TORSDOF 3
ENDMDL
MODEL 16
REMARK VINA RESULT:    -6.871     36.624     37.986
REMARK INTER + INTRA:          -8.190
REMARK INTER:                  -7.295
REMARK INTRA:                  -0.895
REMARK UNBOUND:                -0.114
REMARK  Name = cpd173.pdb
REMARK  5 active torsions:
REMARK  status: ('A' for Active; 'I' for Inactive)
REMARK    1  A    between atoms: C_1  and  C_2
REMARK    2  A    between atoms: C_6  and  N_7
REMARK    3  A    between atoms: N_7  and  C_8
REMARK    4  A    between atoms: C_13  and  C_14
REMARK    5  A    between atoms: C_17  and  C_18
REMARK                            x       y       z     vdW  Elec       q    Type
REMARK                         _______ _______ _______ _____ _____    ______ ____
ROOT
ATOM      1  N   UNL A   1      63.316 -24.064  -5.320  0.00  0.00    -0.314 N 
ATOM      2  H   UNL A   1      62.576 -24.665  -5.071  0.00  0.00    +0.000 HD
ENDROOT
BRANCH   1   8
ATOM      3  C   UNL A   1      63.047 -20.876  -1.480  0.00  0.00    -0.039 C 
ATOM      4  C   UNL A   1      63.800 -21.854  -2.341  0.00  0.00    -0.046 A 
ATOM      5  C   UNL A   1      65.134 -22.144  -2.021  0.00  0.00    -0.058 A 
ATOM      6  C   UNL A   1      65.861 -23.059  -2.775  0.00  0.00    -0.060 A 
ATOM      7  C   UNL A   1      65.262 -23.694  -3.862  0.00  0.00    -0.040 A 
ATOM      8  C   UNL A   1      63.938 -23.419  -4.226  0.00  0.00    +0.035 A 
ATOM      9  C   UNL A   1      63.201 -22.475  -3.464  0.00  0.00    -0.026 A 
ATOM     10  C   UNL A   1      61.760 -22.197  -3.829  0.00  0.00    -0.038 C 
ENDBRANCH   1   8
BRANCH   1  11
ATOM     11  C   UNL A   1      63.572 -23.995  -6.713  0.00  0.00    +0.046 A 
ATOM     12  C   UNL A   1      63.216 -22.849  -7.447  0.00  0.00    -0.040 A 
ATOM     13  C   UNL A   1      63.439 -22.767  -8.822  0.00  0.00    -0.060 A 
ATOM     14  C   UNL A   1      64.012 -23.840  -9.493  0.00  0.00    -0.061 A 
ATOM     15  C   UNL A   1      64.345 -24.996  -8.789  0.00  0.00    -0.046 A 
ATOM     16  C   UNL A   1      64.126 -25.103  -7.399  0.00  0.00    +0.084 A 
BRANCH  16  17
ATOM     17  C   UNL A   1      64.495 -26.398  -6.692  0.00  0.00    +0.388 C 
ATOM     18  O   UNL A   1      63.562 -27.014  -6.075  0.00  0.00    -0.241 OA
ATOM     19  O   UNL A   1      65.705 -26.785  -6.766  0.00  0.00    -0.241 OA
ENDBRANCH  16  17
ENDBRANCH   1  11
TORSDOF 3
ENDMDL
MODEL 17
REMARK VINA RESULT:    -6.665     19.350     20.769
REMARK INTER + INTRA:          -7.948
REMARK INTER:                  -7.164
REMARK INTRA:                  -0.785
REMARK UNBOUND:                -0.114
REMARK  Name = cpd173.pdb
REMARK  5 active torsions:
REMARK  status: ('A' for Active; 'I' for Inactive)
REMARK    1  A    between atoms: C_1  and  C_2
REMARK    2  A    between atoms: C_6  and  N_7
REMARK    3  A    between atoms: N_7  and  C_8
REMARK    4  A    between atoms: C_13  and  C_14
REMARK    5  A    between atoms: C_17  and  C_18
REMARK                            x       y       z     vdW  Elec       q    Type
REMARK                         _______ _______ _______ _____ _____    ______ ____
ROOT
ATOM      1  N   UNL A   1      46.301 -20.370 -38.325  0.00  0.00    -0.314 N 
ATOM      2  H   UNL A   1      46.459 -21.094 -37.676  0.00  0.00    +0.000 HD
ENDROOT
BRANCH   1   8
ATOM      3  C   UNL A   1      46.783 -23.119 -42.471  0.00  0.00    -0.039 C 
ATOM      4  C   UNL A   1      46.023 -22.155 -41.601  0.00  0.00    -0.046 A 
ATOM      5  C   UNL A   1      44.765 -21.709 -42.029  0.00  0.00    -0.058 A 
ATOM      6  C   UNL A   1      44.017 -20.836 -41.246  0.00  0.00    -0.060 A 
ATOM      7  C   UNL A   1      44.521 -20.395 -40.023  0.00  0.00    -0.040 A 
ATOM      8  C   UNL A   1      45.782 -20.802 -39.568  0.00  0.00    +0.035 A 
ATOM      9  C   UNL A   1      46.549 -21.682 -40.374  0.00  0.00    -0.026 A 
ATOM     10  C   UNL A   1      47.896 -22.154 -39.874  0.00  0.00    -0.038 C 
ENDBRANCH   1   8
BRANCH   1  11
ATOM     11  C   UNL A   1      46.633 -19.075 -37.851  0.00  0.00    +0.046 A 
ATOM     12  C   UNL A   1      46.879 -18.027 -38.757  0.00  0.00    -0.040 A 
ATOM     13  C   UNL A   1      47.229 -16.751 -38.315  0.00  0.00    -0.060 A 
ATOM     14  C   UNL A   1      47.353 -16.502 -36.954  0.00  0.00    -0.061 A 
ATOM     15  C   UNL A   1      47.142 -17.534 -36.041  0.00  0.00    -0.046 A 
ATOM     16  C   UNL A   1      46.790 -18.834 -36.465  0.00  0.00    +0.084 A 
BRANCH  16  17
ATOM     17  C   UNL A   1      46.591 -19.921 -35.420  0.00  0.00    +0.388 C 
ATOM     18  O   UNL A   1      45.456 -20.505 -35.393  0.00  0.00    -0.241 OA
ATOM     19  O   UNL A   1      47.567 -20.179 -34.646  0.00  0.00    -0.241 OA
ENDBRANCH  16  17
ENDBRANCH   1  11
TORSDOF 3
ENDMDL
MODEL 18
REMARK VINA RESULT:    -6.616     20.237     21.804
REMARK INTER + INTRA:          -7.890
REMARK INTER:                  -6.960
REMARK INTRA:                  -0.931
REMARK UNBOUND:                -0.114
REMARK  Name = cpd173.pdb
REMARK  5 active torsions:
REMARK  status: ('A' for Active; 'I' for Inactive)
REMARK    1  A    between atoms: C_1  and  C_2
REMARK    2  A    between atoms: C_6  and  N_7
REMARK    3  A    between atoms: N_7  and  C_8
REMARK    4  A    between atoms: C_13  and  C_14
REMARK    5  A    between atoms: C_17  and  C_18
REMARK                            x       y       z     vdW  Elec       q    Type
REMARK                         _______ _______ _______ _____ _____    ______ ____
ROOT
ATOM      1  N   UNL A   1      47.318 -19.371 -40.551  0.00  0.00    -0.314 N 
ATOM      2  H   UNL A   1      48.271 -19.424 -40.792  0.00  0.00    +0.000 HD
ENDROOT
BRANCH   1   8
ATOM      3  C   UNL A   1      46.689 -14.795 -38.643  0.00  0.00    -0.039 C 
ATOM      4  C   UNL A   1      46.732 -16.292 -38.508  0.00  0.00    -0.046 A 
ATOM      5  C   UNL A   1      46.461 -16.864 -37.257  0.00  0.00    -0.058 A 
ATOM      6  C   UNL A   1      46.466 -18.245 -37.091  0.00  0.00    -0.060 A 
ATOM      7  C   UNL A   1      46.747 -19.073 -38.177  0.00  0.00    -0.040 A 
ATOM      8  C   UNL A   1      47.041 -18.542 -39.439  0.00  0.00    +0.035 A 
ATOM      9  C   UNL A   1      47.048 -17.133 -39.604  0.00  0.00    -0.026 A 
ATOM     10  C   UNL A   1      47.331 -16.551 -40.971  0.00  0.00    -0.038 C 
ENDBRANCH   1   8
BRANCH   1  11
ATOM     11  C   UNL A   1      46.460 -20.139 -41.379  0.00  0.00    +0.046 A 
ATOM     12  C   UNL A   1      45.352 -19.541 -42.007  0.00  0.00    -0.040 A 
ATOM     13  C   UNL A   1      44.482 -20.281 -42.808  0.00  0.00    -0.060 A 
ATOM     14  C   UNL A   1      44.697 -21.642 -42.986  0.00  0.00    -0.061 A 
ATOM     15  C   UNL A   1      45.773 -22.260 -42.349  0.00  0.00    -0.046 A 
ATOM     16  C   UNL A   1      46.663 -21.532 -41.532  0.00  0.00    +0.084 A 
BRANCH  16  17
ATOM     17  C   UNL A   1      47.807 -22.269 -40.850  0.00  0.00    +0.388 C 
ATOM     18  O   UNL A   1      48.590 -22.949 -41.595  0.00  0.00    -0.241 OA
ATOM     19  O   UNL A   1      47.910 -22.156 -39.587  0.00  0.00    -0.241 OA
ENDBRANCH  16  17
ENDBRANCH   1  11
TORSDOF 3
ENDMDL
MODEL 19
REMARK VINA RESULT:    -6.522      2.876      4.128
REMARK INTER + INTRA:          -7.780
REMARK INTER:                  -6.990
REMARK INTRA:                  -0.791
REMARK UNBOUND:                -0.114
REMARK  Name = cpd173.pdb
REMARK  5 active torsions:
REMARK  status: ('A' for Active; 'I' for Inactive)
REMARK    1  A    between atoms: C_1  and  C_2
REMARK    2  A    between atoms: C_6  and  N_7
REMARK    3  A    between atoms: N_7  and  C_8
REMARK    4  A    between atoms: C_13  and  C_14
REMARK    5  A    between atoms: C_17  and  C_18
REMARK                            x       y       z     vdW  Elec       q    Type
REMARK                         _______ _______ _______ _____ _____    ______ ____
ROOT
ATOM      1  N   UNL A   1      36.795 -37.528 -28.834  0.00  0.00    -0.314 N 
ATOM      2  H   UNL A   1      36.607 -36.953 -28.057  0.00  0.00    +0.000 HD
ENDROOT
BRANCH   1   8
ATOM      3  C   UNL A   1      33.450 -40.578 -26.715  0.00  0.00    -0.039 C 
ATOM      4  C   UNL A   1      34.459 -40.255 -27.783  0.00  0.00    -0.046 A 
ATOM      5  C   UNL A   1      34.685 -41.192 -28.801  0.00  0.00    -0.058 A 
ATOM      6  C   UNL A   1      35.591 -40.925 -29.822  0.00  0.00    -0.060 A 
ATOM      7  C   UNL A   1      36.286 -39.717 -29.835  0.00  0.00    -0.040 A 
ATOM      8  C   UNL A   1      36.103 -38.762 -28.827  0.00  0.00    +0.035 A 
ATOM      9  C   UNL A   1      35.188 -39.041 -27.779  0.00  0.00    -0.026 A 
ATOM     10  C   UNL A   1      34.959 -38.002 -26.704  0.00  0.00    -0.038 C 
ENDBRANCH   1   8
BRANCH   1  11
ATOM     11  C   UNL A   1      37.711 -36.977 -29.765  0.00  0.00    +0.046 A 
ATOM     12  C   UNL A   1      39.062 -37.369 -29.753  0.00  0.00    -0.040 A 
ATOM     13  C   UNL A   1      39.986 -36.824 -30.646  0.00  0.00    -0.060 A 
ATOM     14  C   UNL A   1      39.576 -35.862 -31.560  0.00  0.00    -0.061 A 
ATOM     15  C   UNL A   1      38.248 -35.439 -31.569  0.00  0.00    -0.046 A 
ATOM     16  C   UNL A   1      37.297 -35.973 -30.674  0.00  0.00    +0.084 A 
BRANCH  16  17
ATOM     17  C   UNL A   1      35.868 -35.455 -30.722  0.00  0.00    +0.388 C 
ATOM     18  O   UNL A   1      35.415 -34.890 -29.670  0.00  0.00    -0.241 OA
ATOM     19  O   UNL A   1      35.220 -35.615 -31.805  0.00  0.00    -0.241 OA
ENDBRANCH  16  17
ENDBRANCH   1  11
TORSDOF 3
ENDMDL
MODEL 20
REMARK VINA RESULT:    -6.456     19.516     20.666
REMARK INTER + INTRA:          -7.702
REMARK INTER:                  -6.824
REMARK INTRA:                  -0.879
REMARK UNBOUND:                -0.114
REMARK  Name = cpd173.pdb
REMARK  5 active torsions:
REMARK  status: ('A' for Active; 'I' for Inactive)
REMARK    1  A    between atoms: C_1  and  C_2
REMARK    2  A    between atoms: C_6  and  N_7
REMARK    3  A    between atoms: N_7  and  C_8
REMARK    4  A    between atoms: C_13  and  C_14
REMARK    5  A    between atoms: C_17  and  C_18
REMARK                            x       y       z     vdW  Elec       q    Type
REMARK                         _______ _______ _______ _____ _____    ______ ____
ROOT
ATOM      1  N   UNL A   1      45.568 -20.537 -39.110  0.00  0.00    -0.314 N 
ATOM      2  H   UNL A   1      44.584 -20.532 -39.067  0.00  0.00    +0.000 HD
ENDROOT
BRANCH   1   8
ATOM      3  C   UNL A   1      47.364 -15.991 -38.070  0.00  0.00    -0.039 C 
ATOM      4  C   UNL A   1      47.077 -17.419 -37.697  0.00  0.00    -0.046 A 
ATOM      5  C   UNL A   1      47.417 -17.860 -36.410  0.00  0.00    -0.058 A 
ATOM      6  C   UNL A   1      47.149 -19.166 -36.014  0.00  0.00    -0.060 A 
ATOM      7  C   UNL A   1      46.537 -20.050 -36.902  0.00  0.00    -0.040 A 
ATOM      8  C   UNL A   1      46.197 -19.654 -38.202  0.00  0.00    +0.035 A 
ATOM      9  C   UNL A   1      46.484 -18.325 -38.610  0.00  0.00    -0.026 A 
ATOM     10  C   UNL A   1      46.091 -17.880 -40.000  0.00  0.00    -0.038 C 
ENDBRANCH   1   8
BRANCH   1  11
ATOM     11  C   UNL A   1      46.109 -21.429 -40.072  0.00  0.00    +0.046 A 
ATOM     12  C   UNL A   1      47.276 -22.160 -39.789  0.00  0.00    -0.040 A 
ATOM     13  C   UNL A   1      47.838 -23.026 -40.727  0.00  0.00    -0.060 A 
ATOM     14  C   UNL A   1      47.248 -23.167 -41.976  0.00  0.00    -0.061 A 
ATOM     15  C   UNL A   1      46.106 -22.429 -42.287  0.00  0.00    -0.046 A 
ATOM     16  C   UNL A   1      45.522 -21.545 -41.355  0.00  0.00    +0.084 A 
BRANCH  16  17
ATOM     17  C   UNL A   1      44.288 -20.755 -41.763  0.00  0.00    +0.388 C 
ATOM     18  O   UNL A   1      43.223 -20.943 -41.083  0.00  0.00    -0.241 OA
ATOM     19  O   UNL A   1      44.397 -19.959 -42.749  0.00  0.00    -0.241 OA
ENDBRANCH  16  17
ENDBRANCH   1  11
TORSDOF 3
ENDMDL
