REMARK  Name = cpd317.pdb
REMARK  5 active torsions:
REMARK  status: ('A' for Active; 'I' for Inactive)
REMARK    1  A    between atoms: C_1  and  O_2
REMARK    2  A    between atoms: O_2  and  C_3
REMARK    3  A    between atoms: C_12  and  O_13
REMARK    4  A    between atoms: C_20  and  C_22
REMARK    5  A    between atoms: C_22  and  N_23
REMARK                            x       y       z     vdW  Elec       q    Type
REMARK                         _______ _______ _______ _____ _____    ______ ____
ROOT
ATOM      1  C   UNL     1       2.647   2.612   0.534  0.00  0.00    +0.162 A 
ATOM      2  C   UNL     1       1.417   3.006   0.002  0.00  0.00    -0.016 A 
ATOM      3  C   UNL     1       0.627   2.103  -0.739  0.00  0.00    -0.053 A 
ATOM      4  C   UNL     1       1.070   0.800  -1.012  0.00  0.00    -0.022 A 
ATOM      5  C   UNL     1       2.341   0.455  -0.583  0.00  0.00    +0.016 A 
ATOM      6  C   UNL     1       3.069   1.324   0.243  0.00  0.00    +0.167 A 
ATOM      7  O   UNL     1       4.168   0.704   0.826  0.00  0.00    -0.484 OA
ATOM      8  C   UNL     1       4.369  -0.375  -0.092  0.00  0.00    +0.116 C 
ATOM      9  C   UNL     1       5.252  -1.518   0.385  0.00  0.00    +0.015 C 
ATOM     10  C   UNL     1       5.440  -2.513  -0.783  0.00  0.00    +0.077 C 
ATOM     11  C   UNL     1       4.389  -2.444  -1.873  0.00  0.00    -0.059 C 
ATOM     12  C   UNL     1       3.280  -1.678  -1.813  0.00  0.00    -0.071 C 
ATOM     13  C   UNL     1       2.982  -0.894  -0.562  0.00  0.00    +0.056 C 
ATOM     14  C   UNL     1       2.136  -1.743   0.416  0.00  0.00    -0.020 C 
ATOM     15  C   UNL     1       0.800  -2.258  -0.172  0.00  0.00    +0.016 C 
ATOM     16  N   UNL     1      -0.208  -1.250  -0.553  0.00  0.00    -0.296 N 
ATOM     17  C   UNL     1      -1.547  -1.267  -0.136  0.00  0.00    +0.230 C 
ATOM     18  O   UNL     1      -2.317  -0.349  -0.432  0.00  0.00    -0.274 OA
ATOM     19  C   UNL     1       0.150  -0.248  -1.568  0.00  0.00    +0.040 C 
ENDROOT
BRANCH   1  21
ATOM     20  C   UNL     1       3.099   4.724   1.515  0.00  0.00    +0.079 C 
ATOM     21  O   UNL     1       3.461   3.363   1.329  0.00  0.00    -0.491 OA
ENDBRANCH   1  21
BRANCH  10  22
ATOM     22  O   UNL     1       6.676  -2.234  -1.435  0.00  0.00    -0.388 OA
ATOM     23  H   UNL     1       6.644  -1.345  -1.822  0.00  0.00    +0.000 HD
ENDBRANCH  10  22
BRANCH  17  24
ATOM     24  C   UNL     1      -2.016  -2.488   0.688  0.00  0.00    +0.076 C 
BRANCH  24  25
ATOM     25  N   UNL     1      -3.490  -2.641   0.703  0.00  0.00    -0.290 N 
ATOM     26  C   UNL     1      -3.890  -3.684   1.670  0.00  0.00    +0.023 C 
ATOM     27  C   UNL     1      -5.409  -3.921   1.648  0.00  0.00    +0.060 C 
ATOM     28  O   UNL     1      -5.853  -4.296   0.337  0.00  0.00    -0.377 OA
ATOM     29  C   UNL     1      -5.525  -3.261  -0.600  0.00  0.00    +0.060 C 
ATOM     30  C   UNL     1      -4.009  -3.008  -0.635  0.00  0.00    +0.023 C 
ATOM     31  H   UNL     1      -3.885  -1.741   0.977  0.00  0.00    +0.000 HD
ENDBRANCH  24  25
ENDBRANCH  17  24
TORSDOF 4
