@<TRIPOS>MOLECULE
*****
 29 33 0 0 0
SMALL
GASTEIGER

@<TRIPOS>ATOM
      1 C           2.8865    3.0121    0.0000 C.3     1  UNL1        0.2526
      2 O           2.9846    2.0783    0.0000 O.3     1  UNL1       -0.4684
      3 C           2.1714    1.6089    0.0000 C.ar    1  UNL1        0.1721
      4 C           1.3583    2.0783    0.0000 C.ar    1  UNL1        0.0398
      5 C           0.5446    1.6086    0.0000 C.ar    1  UNL1        0.0004
      6 C           0.5445    0.6697    0.0000 C.ar    1  UNL1       -0.0028
      7 C           1.3579    0.1998    0.0000 C.ar    1  UNL1        0.0191
      8 C           2.1716    0.6695    0.0000 C.ar    1  UNL1        0.1682
      9 O           2.9847    0.2000    0.0000 O.3     1  UNL1       -0.4757
     10 C           2.9849   -0.7394    0.0000 C.3     1  UNL1        0.1762
     11 C           3.7983   -1.2093    0.0000 C.3     1  UNL1        0.0816
     12 C           3.7981   -2.1482    0.0000 C.3     1  UNL1        0.1773
     13 O           4.6322   -2.6299    0.0000 O.3     1  UNL1       -0.2182
     14 C           2.9844   -2.6179    0.0000 C.2     1  UNL1        0.0021
     15 C           2.1713   -2.1485    0.0000 C.2     1  UNL1       -0.0211
     16 C           2.1712   -1.2091    0.0000 C.3     1  UNL1        0.0783
     17 C           1.4305   -1.6521    0.0000 C.3     1  UNL1        0.0332
     18 C           0.5783   -1.5155    0.0000 C.3     1  UNL1        0.0945
     19 N           0.0134   -0.8630    0.0000 N.am    1  UNL1       -0.2743
     20 C          -0.9070   -1.2142    0.0000 C.2     1  UNL1        0.2423
     21 O          -1.6714   -0.5927    0.0000 O.2     1  UNL1       -0.2733
     22 C          -1.0630   -2.1869    0.0000 C.3     1  UNL1        0.1588
     23 N          -1.9834   -2.5381    0.0000 N.3     1  UNL1       -0.2607
     24 C          -2.1394   -3.5107    0.0000 C.3     1  UNL1        0.1050
     25 C          -3.0598   -3.8620    0.0000 C.3     1  UNL1        0.1595
     26 O          -3.8241   -3.2405    0.0000 O.3     1  UNL1       -0.3508
     27 C          -3.6681   -2.2678    0.0000 C.3     1  UNL1        0.1595
     28 C          -2.7477   -1.9166    0.0000 C.3     1  UNL1        0.1050
     29 C          -0.0000   -0.0000    0.0000 C.3     1  UNL1        0.1200
@<TRIPOS>BOND
     1     1     2    1
     2     2     3    1
     3     3     4   ar
     4     4     5   ar
     5     5     6   ar
     6     6     7   ar
     7     7     8   ar
     8     3     8   ar
     9     8     9    1
    10     9    10    1
    11    10    11    1
    12    11    12    1
    13    12    13    1
    14    12    14    1
    15    14    15    2
    16    15    16    1
    17     7    16    1
    18    10    16    1
    19    16    17    1
    20    17    18    1
    21    18    19    1
    22    19    20   am
    23    20    21    2
    24    20    22    1
    25    22    23    1
    26    23    24    1
    27    24    25    1
    28    25    26    1
    29    26    27    1
    30    27    28    1
    31    23    28    1
    32    19    29    1
    33     6    29    1
