MODEL 1
REMARK VINA RESULT:    -8.505      0.000      0.000
REMARK INTER + INTRA:         -10.639
REMARK INTER:                 -10.245
REMARK INTRA:                  -0.394
REMARK UNBOUND:                -0.394
REMARK  Name = cpd317.pdb
REMARK  5 active torsions:
REMARK  status: ('A' for Active; 'I' for Inactive)
REMARK    1  A    between atoms: C_1  and  O_2
REMARK    2  A    between atoms: O_2  and  C_3
REMARK    3  A    between atoms: C_12  and  O_13
REMARK    4  A    between atoms: C_20  and  C_22
REMARK    5  A    between atoms: C_22  and  N_23
REMARK                            x       y       z     vdW  Elec       q    Type
REMARK                         _______ _______ _______ _____ _____    ______ ____
ROOT
ATOM      1  C   UNL     1      40.035 -36.661 -30.983  0.00  0.00    +0.162 A 
ATOM      2  C   UNL     1      40.596 -37.488 -30.006  0.00  0.00    -0.016 A 
ATOM      3  C   UNL     1      39.803 -38.025 -28.972  0.00  0.00    -0.053 A 
ATOM      4  C   UNL     1      38.441 -37.709 -28.856  0.00  0.00    -0.022 A 
ATOM      5  C   UNL     1      37.919 -36.796 -29.758  0.00  0.00    +0.016 A 
ATOM      6  C   UNL     1      38.690 -36.354 -30.843  0.00  0.00    +0.167 A 
ATOM      7  O   UNL     1      37.927 -35.700 -31.804  0.00  0.00    -0.484 OA
ATOM      8  C   UNL     1      36.806 -35.300 -31.010  0.00  0.00    +0.116 C 
ATOM      9  C   UNL     1      35.556 -34.875 -31.765  0.00  0.00    +0.015 C 
ATOM     10  C   UNL     1      34.512 -34.371 -30.741  0.00  0.00    +0.077 C 
ATOM     11  C   UNL     1      34.710 -34.854 -29.318  0.00  0.00    -0.059 C 
ATOM     12  C   UNL     1      35.636 -35.761 -28.945  0.00  0.00    -0.071 C 
ATOM     13  C   UNL     1      36.490 -36.429 -29.990  0.00  0.00    +0.056 C 
ATOM     14  C   UNL     1      35.806 -37.720 -30.499  0.00  0.00    -0.020 C 
ATOM     15  C   UNL     1      35.483 -38.754 -29.393  0.00  0.00    +0.016 C 
ATOM     16  N   UNL     1      36.621 -39.352 -28.669  0.00  0.00    -0.296 N 
ATOM     17  C   UNL     1      36.818 -40.729 -28.495  0.00  0.00    +0.230 C 
ATOM     18  O   UNL     1      37.834 -41.162 -27.943  0.00  0.00    -0.274 OA
ATOM     19  C   UNL     1      37.529 -38.461 -27.931  0.00  0.00    +0.040 C 
ENDROOT
BRANCH   1  21
ATOM     20  C   UNL     1      42.014 -35.712 -31.882  0.00  0.00    +0.079 C 
ATOM     21  O   UNL     1      40.675 -36.147 -32.071  0.00  0.00    -0.491 OA
ENDBRANCH   1  21
BRANCH  10  22
ATOM     22  O   UNL     1      34.583 -32.950 -30.668  0.00  0.00    -0.388 OA
ATOM     23  H   UNL     1      35.257 -32.627 -31.288  0.00  0.00    +0.000 HD
ENDBRANCH  10  22
BRANCH  17  24
ATOM     24  C   UNL     1      35.705 -41.673 -29.005  0.00  0.00    +0.076 C 
BRANCH  24  25
ATOM     25  N   UNL     1      34.592 -41.827 -28.038  0.00  0.00    -0.290 N 
ATOM     26  C   UNL     1      34.826 -42.995 -27.165  0.00  0.00    +0.023 C 
ATOM     27  C   UNL     1      33.648 -43.227 -26.205  0.00  0.00    +0.060 C 
ATOM     28  O   UNL     1      32.423 -43.414 -26.928  0.00  0.00    -0.377 OA
ATOM     29  C   UNL     1      32.154 -42.258 -27.732  0.00  0.00    +0.060 C 
ATOM     30  C   UNL     1      33.295 -42.002 -28.731  0.00  0.00    +0.023 C 
ATOM     31  H   UNL     1      34.557 -40.974 -27.479  0.00  0.00    +0.000 HD
ENDBRANCH  24  25
ENDBRANCH  17  24
TORSDOF 4
ENDMDL
MODEL 2
REMARK VINA RESULT:    -8.482      2.804      6.797
REMARK INTER + INTRA:         -10.611
REMARK INTER:                 -10.236
REMARK INTRA:                  -0.375
REMARK UNBOUND:                -0.394
REMARK  Name = cpd317.pdb
REMARK  5 active torsions:
REMARK  status: ('A' for Active; 'I' for Inactive)
REMARK    1  A    between atoms: C_1  and  O_2
REMARK    2  A    between atoms: O_2  and  C_3
REMARK    3  A    between atoms: C_12  and  O_13
REMARK    4  A    between atoms: C_20  and  C_22
REMARK    5  A    between atoms: C_22  and  N_23
REMARK                            x       y       z     vdW  Elec       q    Type
REMARK                         _______ _______ _______ _____ _____    ______ ____
ROOT
ATOM      1  C   UNL     1      40.238 -36.203 -31.020  0.00  0.00    +0.162 A 
ATOM      2  C   UNL     1      39.934 -35.203 -31.946  0.00  0.00    -0.016 A 
ATOM      3  C   UNL     1      38.596 -34.913 -32.285  0.00  0.00    -0.053 A 
ATOM      4  C   UNL     1      37.531 -35.652 -31.747  0.00  0.00    -0.022 A 
ATOM      5  C   UNL     1      37.846 -36.719 -30.922  0.00  0.00    +0.016 A 
ATOM      6  C   UNL     1      39.171 -36.927 -30.510  0.00  0.00    +0.167 A 
ATOM      7  O   UNL     1      39.262 -37.830 -29.457  0.00  0.00    -0.484 OA
ATOM      8  C   UNL     1      38.033 -38.542 -29.625  0.00  0.00    +0.116 C 
ATOM      9  C   UNL     1      37.567 -39.381 -28.444  0.00  0.00    +0.015 C 
ATOM     10  C   UNL     1      36.298 -40.157 -28.865  0.00  0.00    +0.077 C 
ATOM     11  C   UNL     1      35.544 -39.582 -30.047  0.00  0.00    -0.059 C 
ATOM     12  C   UNL     1      35.844 -38.409 -30.643  0.00  0.00    -0.071 C 
ATOM     13  C   UNL     1      36.933 -37.540 -30.071  0.00  0.00    +0.056 C 
ATOM     14  C   UNL     1      36.348 -36.563 -29.024  0.00  0.00    -0.020 C 
ATOM     15  C   UNL     1      35.219 -35.649 -29.559  0.00  0.00    +0.016 C 
ATOM     16  N   UNL     1      35.570 -34.686 -30.620  0.00  0.00    -0.296 N 
ATOM     17  C   UNL     1      35.284 -33.313 -30.575  0.00  0.00    +0.230 C 
ATOM     18  O   UNL     1      35.675 -32.553 -31.465  0.00  0.00    -0.274 OA
ATOM     19  C   UNL     1      36.105 -35.203 -31.889  0.00  0.00    +0.040 C 
ENDROOT
BRANCH   1  21
ATOM     20  C   UNL     1      42.502 -36.701 -31.522  0.00  0.00    +0.079 C 
ATOM     21  O   UNL     1      41.478 -36.522 -30.554  0.00  0.00    -0.491 OA
ENDBRANCH   1  21
BRANCH  10  22
ATOM     22  O   UNL     1      36.671 -41.474 -29.262  0.00  0.00    -0.388 OA
ATOM     23  H   UNL     1      35.889 -41.946 -29.591  0.00  0.00    +0.000 HD
ENDBRANCH  10  22
BRANCH  17  24
ATOM     24  C   UNL     1      34.447 -32.804 -29.379  0.00  0.00    +0.076 C 
BRANCH  24  25
ATOM     25  N   UNL     1      33.052 -32.472 -29.753  0.00  0.00    -0.290 N 
ATOM     26  C   UNL     1      32.898 -31.012 -29.923  0.00  0.00    +0.023 C 
ATOM     27  C   UNL     1      31.441 -30.630 -30.232  0.00  0.00    +0.060 C 
ATOM     28  O   UNL     1      30.560 -31.081 -29.195  0.00  0.00    -0.377 OA
ATOM     29  C   UNL     1      30.655 -32.506 -29.064  0.00  0.00    +0.060 C 
ATOM     30  C   UNL     1      32.092 -32.935 -28.725  0.00  0.00    +0.023 C 
ATOM     31  H   UNL     1      32.852 -32.949 -30.633  0.00  0.00    +0.000 HD
ENDBRANCH  24  25
ENDBRANCH  17  24
TORSDOF 4
ENDMDL
MODEL 3
REMARK VINA RESULT:    -7.503     17.668     21.889
REMARK INTER + INTRA:          -9.432
REMARK INTER:                  -8.923
REMARK INTRA:                  -0.510
REMARK UNBOUND:                -0.394
REMARK  Name = cpd317.pdb
REMARK  5 active torsions:
REMARK  status: ('A' for Active; 'I' for Inactive)
REMARK    1  A    between atoms: C_1  and  O_2
REMARK    2  A    between atoms: O_2  and  C_3
REMARK    3  A    between atoms: C_12  and  O_13
REMARK    4  A    between atoms: C_20  and  C_22
REMARK    5  A    between atoms: C_22  and  N_23
REMARK                            x       y       z     vdW  Elec       q    Type
REMARK                         _______ _______ _______ _____ _____    ______ ____
ROOT
ATOM      1  C   UNL     1      46.795 -18.751 -37.417  0.00  0.00    +0.162 A 
ATOM      2  C   UNL     1      45.885 -17.699 -37.288  0.00  0.00    -0.016 A 
ATOM      3  C   UNL     1      44.772 -17.596 -38.148  0.00  0.00    -0.053 A 
ATOM      4  C   UNL     1      44.569 -18.512 -39.191  0.00  0.00    -0.022 A 
ATOM      5  C   UNL     1      45.538 -19.482 -39.387  0.00  0.00    +0.016 A 
ATOM      6  C   UNL     1      46.581 -19.637 -38.461  0.00  0.00    +0.167 A 
ATOM      7  O   UNL     1      47.270 -20.831 -38.636  0.00  0.00    -0.484 OA
ATOM      8  C   UNL     1      46.958 -21.109 -40.004  0.00  0.00    +0.116 C 
ATOM      9  C   UNL     1      47.216 -22.528 -40.487  0.00  0.00    +0.015 C 
ATOM     10  C   UNL     1      46.931 -22.590 -42.005  0.00  0.00    +0.077 C 
ATOM     11  C   UNL     1      46.034 -21.494 -42.544  0.00  0.00    -0.059 C 
ATOM     12  C   UNL     1      45.399 -20.584 -41.777  0.00  0.00    -0.071 C 
ATOM     13  C   UNL     1      45.489 -20.681 -40.277  0.00  0.00    +0.056 C 
ATOM     14  C   UNL     1      44.344 -21.562 -39.725  0.00  0.00    -0.020 C 
ATOM     15  C   UNL     1      42.923 -21.079 -40.103  0.00  0.00    +0.016 C 
ATOM     16  N   UNL     1      42.491 -19.767 -39.583  0.00  0.00    -0.296 N 
ATOM     17  C   UNL     1      41.292 -19.541 -38.892  0.00  0.00    +0.230 C 
ATOM     18  O   UNL     1      41.030 -18.431 -38.419  0.00  0.00    -0.274 OA
ATOM     19  C   UNL     1      43.273 -18.576 -39.947  0.00  0.00    +0.040 C 
ENDROOT
BRANCH   1  21
ATOM     20  C   UNL     1      47.750 -18.577 -35.253  0.00  0.00    +0.079 C 
ATOM     21  O   UNL     1      47.860 -19.002 -36.604  0.00  0.00    -0.491 OA
ENDBRANCH   1  21
BRANCH  10  22
ATOM     22  O   UNL     1      48.160 -22.451 -42.713  0.00  0.00    -0.388 OA
ATOM     23  H   UNL     1      48.123 -21.660 -43.274  0.00  0.00    +0.000 HD
ENDBRANCH  10  22
BRANCH  17  24
ATOM     24  C   UNL     1      40.312 -20.730 -38.768  0.00  0.00    +0.076 C 
BRANCH  24  25
ATOM     25  N   UNL     1      40.099 -21.157 -37.365  0.00  0.00    -0.290 N 
ATOM     26  C   UNL     1      41.396 -21.372 -36.690  0.00  0.00    +0.023 C 
ATOM     27  C   UNL     1      41.206 -21.895 -35.256  0.00  0.00    +0.060 C 
ATOM     28  O   UNL     1      40.460 -23.119 -35.249  0.00  0.00    -0.377 OA
ATOM     29  C   UNL     1      39.173 -22.907 -35.847  0.00  0.00    +0.060 C 
ATOM     30  C   UNL     1      39.313 -22.411 -37.295  0.00  0.00    +0.023 C 
ATOM     31  H   UNL     1      39.581 -20.413 -36.897  0.00  0.00    +0.000 HD
ENDBRANCH  24  25
ENDBRANCH  17  24
TORSDOF 4
ENDMDL
MODEL 4
REMARK VINA RESULT:    -7.501      2.494      3.162
REMARK INTER + INTRA:          -9.430
REMARK INTER:                  -8.884
REMARK INTRA:                  -0.546
REMARK UNBOUND:                -0.394
REMARK  Name = cpd317.pdb
REMARK  5 active torsions:
REMARK  status: ('A' for Active; 'I' for Inactive)
REMARK    1  A    between atoms: C_1  and  O_2
REMARK    2  A    between atoms: O_2  and  C_3
REMARK    3  A    between atoms: C_12  and  O_13
REMARK    4  A    between atoms: C_20  and  C_22
REMARK    5  A    between atoms: C_22  and  N_23
REMARK                            x       y       z     vdW  Elec       q    Type
REMARK                         _______ _______ _______ _____ _____    ______ ____
ROOT
ATOM      1  C   UNL     1      38.242 -35.879 -30.992  0.00  0.00    +0.162 A 
ATOM      2  C   UNL     1      38.737 -36.951 -30.246  0.00  0.00    -0.016 A 
ATOM      3  C   UNL     1      37.922 -37.615 -29.305  0.00  0.00    -0.053 A 
ATOM      4  C   UNL     1      36.609 -37.191 -29.049  0.00  0.00    -0.022 A 
ATOM      5  C   UNL     1      36.166 -36.055 -29.706  0.00  0.00    +0.016 A 
ATOM      6  C   UNL     1      36.946 -35.471 -30.715  0.00  0.00    +0.167 A 
ATOM      7  O   UNL     1      36.231 -34.549 -31.471  0.00  0.00    -0.484 OA
ATOM      8  C   UNL     1      35.189 -34.217 -30.548  0.00  0.00    +0.116 C 
ATOM      9  C   UNL     1      33.971 -33.510 -31.124  0.00  0.00    +0.015 C 
ATOM     10  C   UNL     1      33.026 -33.134 -29.960  0.00  0.00    +0.077 C 
ATOM     11  C   UNL     1      33.214 -33.932 -28.685  0.00  0.00    -0.059 C 
ATOM     12  C   UNL     1      34.043 -34.990 -28.565  0.00  0.00    -0.071 C 
ATOM     13  C   UNL     1      34.781 -35.501 -29.775  0.00  0.00    +0.056 C 
ATOM     14  C   UNL     1      33.938 -36.572 -30.506  0.00  0.00    -0.020 C 
ATOM     15  C   UNL     1      33.536 -37.782 -29.627  0.00  0.00    +0.016 C 
ATOM     16  N   UNL     1      34.622 -38.637 -29.111  0.00  0.00    -0.296 N 
ATOM     17  C   UNL     1      34.667 -40.033 -29.245  0.00  0.00    +0.230 C 
ATOM     18  O   UNL     1      35.644 -40.678 -28.855  0.00  0.00    -0.274 OA
ATOM     19  C   UNL     1      35.649 -38.027 -28.254  0.00  0.00    +0.040 C 
ENDROOT
BRANCH   1  21
ATOM     20  C   UNL     1      40.026 -35.860 -32.556  0.00  0.00    +0.079 C 
ATOM     21  O   UNL     1      38.901 -35.211 -31.981  0.00  0.00    -0.491 OA
ENDBRANCH   1  21
BRANCH  10  22
ATOM     22  O   UNL     1      33.261 -31.778 -29.592  0.00  0.00    -0.388 OA
ATOM     23  H   UNL     1      34.208 -31.582 -29.666  0.00  0.00    +0.000 HD
ENDBRANCH  10  22
BRANCH  17  24
ATOM     24  C   UNL     1      33.437 -40.722 -29.879  0.00  0.00    +0.076 C 
BRANCH  24  25
ATOM     25  N   UNL     1      33.765 -41.444 -31.131  0.00  0.00    -0.290 N 
ATOM     26  C   UNL     1      34.173 -40.491 -32.184  0.00  0.00    +0.023 C 
ATOM     27  C   UNL     1      34.440 -41.205 -33.519  0.00  0.00    +0.060 C 
ATOM     28  O   UNL     1      33.282 -41.928 -33.958  0.00  0.00    -0.377 OA
ATOM     29  C   UNL     1      32.914 -42.900 -32.970  0.00  0.00    +0.060 C 
ATOM     30  C   UNL     1      32.607 -42.228 -31.622  0.00  0.00    +0.023 C 
ATOM     31  H   UNL     1      34.533 -42.082 -30.921  0.00  0.00    +0.000 HD
ENDBRANCH  24  25
ENDBRANCH  17  24
TORSDOF 4
ENDMDL
MODEL 5
REMARK VINA RESULT:    -7.216     20.372     24.830
REMARK INTER + INTRA:          -9.087
REMARK INTER:                  -8.542
REMARK INTRA:                  -0.545
REMARK UNBOUND:                -0.394
REMARK  Name = cpd317.pdb
REMARK  5 active torsions:
REMARK  status: ('A' for Active; 'I' for Inactive)
REMARK    1  A    between atoms: C_1  and  O_2
REMARK    2  A    between atoms: O_2  and  C_3
REMARK    3  A    between atoms: C_12  and  O_13
REMARK    4  A    between atoms: C_20  and  C_22
REMARK    5  A    between atoms: C_22  and  N_23
REMARK                            x       y       z     vdW  Elec       q    Type
REMARK                         _______ _______ _______ _____ _____    ______ ____
ROOT
ATOM      1  C   UNL     1      42.468 -20.565 -39.043  0.00  0.00    +0.162 A 
ATOM      2  C   UNL     1      42.656 -19.865 -37.849  0.00  0.00    -0.016 A 
ATOM      3  C   UNL     1      43.945 -19.465 -37.440  0.00  0.00    -0.053 A 
ATOM      4  C   UNL     1      45.084 -19.801 -38.187  0.00  0.00    -0.022 A 
ATOM      5  C   UNL     1      44.902 -20.597 -39.306  0.00  0.00    +0.016 A 
ATOM      6  C   UNL     1      43.608 -20.895 -39.759  0.00  0.00    +0.167 A 
ATOM      7  O   UNL     1      43.606 -21.427 -41.043  0.00  0.00    -0.484 OA
ATOM      8  C   UNL     1      44.944 -21.929 -41.114  0.00  0.00    +0.116 C 
ATOM      9  C   UNL     1      45.473 -22.263 -42.500  0.00  0.00    +0.015 C 
ATOM     10  C   UNL     1      46.875 -22.896 -42.351  0.00  0.00    +0.077 C 
ATOM     11  C   UNL     1      47.591 -22.595 -41.050  0.00  0.00    -0.059 C 
ATOM     12  C   UNL     1      47.137 -21.737 -40.113  0.00  0.00    -0.071 C 
ATOM     13  C   UNL     1      45.887 -20.938 -40.376  0.00  0.00    +0.056 C 
ATOM     14  C   UNL     1      46.240 -19.598 -41.062  0.00  0.00    -0.020 C 
ATOM     15  C   UNL     1      47.232 -18.713 -40.269  0.00  0.00    +0.016 C 
ATOM     16  N   UNL     1      46.789 -18.204 -38.956  0.00  0.00    -0.296 N 
ATOM     17  C   UNL     1      46.841 -16.858 -38.566  0.00  0.00    +0.230 C 
ATOM     18  O   UNL     1      46.382 -16.493 -37.480  0.00  0.00    -0.274 OA
ATOM     19  C   UNL     1      46.421 -19.176 -37.915  0.00  0.00    +0.040 C 
ENDROOT
BRANCH   1  21
ATOM     20  C   UNL     1      40.477 -21.836 -38.825  0.00  0.00    +0.079 C 
ATOM     21  O   UNL     1      41.272 -20.935 -39.583  0.00  0.00    -0.491 OA
ENDBRANCH   1  21
BRANCH  10  22
ATOM     22  O   UNL     1      46.749 -24.315 -42.390  0.00  0.00    -0.388 OA
ATOM     23  H   UNL     1      46.047 -24.594 -41.781  0.00  0.00    +0.000 HD
ENDBRANCH  10  22
BRANCH  17  24
ATOM     24  C   UNL     1      47.511 -15.864 -39.541  0.00  0.00    +0.076 C 
BRANCH  24  25
ATOM     25  N   UNL     1      46.576 -14.828 -40.040  0.00  0.00    -0.290 N 
ATOM     26  C   UNL     1      45.571 -15.431 -40.940  0.00  0.00    +0.023 C 
ATOM     27  C   UNL     1      44.637 -14.366 -41.537  0.00  0.00    +0.060 C 
ATOM     28  O   UNL     1      45.381 -13.373 -42.257  0.00  0.00    -0.377 OA
ATOM     29  C   UNL     1      46.317 -12.737 -41.376  0.00  0.00    +0.060 C 
ATOM     30  C   UNL     1      47.294 -13.761 -40.776  0.00  0.00    +0.023 C 
ATOM     31  H   UNL     1      46.115 -14.419 -39.227  0.00  0.00    +0.000 HD
ENDBRANCH  24  25
ENDBRANCH  17  24
TORSDOF 4
ENDMDL
MODEL 6
REMARK VINA RESULT:    -7.153     18.271     22.354
REMARK INTER + INTRA:          -9.010
REMARK INTER:                  -8.587
REMARK INTRA:                  -0.423
REMARK UNBOUND:                -0.394
REMARK  Name = cpd317.pdb
REMARK  5 active torsions:
REMARK  status: ('A' for Active; 'I' for Inactive)
REMARK    1  A    between atoms: C_1  and  O_2
REMARK    2  A    between atoms: O_2  and  C_3
REMARK    3  A    between atoms: C_12  and  O_13
REMARK    4  A    between atoms: C_20  and  C_22
REMARK    5  A    between atoms: C_22  and  N_23
REMARK                            x       y       z     vdW  Elec       q    Type
REMARK                         _______ _______ _______ _____ _____    ______ ____
ROOT
ATOM      1  C   UNL     1      45.884 -16.741 -40.743  0.00  0.00    +0.162 A 
ATOM      2  C   UNL     1      44.582 -16.272 -40.557  0.00  0.00    -0.016 A 
ATOM      3  C   UNL     1      43.512 -17.169 -40.358  0.00  0.00    -0.053 A 
ATOM      4  C   UNL     1      43.707 -18.558 -40.393  0.00  0.00    -0.022 A 
ATOM      5  C   UNL     1      44.978 -19.016 -40.697  0.00  0.00    +0.016 A 
ATOM      6  C   UNL     1      46.052 -18.117 -40.785  0.00  0.00    +0.167 A 
ATOM      7  O   UNL     1      47.283 -18.761 -40.784  0.00  0.00    -0.484 OA
ATOM      8  C   UNL     1      46.892 -20.062 -41.234  0.00  0.00    +0.116 C 
ATOM      9  C   UNL     1      47.892 -21.187 -41.016  0.00  0.00    +0.015 C 
ATOM     10  C   UNL     1      47.336 -22.471 -41.673  0.00  0.00    +0.077 C 
ATOM     11  C   UNL     1      45.838 -22.490 -41.901  0.00  0.00    -0.059 C 
ATOM     12  C   UNL     1      44.990 -21.537 -41.463  0.00  0.00    -0.071 C 
ATOM     13  C   UNL     1      45.511 -20.409 -40.612  0.00  0.00    +0.056 C 
ATOM     14  C   UNL     1      45.445 -20.791 -39.114  0.00  0.00    -0.020 C 
ATOM     15  C   UNL     1      44.032 -21.175 -38.612  0.00  0.00    +0.016 C 
ATOM     16  N   UNL     1      42.993 -20.128 -38.641  0.00  0.00    -0.296 N 
ATOM     17  C   UNL     1      42.187 -19.776 -37.548  0.00  0.00    +0.230 C 
ATOM     18  O   UNL     1      41.389 -18.838 -37.623  0.00  0.00    -0.274 OA
ATOM     19  C   UNL     1      42.648 -19.517 -39.934  0.00  0.00    +0.040 C 
ENDROOT
BRANCH   1  21
ATOM     20  C   UNL     1      47.428 -15.264 -39.713  0.00  0.00    +0.079 C 
ATOM     21  O   UNL     1      47.008 -15.979 -40.866  0.00  0.00    -0.491 OA
ENDBRANCH   1  21
BRANCH  10  22
ATOM     22  O   UNL     1      47.915 -22.617 -42.967  0.00  0.00    -0.388 OA
ATOM     23  H   UNL     1      48.119 -21.741 -43.331  0.00  0.00    +0.000 HD
ENDBRANCH  10  22
BRANCH  17  24
ATOM     24  C   UNL     1      42.329 -20.623 -36.263  0.00  0.00    +0.076 C 
BRANCH  24  25
ATOM     25  N   UNL     1      41.047 -21.223 -35.823  0.00  0.00    -0.290 N 
ATOM     26  C   UNL     1      41.139 -21.660 -34.415  0.00  0.00    +0.023 C 
ATOM     27  C   UNL     1      39.849 -22.360 -33.957  0.00  0.00    +0.060 C 
ATOM     28  O   UNL     1      39.555 -23.493 -34.785  0.00  0.00    -0.377 OA
ATOM     29  C   UNL     1      39.402 -23.070 -36.147  0.00  0.00    +0.060 C 
ATOM     30  C   UNL     1      40.681 -22.389 -36.661  0.00  0.00    +0.023 C 
ATOM     31  H   UNL     1      40.328 -20.505 -35.921  0.00  0.00    +0.000 HD
ENDBRANCH  24  25
ENDBRANCH  17  24
TORSDOF 4
ENDMDL
MODEL 7
REMARK VINA RESULT:    -7.034     22.101     24.347
REMARK INTER + INTRA:          -8.867
REMARK INTER:                  -8.327
REMARK INTRA:                  -0.540
REMARK UNBOUND:                -0.394
REMARK  Name = cpd317.pdb
REMARK  5 active torsions:
REMARK  status: ('A' for Active; 'I' for Inactive)
REMARK    1  A    between atoms: C_1  and  O_2
REMARK    2  A    between atoms: O_2  and  C_3
REMARK    3  A    between atoms: C_12  and  O_13
REMARK    4  A    between atoms: C_20  and  C_22
REMARK    5  A    between atoms: C_22  and  N_23
REMARK                            x       y       z     vdW  Elec       q    Type
REMARK                         _______ _______ _______ _____ _____    ______ ____
ROOT
ATOM      1  C   UNL     1      46.722 -18.052 -35.584  0.00  0.00    +0.162 A 
ATOM      2  C   UNL     1      45.681 -18.974 -35.450  0.00  0.00    -0.016 A 
ATOM      3  C   UNL     1      44.740 -19.157 -36.484  0.00  0.00    -0.053 A 
ATOM      4  C   UNL     1      44.783 -18.387 -37.655  0.00  0.00    -0.022 A 
ATOM      5  C   UNL     1      45.746 -17.393 -37.730  0.00  0.00    +0.016 A 
ATOM      6  C   UNL     1      46.739 -17.295 -36.745  0.00  0.00    +0.167 A 
ATOM      7  O   UNL     1      47.785 -16.464 -37.129  0.00  0.00    -0.484 OA
ATOM      8  C   UNL     1      47.128 -15.667 -38.119  0.00  0.00    +0.116 C 
ATOM      9  C   UNL     1      48.025 -14.873 -39.057  0.00  0.00    +0.015 C 
ATOM     10  C   UNL     1      47.131 -13.994 -39.962  0.00  0.00    +0.077 C 
ATOM     11  C   UNL     1      45.691 -14.449 -40.095  0.00  0.00    -0.059 C 
ATOM     12  C   UNL     1      45.207 -15.600 -39.585  0.00  0.00    -0.071 C 
ATOM     13  C   UNL     1      46.143 -16.569 -38.911  0.00  0.00    +0.056 C 
ATOM     14  C   UNL     1      46.717 -17.568 -39.944  0.00  0.00    -0.020 C 
ATOM     15  C   UNL     1      45.647 -18.375 -40.719  0.00  0.00    +0.016 C 
ATOM     16  N   UNL     1      44.793 -19.293 -39.941  0.00  0.00    -0.296 N 
ATOM     17  C   UNL     1      44.587 -20.645 -40.253  0.00  0.00    +0.230 C 
ATOM     18  O   UNL     1      43.919 -21.374 -39.514  0.00  0.00    -0.274 OA
ATOM     19  C   UNL     1      43.963 -18.736 -38.863  0.00  0.00    +0.040 C 
ENDROOT
BRANCH   1  21
ATOM     20  C   UNL     1      48.854 -18.709 -34.779  0.00  0.00    +0.079 C 
ATOM     21  O   UNL     1      47.733 -17.840 -34.695  0.00  0.00    -0.491 OA
ENDBRANCH   1  21
BRANCH  10  22
ATOM     22  O   UNL     1      47.062 -12.682 -39.411  0.00  0.00    -0.388 OA
ATOM     23  H   UNL     1      46.787 -12.056 -40.099  0.00  0.00    +0.000 HD
ENDBRANCH  10  22
BRANCH  17  24
ATOM     24  C   UNL     1      45.214 -21.172 -41.565  0.00  0.00    +0.076 C 
BRANCH  24  25
ATOM     25  N   UNL     1      46.179 -22.274 -41.340  0.00  0.00    -0.290 N 
ATOM     26  C   UNL     1      47.379 -21.773 -40.639  0.00  0.00    +0.023 C 
ATOM     27  C   UNL     1      48.433 -22.879 -40.464  0.00  0.00    +0.060 C 
ATOM     28  O   UNL     1      48.819 -23.427 -41.732  0.00  0.00    -0.377 OA
ATOM     29  C   UNL     1      47.671 -23.972 -42.395  0.00  0.00    +0.060 C 
ATOM     30  C   UNL     1      46.598 -22.894 -42.618  0.00  0.00    +0.023 C 
ATOM     31  H   UNL     1      45.708 -22.976 -40.769  0.00  0.00    +0.000 HD
ENDBRANCH  24  25
ENDBRANCH  17  24
TORSDOF 4
ENDMDL
MODEL 8
REMARK VINA RESULT:    -6.969      3.009      7.137
REMARK INTER + INTRA:          -8.789
REMARK INTER:                  -8.371
REMARK INTRA:                  -0.418
REMARK UNBOUND:                -0.394
REMARK  Name = cpd317.pdb
REMARK  5 active torsions:
REMARK  status: ('A' for Active; 'I' for Inactive)
REMARK    1  A    between atoms: C_1  and  O_2
REMARK    2  A    between atoms: O_2  and  C_3
REMARK    3  A    between atoms: C_12  and  O_13
REMARK    4  A    between atoms: C_20  and  C_22
REMARK    5  A    between atoms: C_22  and  N_23
REMARK                            x       y       z     vdW  Elec       q    Type
REMARK                         _______ _______ _______ _____ _____    ______ ____
ROOT
ATOM      1  C   UNL     1      38.305 -37.929 -29.014  0.00  0.00    +0.162 A 
ATOM      2  C   UNL     1      38.691 -36.929 -29.910  0.00  0.00    -0.016 A 
ATOM      3  C   UNL     1      37.743 -36.301 -30.744  0.00  0.00    -0.053 A 
ATOM      4  C   UNL     1      36.396 -36.693 -30.741  0.00  0.00    -0.022 A 
ATOM      5  C   UNL     1      36.044 -37.764 -29.937  0.00  0.00    +0.016 A 
ATOM      6  C   UNL     1      36.972 -38.307 -29.036  0.00  0.00    +0.167 A 
ATOM      7  O   UNL     1      36.375 -39.148 -28.104  0.00  0.00    -0.484 OA
ATOM      8  C   UNL     1      35.182 -39.504 -28.809  0.00  0.00    +0.116 C 
ATOM      9  C   UNL     1      34.064 -40.124 -27.984  0.00  0.00    +0.015 C 
ATOM     10  C   UNL     1      32.924 -40.543 -28.939  0.00  0.00    +0.077 C 
ATOM     11  C   UNL     1      32.908 -39.841 -30.283  0.00  0.00    -0.059 C 
ATOM     12  C   UNL     1      33.730 -38.825 -30.619  0.00  0.00    -0.071 C 
ATOM     13  C   UNL     1      34.678 -38.261 -29.594  0.00  0.00    +0.056 C 
ATOM     14  C   UNL     1      34.001 -37.112 -28.810  0.00  0.00    -0.020 C 
ATOM     15  C   UNL     1      33.483 -35.951 -29.693  0.00  0.00    +0.016 C 
ATOM     16  N   UNL     1      34.485 -35.173 -30.448  0.00  0.00    -0.296 N 
ATOM     17  C   UNL     1      34.587 -33.774 -30.426  0.00  0.00    +0.230 C 
ATOM     18  O   UNL     1      35.498 -33.194 -31.023  0.00  0.00    -0.274 OA
ATOM     19  C   UNL     1      35.334 -35.877 -31.420  0.00  0.00    +0.040 C 
ENDROOT
BRANCH   1  21
ATOM     20  C   UNL     1      40.509 -38.482 -28.331  0.00  0.00    +0.079 C 
ATOM     21  O   UNL     1      39.108 -38.553 -28.105  0.00  0.00    -0.491 OA
ENDBRANCH   1  21
BRANCH  10  22
ATOM     22  O   UNL     1      33.057 -41.929 -29.242  0.00  0.00    -0.388 OA
ATOM     23  H   UNL     1      33.565 -42.366 -28.540  0.00  0.00    +0.000 HD
ENDBRANCH  10  22
BRANCH  17  24
ATOM     24  C   UNL     1      33.503 -32.998 -29.644  0.00  0.00    +0.076 C 
BRANCH  24  25
ATOM     25  N   UNL     1      32.540 -32.303 -30.530  0.00  0.00    -0.290 N 
ATOM     26  C   UNL     1      32.024 -31.083 -29.875  0.00  0.00    +0.023 C 
ATOM     27  C   UNL     1      30.961 -30.385 -30.739  0.00  0.00    +0.060 C 
ATOM     28  O   UNL     1      29.867 -31.267 -31.023  0.00  0.00    -0.377 OA
ATOM     29  C   UNL     1      30.348 -32.428 -31.715  0.00  0.00    +0.060 C 
ATOM     30  C   UNL     1      31.395 -33.177 -30.875  0.00  0.00    +0.023 C 
ATOM     31  H   UNL     1      33.039 -32.056 -31.385  0.00  0.00    +0.000 HD
ENDBRANCH  24  25
ENDBRANCH  17  24
TORSDOF 4
ENDMDL
MODEL 9
REMARK VINA RESULT:    -6.857     18.518     22.614
REMARK INTER + INTRA:          -8.654
REMARK INTER:                  -8.397
REMARK INTRA:                  -0.258
REMARK UNBOUND:                -0.394
REMARK  Name = cpd317.pdb
REMARK  5 active torsions:
REMARK  status: ('A' for Active; 'I' for Inactive)
REMARK    1  A    between atoms: C_1  and  O_2
REMARK    2  A    between atoms: O_2  and  C_3
REMARK    3  A    between atoms: C_12  and  O_13
REMARK    4  A    between atoms: C_20  and  C_22
REMARK    5  A    between atoms: C_22  and  N_23
REMARK                            x       y       z     vdW  Elec       q    Type
REMARK                         _______ _______ _______ _____ _____    ______ ____
ROOT
ATOM      1  C   UNL     1      39.906 -17.212 -39.500  0.00  0.00    +0.162 A 
ATOM      2  C   UNL     1      41.009 -16.418 -39.823  0.00  0.00    -0.016 A 
ATOM      3  C   UNL     1      42.321 -16.922 -39.706  0.00  0.00    -0.053 A 
ATOM      4  C   UNL     1      42.566 -18.213 -39.214  0.00  0.00    -0.022 A 
ATOM      5  C   UNL     1      41.475 -18.950 -38.785  0.00  0.00    +0.016 A 
ATOM      6  C   UNL     1      40.172 -18.480 -39.007  0.00  0.00    +0.167 A 
ATOM      7  O   UNL     1      39.212 -19.464 -38.804  0.00  0.00    -0.484 OA
ATOM      8  C   UNL     1      39.935 -20.352 -37.945  0.00  0.00    +0.116 C 
ATOM      9  C   UNL     1      39.368 -21.754 -37.786  0.00  0.00    +0.015 C 
ATOM     10  C   UNL     1      40.216 -22.510 -36.737  0.00  0.00    +0.077 C 
ATOM     11  C   UNL     1      41.608 -21.957 -36.505  0.00  0.00    -0.059 C 
ATOM     12  C   UNL     1      42.162 -20.961 -37.227  0.00  0.00    -0.071 C 
ATOM     13  C   UNL     1      41.418 -20.394 -38.407  0.00  0.00    +0.056 C 
ATOM     14  C   UNL     1      41.773 -21.176 -39.694  0.00  0.00    -0.020 C 
ATOM     15  C   UNL     1      43.284 -21.204 -40.031  0.00  0.00    +0.016 C 
ATOM     16  N   UNL     1      43.934 -19.916 -40.342  0.00  0.00    -0.296 N 
ATOM     17  C   UNL     1      44.711 -19.674 -41.484  0.00  0.00    +0.230 C 
ATOM     18  O   UNL     1      45.163 -18.549 -41.719  0.00  0.00    -0.274 OA
ATOM     19  C   UNL     1      43.918 -18.857 -39.322  0.00  0.00    +0.040 C 
ENDROOT
BRANCH   1  21
ATOM     20  C   UNL     1      38.018 -16.087 -38.609  0.00  0.00    +0.079 C 
ATOM     21  O   UNL     1      38.595 -16.869 -39.645  0.00  0.00    -0.491 OA
ENDBRANCH   1  21
BRANCH  10  22
ATOM     22  O   UNL     1      39.565 -22.431 -35.471  0.00  0.00    -0.388 OA
ATOM     23  H   UNL     1      39.510 -23.318 -35.081  0.00  0.00    +0.000 HD
ENDBRANCH  10  22
BRANCH  17  24
ATOM     24  C   UNL     1      44.991 -20.873 -42.418  0.00  0.00    +0.076 C 
BRANCH  24  25
ATOM     25  N   UNL     1      45.944 -21.848 -41.834  0.00  0.00    -0.290 N 
ATOM     26  C   UNL     1      47.182 -21.165 -41.405  0.00  0.00    +0.023 C 
ATOM     27  C   UNL     1      48.220 -22.164 -40.870  0.00  0.00    +0.060 C 
ATOM     28  O   UNL     1      48.543 -23.151 -41.858  0.00  0.00    -0.377 OA
ATOM     29  C   UNL     1      47.357 -23.863 -42.236  0.00  0.00    +0.060 C 
ATOM     30  C   UNL     1      46.297 -22.907 -42.807  0.00  0.00    +0.023 C 
ATOM     31  H   UNL     1      45.484 -22.275 -41.029  0.00  0.00    +0.000 HD
ENDBRANCH  24  25
ENDBRANCH  17  24
TORSDOF 4
ENDMDL
MODEL 10
REMARK VINA RESULT:    -6.762     17.415     21.351
REMARK INTER + INTRA:          -8.540
REMARK INTER:                  -8.157
REMARK INTRA:                  -0.383
REMARK UNBOUND:                -0.394
REMARK  Name = cpd317.pdb
REMARK  5 active torsions:
REMARK  status: ('A' for Active; 'I' for Inactive)
REMARK    1  A    between atoms: C_1  and  O_2
REMARK    2  A    between atoms: O_2  and  C_3
REMARK    3  A    between atoms: C_12  and  O_13
REMARK    4  A    between atoms: C_20  and  C_22
REMARK    5  A    between atoms: C_22  and  N_23
REMARK                            x       y       z     vdW  Elec       q    Type
REMARK                         _______ _______ _______ _____ _____    ______ ____
ROOT
ATOM      1  C   UNL     1      46.829 -18.615 -36.610  0.00  0.00    +0.162 A 
ATOM      2  C   UNL     1      46.017 -17.688 -35.954  0.00  0.00    -0.016 A 
ATOM      3  C   UNL     1      44.682 -17.481 -36.360  0.00  0.00    -0.053 A 
ATOM      4  C   UNL     1      44.142 -18.157 -37.465  0.00  0.00    -0.022 A 
ATOM      5  C   UNL     1      44.989 -18.985 -38.182  0.00  0.00    +0.016 A 
ATOM      6  C   UNL     1      46.278 -19.263 -37.705  0.00  0.00    +0.167 A 
ATOM      7  O   UNL     1      46.868 -20.336 -38.365  0.00  0.00    -0.484 OA
ATOM      8  C   UNL     1      46.119 -20.328 -39.584  0.00  0.00    +0.116 C 
ATOM      9  C   UNL     1      46.199 -21.583 -40.439  0.00  0.00    +0.015 C 
ATOM     10  C   UNL     1      45.427 -21.330 -41.755  0.00  0.00    +0.077 C 
ATOM     11  C   UNL     1      44.405 -20.212 -41.706  0.00  0.00    -0.059 C 
ATOM     12  C   UNL     1      44.064 -19.542 -40.586  0.00  0.00    -0.071 C 
ATOM     13  C   UNL     1      44.644 -19.960 -39.261  0.00  0.00    +0.056 C 
ATOM     14  C   UNL     1      43.743 -21.023 -38.590  0.00  0.00    -0.020 C 
ATOM     15  C   UNL     1      42.279 -20.575 -38.366  0.00  0.00    +0.016 C 
ATOM     16  N   UNL     1      42.048 -19.445 -37.445  0.00  0.00    -0.296 N 
ATOM     17  C   UNL     1      41.146 -19.466 -36.371  0.00  0.00    +0.230 C 
ATOM     18  O   UNL     1      41.059 -18.510 -35.595  0.00  0.00    -0.274 OA
ATOM     19  C   UNL     1      42.669 -18.149 -37.755  0.00  0.00    +0.040 C 
ENDROOT
BRANCH   1  21
ATOM     20  C   UNL     1      48.412 -18.969 -34.879  0.00  0.00    +0.079 C 
ATOM     21  O   UNL     1      48.102 -18.960 -36.265  0.00  0.00    -0.491 OA
ENDBRANCH   1  21
BRANCH  10  22
ATOM     22  O   UNL     1      46.353 -20.948 -42.768  0.00  0.00    -0.388 OA
ATOM     23  H   UNL     1      45.918 -20.350 -43.396  0.00  0.00    +0.000 HD
ENDBRANCH  10  22
BRANCH  17  24
ATOM     24  C   UNL     1      40.258 -20.722 -36.217  0.00  0.00    +0.076 C 
BRANCH  24  25
ATOM     25  N   UNL     1      40.157 -21.187 -34.814  0.00  0.00    -0.290 N 
ATOM     26  C   UNL     1      40.446 -22.633 -34.728  0.00  0.00    +0.023 C 
ATOM     27  C   UNL     1      40.269 -23.160 -33.295  0.00  0.00    +0.060 C 
ATOM     28  O   UNL     1      38.940 -22.915 -32.816  0.00  0.00    -0.377 OA
ATOM     29  C   UNL     1      38.670 -21.506 -32.836  0.00  0.00    +0.060 C 
ATOM     30  C   UNL     1      38.806 -20.938 -34.258  0.00  0.00    +0.023 C 
ATOM     31  H   UNL     1      40.841 -20.661 -34.271  0.00  0.00    +0.000 HD
ENDBRANCH  24  25
ENDBRANCH  17  24
TORSDOF 4
ENDMDL
MODEL 11
REMARK VINA RESULT:    -6.741     19.986     23.416
REMARK INTER + INTRA:          -8.515
REMARK INTER:                  -7.989
REMARK INTRA:                  -0.525
REMARK UNBOUND:                -0.394
REMARK  Name = cpd317.pdb
REMARK  5 active torsions:
REMARK  status: ('A' for Active; 'I' for Inactive)
REMARK    1  A    between atoms: C_1  and  O_2
REMARK    2  A    between atoms: O_2  and  C_3
REMARK    3  A    between atoms: C_12  and  O_13
REMARK    4  A    between atoms: C_20  and  C_22
REMARK    5  A    between atoms: C_22  and  N_23
REMARK                            x       y       z     vdW  Elec       q    Type
REMARK                         _______ _______ _______ _____ _____    ______ ____
ROOT
ATOM      1  C   UNL     1      45.465 -20.562 -40.845  0.00  0.00    +0.162 A 
ATOM      2  C   UNL     1      46.145 -21.449 -40.007  0.00  0.00    -0.016 A 
ATOM      3  C   UNL     1      46.844 -20.982 -38.874  0.00  0.00    -0.053 A 
ATOM      4  C   UNL     1      46.925 -19.613 -38.580  0.00  0.00    -0.022 A 
ATOM      5  C   UNL     1      46.348 -18.732 -39.480  0.00  0.00    +0.016 A 
ATOM      6  C   UNL     1      45.567 -19.214 -40.541  0.00  0.00    +0.167 A 
ATOM      7  O   UNL     1      44.822 -18.210 -41.148  0.00  0.00    -0.484 OA
ATOM      8  C   UNL     1      45.588 -17.061 -40.774  0.00  0.00    +0.116 C 
ATOM      9  C   UNL     1      44.907 -15.710 -40.927  0.00  0.00    +0.015 C 
ATOM     10  C   UNL     1      45.931 -14.603 -40.589  0.00  0.00    +0.077 C 
ATOM     11  C   UNL     1      47.110 -15.042 -39.744  0.00  0.00    -0.059 C 
ATOM     12  C   UNL     1      47.237 -16.267 -39.193  0.00  0.00    -0.071 C 
ATOM     13  C   UNL     1      46.116 -17.264 -39.327  0.00  0.00    +0.056 C 
ATOM     14  C   UNL     1      45.125 -17.120 -38.148  0.00  0.00    -0.020 C 
ATOM     15  C   UNL     1      45.765 -17.283 -36.748  0.00  0.00    +0.016 C 
ATOM     16  N   UNL     1      46.347 -18.598 -36.416  0.00  0.00    -0.296 N 
ATOM     17  C   UNL     1      46.050 -19.330 -35.257  0.00  0.00    +0.230 C 
ATOM     18  O   UNL     1      46.517 -20.458 -35.080  0.00  0.00    -0.274 OA
ATOM     19  C   UNL     1      47.435 -19.117 -37.258  0.00  0.00    +0.040 C 
ENDROOT
BRANCH   1  21
ATOM     20  C   UNL     1      45.133 -21.990 -42.709  0.00  0.00    +0.079 C 
ATOM     21  O   UNL     1      44.693 -20.896 -41.918  0.00  0.00    -0.491 OA
ENDBRANCH   1  21
BRANCH  10  22
ATOM     22  O   UNL     1      46.499 -14.112 -41.800  0.00  0.00    -0.388 OA
ATOM     23  H   UNL     1      45.957 -13.383 -42.140  0.00  0.00    +0.000 HD
ENDBRANCH  10  22
BRANCH  17  24
ATOM     24  C   UNL     1      45.135 -18.655 -34.209  0.00  0.00    +0.076 C 
BRANCH  24  25
ATOM     25  N   UNL     1      43.915 -19.444 -33.916  0.00  0.00    -0.290 N 
ATOM     26  C   UNL     1      43.076 -19.562 -35.127  0.00  0.00    +0.023 C 
ATOM     27  C   UNL     1      41.763 -20.307 -34.832  0.00  0.00    +0.060 C 
ATOM     28  O   UNL     1      41.017 -19.647 -33.801  0.00  0.00    -0.377 OA
ATOM     29  C   UNL     1      41.800 -19.582 -32.601  0.00  0.00    +0.060 C 
ATOM     30  C   UNL     1      43.113 -18.818 -32.840  0.00  0.00    +0.023 C 
ATOM     31  H   UNL     1      44.219 -20.368 -33.610  0.00  0.00    +0.000 HD
ENDBRANCH  24  25
ENDBRANCH  17  24
TORSDOF 4
ENDMDL
MODEL 12
REMARK VINA RESULT:    -6.716     16.156     20.095
REMARK INTER + INTRA:          -8.484
REMARK INTER:                  -7.954
REMARK INTRA:                  -0.530
REMARK UNBOUND:                -0.394
REMARK  Name = cpd317.pdb
REMARK  5 active torsions:
REMARK  status: ('A' for Active; 'I' for Inactive)
REMARK    1  A    between atoms: C_1  and  O_2
REMARK    2  A    between atoms: O_2  and  C_3
REMARK    3  A    between atoms: C_12  and  O_13
REMARK    4  A    between atoms: C_20  and  C_22
REMARK    5  A    between atoms: C_22  and  N_23
REMARK                            x       y       z     vdW  Elec       q    Type
REMARK                         _______ _______ _______ _____ _____    ______ ____
ROOT
ATOM      1  C   UNL     1      39.183 -23.549 -34.378  0.00  0.00    +0.162 A 
ATOM      2  C   UNL     1      39.759 -23.310 -33.129  0.00  0.00    -0.016 A 
ATOM      3  C   UNL     1      40.622 -22.213 -32.928  0.00  0.00    -0.053 A 
ATOM      4  C   UNL     1      40.973 -21.358 -33.984  0.00  0.00    -0.022 A 
ATOM      5  C   UNL     1      40.492 -21.670 -35.245  0.00  0.00    +0.016 A 
ATOM      6  C   UNL     1      39.551 -22.698 -35.408  0.00  0.00    +0.167 A 
ATOM      7  O   UNL     1      38.951 -22.672 -36.662  0.00  0.00    -0.484 OA
ATOM      8  C   UNL     1      39.940 -21.951 -37.403  0.00  0.00    +0.116 C 
ATOM      9  C   UNL     1      39.502 -21.379 -38.743  0.00  0.00    +0.015 C 
ATOM     10  C   UNL     1      40.734 -20.749 -39.434  0.00  0.00    +0.077 C 
ATOM     11  C   UNL     1      41.880 -20.383 -38.513  0.00  0.00    -0.059 C 
ATOM     12  C   UNL     1      41.830 -20.462 -37.167  0.00  0.00    -0.071 C 
ATOM     13  C   UNL     1      40.540 -20.847 -36.490  0.00  0.00    +0.056 C 
ATOM     14  C   UNL     1      39.693 -19.587 -36.191  0.00  0.00    -0.020 C 
ATOM     15  C   UNL     1      40.408 -18.525 -35.321  0.00  0.00    +0.016 C 
ATOM     16  N   UNL     1      40.769 -18.908 -33.942  0.00  0.00    -0.296 N 
ATOM     17  C   UNL     1      40.443 -18.163 -32.799  0.00  0.00    +0.230 C 
ATOM     18  O   UNL     1      40.712 -18.582 -31.670  0.00  0.00    -0.274 OA
ATOM     19  C   UNL     1      41.672 -20.051 -33.745  0.00  0.00    +0.040 C 
ENDROOT
BRANCH   1  21
ATOM     20  C   UNL     1      37.591 -25.118 -33.585  0.00  0.00    +0.079 C 
ATOM     21  O   UNL     1      38.277 -24.523 -34.677  0.00  0.00    -0.491 OA
ENDBRANCH   1  21
BRANCH  10  22
ATOM     22  O   UNL     1      41.278 -21.689 -40.357  0.00  0.00    -0.388 OA
ATOM     23  H   UNL     1      40.735 -22.492 -40.358  0.00  0.00    +0.000 HD
ENDBRANCH  10  22
BRANCH  17  24
ATOM     24  C   UNL     1      39.755 -16.796 -33.017  0.00  0.00    +0.076 C 
BRANCH  24  25
ATOM     25  N   UNL     1      38.453 -16.688 -32.317  0.00  0.00    -0.290 N 
ATOM     26  C   UNL     1      37.478 -17.638 -32.892  0.00  0.00    +0.023 C 
ATOM     27  C   UNL     1      36.094 -17.491 -32.238  0.00  0.00    +0.060 C 
ATOM     28  O   UNL     1      35.596 -16.154 -32.383  0.00  0.00    -0.377 OA
ATOM     29  C   UNL     1      36.505 -15.228 -31.773  0.00  0.00    +0.060 C 
ATOM     30  C   UNL     1      37.899 -15.318 -32.415  0.00  0.00    +0.023 C 
ATOM     31  H   UNL     1      38.619 -16.910 -31.335  0.00  0.00    +0.000 HD
ENDBRANCH  24  25
ENDBRANCH  17  24
TORSDOF 4
ENDMDL
MODEL 13
REMARK VINA RESULT:    -6.711     19.911     23.277
REMARK INTER + INTRA:          -8.479
REMARK INTER:                  -8.120
REMARK INTRA:                  -0.359
REMARK UNBOUND:                -0.394
REMARK  Name = cpd317.pdb
REMARK  5 active torsions:
REMARK  status: ('A' for Active; 'I' for Inactive)
REMARK    1  A    between atoms: C_1  and  O_2
REMARK    2  A    between atoms: O_2  and  C_3
REMARK    3  A    between atoms: C_12  and  O_13
REMARK    4  A    between atoms: C_20  and  C_22
REMARK    5  A    between atoms: C_22  and  N_23
REMARK                            x       y       z     vdW  Elec       q    Type
REMARK                         _______ _______ _______ _____ _____    ______ ____
ROOT
ATOM      1  C   UNL     1      45.202 -21.101 -41.336  0.00  0.00    +0.162 A 
ATOM      2  C   UNL     1      45.710 -19.942 -41.927  0.00  0.00    -0.016 A 
ATOM      3  C   UNL     1      45.177 -18.675 -41.612  0.00  0.00    -0.053 A 
ATOM      4  C   UNL     1      44.087 -18.539 -40.739  0.00  0.00    -0.022 A 
ATOM      5  C   UNL     1      43.513 -19.700 -40.249  0.00  0.00    +0.016 A 
ATOM      6  C   UNL     1      44.119 -20.943 -40.484  0.00  0.00    +0.167 A 
ATOM      7  O   UNL     1      43.599 -21.947 -39.676  0.00  0.00    -0.484 OA
ATOM      8  C   UNL     1      42.324 -21.383 -39.357  0.00  0.00    +0.116 C 
ATOM      9  C   UNL     1      41.581 -22.003 -38.183  0.00  0.00    +0.015 C 
ATOM     10  C   UNL     1      40.188 -21.340 -38.079  0.00  0.00    +0.077 C 
ATOM     11  C   UNL     1      40.060 -19.984 -38.745  0.00  0.00    -0.059 C 
ATOM     12  C   UNL     1      41.091 -19.305 -39.290  0.00  0.00    -0.071 C 
ATOM     13  C   UNL     1      42.490 -19.850 -39.171  0.00  0.00    +0.056 C 
ATOM     14  C   UNL     1      43.163 -19.326 -37.881  0.00  0.00    -0.020 C 
ATOM     15  C   UNL     1      43.225 -17.783 -37.770  0.00  0.00    +0.016 C 
ATOM     16  N   UNL     1      44.030 -17.062 -38.774  0.00  0.00    -0.296 N 
ATOM     17  C   UNL     1      45.021 -16.117 -38.470  0.00  0.00    +0.230 C 
ATOM     18  O   UNL     1      45.709 -15.607 -39.359  0.00  0.00    -0.274 OA
ATOM     19  C   UNL     1      43.673 -17.203 -40.194  0.00  0.00    +0.040 C 
ENDROOT
BRANCH   1  21
ATOM     20  C   UNL     1      46.887 -22.689 -40.819  0.00  0.00    +0.079 C 
ATOM     21  O   UNL     1      45.681 -22.367 -41.497  0.00  0.00    -0.491 OA
ENDBRANCH   1  21
BRANCH  10  22
ATOM     22  O   UNL     1      39.230 -22.170 -38.730  0.00  0.00    -0.388 OA
ATOM     23  H   UNL     1      38.440 -22.250 -38.173  0.00  0.00    +0.000 HD
ENDBRANCH  10  22
BRANCH  17  24
ATOM     24  C   UNL     1      45.198 -15.731 -36.983  0.00  0.00    +0.076 C 
BRANCH  24  25
ATOM     25  N   UNL     1      45.708 -16.849 -36.155  0.00  0.00    -0.290 N 
ATOM     26  C   UNL     1      45.213 -16.730 -34.768  0.00  0.00    +0.023 C 
ATOM     27  C   UNL     1      45.793 -17.832 -33.866  0.00  0.00    +0.060 C 
ATOM     28  O   UNL     1      47.226 -17.793 -33.861  0.00  0.00    -0.377 OA
ATOM     29  C   UNL     1      47.720 -17.971 -35.196  0.00  0.00    +0.060 C 
ATOM     30  C   UNL     1      47.189 -16.872 -36.132  0.00  0.00    +0.023 C 
ATOM     31  H   UNL     1      45.369 -17.715 -36.573  0.00  0.00    +0.000 HD
ENDBRANCH  24  25
ENDBRANCH  17  24
TORSDOF 4
ENDMDL
MODEL 14
REMARK VINA RESULT:    -6.646     21.503     23.808
REMARK INTER + INTRA:          -8.401
REMARK INTER:                  -7.912
REMARK INTRA:                  -0.488
REMARK UNBOUND:                -0.394
REMARK  Name = cpd317.pdb
REMARK  5 active torsions:
REMARK  status: ('A' for Active; 'I' for Inactive)
REMARK    1  A    between atoms: C_1  and  O_2
REMARK    2  A    between atoms: O_2  and  C_3
REMARK    3  A    between atoms: C_12  and  O_13
REMARK    4  A    between atoms: C_20  and  C_22
REMARK    5  A    between atoms: C_22  and  N_23
REMARK                            x       y       z     vdW  Elec       q    Type
REMARK                         _______ _______ _______ _____ _____    ______ ____
ROOT
ATOM      1  C   UNL     1      46.189 -16.421 -41.140  0.00  0.00    +0.162 A 
ATOM      2  C   UNL     1      45.022 -15.731 -40.803  0.00  0.00    -0.016 A 
ATOM      3  C   UNL     1      43.881 -16.420 -40.342  0.00  0.00    -0.053 A 
ATOM      4  C   UNL     1      43.860 -17.820 -40.255  0.00  0.00    -0.022 A 
ATOM      5  C   UNL     1      44.978 -18.504 -40.703  0.00  0.00    +0.016 A 
ATOM      6  C   UNL     1      46.141 -17.804 -41.057  0.00  0.00    +0.167 A 
ATOM      7  O   UNL     1      47.245 -18.640 -41.179  0.00  0.00    -0.484 OA
ATOM      8  C   UNL     1      46.594 -19.891 -41.417  0.00  0.00    +0.116 C 
ATOM      9  C   UNL     1      47.439 -21.143 -41.237  0.00  0.00    +0.015 C 
ATOM     10  C   UNL     1      46.595 -22.369 -41.654  0.00  0.00    +0.077 C 
ATOM     11  C   UNL     1      45.093 -22.161 -41.640  0.00  0.00    -0.059 C 
ATOM     12  C   UNL     1      44.484 -21.048 -41.182  0.00  0.00    -0.071 C 
ATOM     13  C   UNL     1      45.305 -19.954 -40.552  0.00  0.00    +0.056 C 
ATOM     14  C   UNL     1      45.442 -20.194 -39.030  0.00  0.00    -0.020 C 
ATOM     15  C   UNL     1      44.097 -20.298 -38.272  0.00  0.00    +0.016 C 
ATOM     16  N   UNL     1      43.234 -19.101 -38.252  0.00  0.00    -0.296 N 
ATOM     17  C   UNL     1      42.690 -18.532 -37.091  0.00  0.00    +0.230 C 
ATOM     18  O   UNL     1      42.038 -17.485 -37.141  0.00  0.00    -0.274 OA
ATOM     19  C   UNL     1      42.766 -18.551 -39.533  0.00  0.00    +0.040 C 
ENDROOT
BRANCH   1  21
ATOM     20  C   UNL     1      48.097 -15.153 -40.527  0.00  0.00    +0.079 C 
ATOM     21  O   UNL     1      47.374 -15.867 -41.520  0.00  0.00    -0.491 OA
ENDBRANCH   1  21
BRANCH  10  22
ATOM     22  O   UNL     1      46.913 -22.715 -42.999  0.00  0.00    -0.388 OA
ATOM     23  H   UNL     1      47.763 -23.181 -43.021  0.00  0.00    +0.000 HD
ENDBRANCH  10  22
BRANCH  17  24
ATOM     24  C   UNL     1      42.925 -19.281 -35.759  0.00  0.00    +0.076 C 
BRANCH  24  25
ATOM     25  N   UNL     1      43.464 -18.404 -34.693  0.00  0.00    -0.290 N 
ATOM     26  C   UNL     1      44.754 -17.817 -35.112  0.00  0.00    +0.023 C 
ATOM     27  C   UNL     1      45.376 -16.966 -33.993  0.00  0.00    +0.060 C 
ATOM     28  O   UNL     1      45.575 -17.744 -32.804  0.00  0.00    -0.377 OA
ATOM     29  C   UNL     1      44.318 -18.268 -32.353  0.00  0.00    +0.060 C 
ATOM     30  C   UNL     1      43.669 -19.152 -33.431  0.00  0.00    +0.023 C 
ATOM     31  H   UNL     1      42.779 -17.665 -34.534  0.00  0.00    +0.000 HD
ENDBRANCH  24  25
ENDBRANCH  17  24
TORSDOF 4
ENDMDL
MODEL 15
REMARK VINA RESULT:    -6.625     21.090     25.319
REMARK INTER + INTRA:          -8.375
REMARK INTER:                  -8.200
REMARK INTRA:                  -0.175
REMARK UNBOUND:                -0.394
REMARK  Name = cpd317.pdb
REMARK  5 active torsions:
REMARK  status: ('A' for Active; 'I' for Inactive)
REMARK    1  A    between atoms: C_1  and  O_2
REMARK    2  A    between atoms: O_2  and  C_3
REMARK    3  A    between atoms: C_12  and  O_13
REMARK    4  A    between atoms: C_20  and  C_22
REMARK    5  A    between atoms: C_22  and  N_23
REMARK                            x       y       z     vdW  Elec       q    Type
REMARK                         _______ _______ _______ _____ _____    ______ ____
ROOT
ATOM      1  C   UNL     1      42.600 -20.398 -38.772  0.00  0.00    +0.162 A 
ATOM      2  C   UNL     1      42.749 -19.604 -37.633  0.00  0.00    -0.016 A 
ATOM      3  C   UNL     1      44.012 -19.096 -37.265  0.00  0.00    -0.053 A 
ATOM      4  C   UNL     1      45.167 -19.413 -37.995  0.00  0.00    -0.022 A 
ATOM      5  C   UNL     1      45.030 -20.297 -39.053  0.00  0.00    +0.016 A 
ATOM      6  C   UNL     1      43.756 -20.707 -39.472  0.00  0.00    +0.167 A 
ATOM      7  O   UNL     1      43.783 -21.329 -40.715  0.00  0.00    -0.484 OA
ATOM      8  C   UNL     1      45.150 -21.750 -40.761  0.00  0.00    +0.116 C 
ATOM      9  C   UNL     1      45.693 -22.150 -42.124  0.00  0.00    +0.015 C 
ATOM     10  C   UNL     1      47.133 -22.682 -41.941  0.00  0.00    +0.077 C 
ATOM     11  C   UNL     1      47.833 -22.243 -40.671  0.00  0.00    -0.059 C 
ATOM     12  C   UNL     1      47.329 -21.351 -39.794  0.00  0.00    -0.071 C 
ATOM     13  C   UNL     1      46.031 -20.653 -40.103  0.00  0.00    +0.056 C 
ATOM     14  C   UNL     1      46.297 -19.345 -40.887  0.00  0.00    -0.020 C 
ATOM     15  C   UNL     1      47.234 -18.345 -40.167  0.00  0.00    +0.016 C 
ATOM     16  N   UNL     1      46.764 -17.773 -38.891  0.00  0.00    -0.296 N 
ATOM     17  C   UNL     1      46.733 -16.401 -38.598  0.00  0.00    +0.230 C 
ATOM     18  O   UNL     1      46.257 -15.988 -37.537  0.00  0.00    -0.274 OA
ATOM     19  C   UNL     1      46.463 -18.687 -37.779  0.00  0.00    +0.040 C 
ENDROOT
BRANCH   1  21
ATOM     20  C   UNL     1      40.239 -20.524 -38.583  0.00  0.00    +0.079 C 
ATOM     21  O   UNL     1      41.428 -20.880 -39.274  0.00  0.00    -0.491 OA
ENDBRANCH   1  21
BRANCH  10  22
ATOM     22  O   UNL     1      47.096 -24.105 -41.878  0.00  0.00    -0.388 OA
ATOM     23  H   UNL     1      46.184 -24.399 -41.727  0.00  0.00    +0.000 HD
ENDBRANCH  10  22
BRANCH  17  24
ATOM     24  C   UNL     1      47.336 -15.440 -39.648  0.00  0.00    +0.076 C 
BRANCH  24  25
ATOM     25  N   UNL     1      48.381 -14.554 -39.084  0.00  0.00    -0.290 N 
ATOM     26  C   UNL     1      47.770 -13.343 -38.498  0.00  0.00    +0.023 C 
ATOM     27  C   UNL     1      48.837 -12.367 -37.977  0.00  0.00    +0.060 C 
ATOM     28  O   UNL     1      49.738 -11.982 -39.025  0.00  0.00    -0.377 OA
ATOM     29  C   UNL     1      50.385 -13.145 -39.559  0.00  0.00    +0.060 C 
ATOM     30  C   UNL     1      49.356 -14.140 -40.120  0.00  0.00    +0.023 C 
ATOM     31  H   UNL     1      48.869 -15.083 -38.361  0.00  0.00    +0.000 HD
ENDBRANCH  24  25
ENDBRANCH  17  24
TORSDOF 4
ENDMDL
MODEL 16
REMARK VINA RESULT:    -6.545     21.330     24.761
REMARK INTER + INTRA:          -8.279
REMARK INTER:                  -7.842
REMARK INTRA:                  -0.437
REMARK UNBOUND:                -0.394
REMARK  Name = cpd317.pdb
REMARK  5 active torsions:
REMARK  status: ('A' for Active; 'I' for Inactive)
REMARK    1  A    between atoms: C_1  and  O_2
REMARK    2  A    between atoms: O_2  and  C_3
REMARK    3  A    between atoms: C_12  and  O_13
REMARK    4  A    between atoms: C_20  and  C_22
REMARK    5  A    between atoms: C_22  and  N_23
REMARK                            x       y       z     vdW  Elec       q    Type
REMARK                         _______ _______ _______ _____ _____    ______ ____
ROOT
ATOM      1  C   UNL     1      46.498 -21.538 -40.389  0.00  0.00    +0.162 A 
ATOM      2  C   UNL     1      45.599 -21.266 -41.423  0.00  0.00    -0.016 A 
ATOM      3  C   UNL     1      44.504 -20.401 -41.219  0.00  0.00    -0.053 A 
ATOM      4  C   UNL     1      44.250 -19.828 -39.964  0.00  0.00    -0.022 A 
ATOM      5  C   UNL     1      45.077 -20.197 -38.915  0.00  0.00    +0.016 A 
ATOM      6  C   UNL     1      46.222 -20.970 -39.155  0.00  0.00    +0.167 A 
ATOM      7  O   UNL     1      47.089 -20.984 -38.069  0.00  0.00    -0.484 OA
ATOM      8  C   UNL     1      46.182 -20.651 -37.014  0.00  0.00    +0.116 C 
ATOM      9  C   UNL     1      46.803 -20.197 -35.702  0.00  0.00    +0.015 C 
ATOM     10  C   UNL     1      45.672 -20.004 -34.665  0.00  0.00    +0.077 C 
ATOM     11  C   UNL     1      44.286 -19.801 -35.243  0.00  0.00    -0.059 C 
ATOM     12  C   UNL     1      44.024 -19.662 -36.560  0.00  0.00    -0.071 C 
ATOM     13  C   UNL     1      45.161 -19.608 -37.545  0.00  0.00    +0.056 C 
ATOM     14  C   UNL     1      45.629 -18.147 -37.747  0.00  0.00    -0.020 C 
ATOM     15  C   UNL     1      44.519 -17.178 -38.222  0.00  0.00    +0.016 C 
ATOM     16  N   UNL     1      43.922 -17.427 -39.548  0.00  0.00    -0.296 N 
ATOM     17  C   UNL     1      43.798 -16.462 -40.559  0.00  0.00    +0.230 C 
ATOM     18  O   UNL     1      43.357 -16.760 -41.672  0.00  0.00    -0.274 OA
ATOM     19  C   UNL     1      43.257 -18.716 -39.788  0.00  0.00    +0.040 C 
ENDROOT
BRANCH   1  21
ATOM     20  C   UNL     1      47.589 -23.412 -41.352  0.00  0.00    +0.079 C 
ATOM     21  O   UNL     1      47.632 -22.290 -40.483  0.00  0.00    -0.491 OA
ENDBRANCH   1  21
BRANCH  10  22
ATOM     22  O   UNL     1      45.576 -21.177 -33.862  0.00  0.00    -0.388 OA
ATOM     23  H   UNL     1      45.316 -20.931 -32.960  0.00  0.00    +0.000 HD
ENDBRANCH  10  22
BRANCH  17  24
ATOM     24  C   UNL     1      44.218 -15.016 -40.211  0.00  0.00    +0.076 C 
BRANCH  24  25
ATOM     25  N   UNL     1      45.458 -14.593 -40.904  0.00  0.00    -0.290 N 
ATOM     26  C   UNL     1      46.471 -15.667 -40.847  0.00  0.00    +0.023 C 
ATOM     27  C   UNL     1      47.797 -15.226 -41.488  0.00  0.00    +0.060 C 
ATOM     28  O   UNL     1      48.315 -14.053 -40.846  0.00  0.00    -0.377 OA
ATOM     29  C   UNL     1      47.364 -12.984 -40.949  0.00  0.00    +0.060 C 
ATOM     30  C   UNL     1      46.027 -13.369 -40.294  0.00  0.00    +0.023 C 
ATOM     31  H   UNL     1      45.211 -14.397 -41.874  0.00  0.00    +0.000 HD
ENDBRANCH  24  25
ENDBRANCH  17  24
TORSDOF 4
ENDMDL
MODEL 17
REMARK VINA RESULT:    -6.543     17.824     21.715
REMARK INTER + INTRA:          -8.276
REMARK INTER:                  -7.819
REMARK INTRA:                  -0.458
REMARK UNBOUND:                -0.394
REMARK  Name = cpd317.pdb
REMARK  5 active torsions:
REMARK  status: ('A' for Active; 'I' for Inactive)
REMARK    1  A    between atoms: C_1  and  O_2
REMARK    2  A    between atoms: O_2  and  C_3
REMARK    3  A    between atoms: C_12  and  O_13
REMARK    4  A    between atoms: C_20  and  C_22
REMARK    5  A    between atoms: C_22  and  N_23
REMARK                            x       y       z     vdW  Elec       q    Type
REMARK                         _______ _______ _______ _____ _____    ______ ____
ROOT
ATOM      1  C   UNL     1      45.117 -17.437 -40.172  0.00  0.00    +0.162 A 
ATOM      2  C   UNL     1      44.349 -18.399 -40.831  0.00  0.00    -0.016 A 
ATOM      3  C   UNL     1      43.984 -19.599 -40.187  0.00  0.00    -0.053 A 
ATOM      4  C   UNL     1      44.422 -19.891 -38.886  0.00  0.00    -0.022 A 
ATOM      5  C   UNL     1      45.281 -18.987 -38.284  0.00  0.00    +0.016 A 
ATOM      6  C   UNL     1      45.547 -17.752 -38.892  0.00  0.00    +0.167 A 
ATOM      7  O   UNL     1      46.163 -16.856 -38.025  0.00  0.00    -0.484 OA
ATOM      8  C   UNL     1      46.731 -17.767 -37.079  0.00  0.00    +0.116 C 
ATOM      9  C   UNL     1      47.182 -17.175 -35.752  0.00  0.00    +0.015 C 
ATOM     10  C   UNL     1      47.869 -18.287 -34.927  0.00  0.00    +0.077 C 
ATOM     11  C   UNL     1      47.515 -19.707 -35.325  0.00  0.00    -0.059 C 
ATOM     12  C   UNL     1      46.576 -20.029 -36.239  0.00  0.00    -0.071 C 
ATOM     13  C   UNL     1      45.739 -18.943 -36.863  0.00  0.00    +0.056 C 
ATOM     14  C   UNL     1      44.465 -18.695 -36.021  0.00  0.00    -0.020 C 
ATOM     15  C   UNL     1      43.577 -19.946 -35.818  0.00  0.00    +0.016 C 
ATOM     16  N   UNL     1      42.962 -20.545 -37.019  0.00  0.00    -0.296 N 
ATOM     17  C   UNL     1      41.597 -20.838 -37.151  0.00  0.00    +0.230 C 
ATOM     18  O   UNL     1      41.139 -21.268 -38.213  0.00  0.00    -0.274 OA
ATOM     19  C   UNL     1      43.843 -21.027 -38.093  0.00  0.00    +0.040 C 
ENDROOT
BRANCH   1  21
ATOM     20  C   UNL     1      44.445 -15.225 -40.703  0.00  0.00    +0.079 C 
ATOM     21  O   UNL     1      45.466 -16.212 -40.656  0.00  0.00    -0.491 OA
ENDBRANCH   1  21
BRANCH  10  22
ATOM     22  O   UNL     1      49.280 -18.189 -35.102  0.00  0.00    -0.388 OA
ATOM     23  H   UNL     1      49.576 -18.869 -35.728  0.00  0.00    +0.000 HD
ENDBRANCH  10  22
BRANCH  17  24
ATOM     24  C   UNL     1      40.702 -20.617 -35.910  0.00  0.00    +0.076 C 
BRANCH  24  25
ATOM     25  N   UNL     1      40.497 -21.855 -35.121  0.00  0.00    -0.290 N 
ATOM     26  C   UNL     1      39.060 -22.193 -35.057  0.00  0.00    +0.023 C 
ATOM     27  C   UNL     1      38.810 -23.428 -34.176  0.00  0.00    +0.060 C 
ATOM     28  O   UNL     1      39.307 -23.223 -32.847  0.00  0.00    -0.377 OA
ATOM     29  C   UNL     1      40.715 -22.955 -32.892  0.00  0.00    +0.060 C 
ATOM     30  C   UNL     1      41.013 -21.708 -33.740  0.00  0.00    +0.023 C 
ATOM     31  H   UNL     1      41.011 -22.602 -35.590  0.00  0.00    +0.000 HD
ENDBRANCH  24  25
ENDBRANCH  17  24
TORSDOF 4
ENDMDL
MODEL 18
REMARK VINA RESULT:    -6.434     16.420     20.953
REMARK INTER + INTRA:          -8.144
REMARK INTER:                  -7.768
REMARK INTRA:                  -0.376
REMARK UNBOUND:                -0.394
REMARK  Name = cpd317.pdb
REMARK  5 active torsions:
REMARK  status: ('A' for Active; 'I' for Inactive)
REMARK    1  A    between atoms: C_1  and  O_2
REMARK    2  A    between atoms: O_2  and  C_3
REMARK    3  A    between atoms: C_12  and  O_13
REMARK    4  A    between atoms: C_20  and  C_22
REMARK    5  A    between atoms: C_22  and  N_23
REMARK                            x       y       z     vdW  Elec       q    Type
REMARK                         _______ _______ _______ _____ _____    ______ ____
ROOT
ATOM      1  C   UNL     1      37.285 -18.462 -33.214  0.00  0.00    +0.162 A 
ATOM      2  C   UNL     1      38.061 -17.401 -32.742  0.00  0.00    -0.016 A 
ATOM      3  C   UNL     1      39.439 -17.567 -32.493  0.00  0.00    -0.053 A 
ATOM      4  C   UNL     1      40.065 -18.812 -32.660  0.00  0.00    -0.022 A 
ATOM      5  C   UNL     1      39.266 -19.886 -33.014  0.00  0.00    +0.016 A 
ATOM      6  C   UNL     1      37.922 -19.684 -33.361  0.00  0.00    +0.167 A 
ATOM      7  O   UNL     1      37.363 -20.796 -33.980  0.00  0.00    -0.484 OA
ATOM      8  C   UNL     1      38.238 -21.822 -33.502  0.00  0.00    +0.116 C 
ATOM      9  C   UNL     1      38.198 -23.150 -34.243  0.00  0.00    +0.015 C 
ATOM     10  C   UNL     1      39.117 -24.151 -33.506  0.00  0.00    +0.077 C 
ATOM     11  C   UNL     1      40.174 -23.530 -32.615  0.00  0.00    -0.059 C 
ATOM     12  C   UNL     1      40.421 -22.206 -32.537  0.00  0.00    -0.071 C 
ATOM     13  C   UNL     1      39.684 -21.255 -33.442  0.00  0.00    +0.056 C 
ATOM     14  C   UNL     1      40.461 -21.060 -34.765  0.00  0.00    -0.020 C 
ATOM     15  C   UNL     1      41.910 -20.546 -34.588  0.00  0.00    +0.016 C 
ATOM     16  N   UNL     1      42.089 -19.204 -34.001  0.00  0.00    -0.296 N 
ATOM     17  C   UNL     1      42.868 -18.185 -34.568  0.00  0.00    +0.230 C 
ATOM     18  O   UNL     1      42.911 -17.061 -34.061  0.00  0.00    -0.274 OA
ATOM     19  C   UNL     1      41.560 -18.952 -32.652  0.00  0.00    +0.040 C 
ENDROOT
BRANCH   1  21
ATOM     20  C   UNL     1      35.020 -18.691 -32.545  0.00  0.00    +0.079 C 
ATOM     21  O   UNL     1      35.968 -18.407 -33.564  0.00  0.00    -0.491 OA
ENDBRANCH   1  21
BRANCH  10  22
ATOM     22  O   UNL     1      38.323 -24.958 -32.640  0.00  0.00    -0.388 OA
ATOM     23  H   UNL     1      38.452 -24.671 -31.723  0.00  0.00    +0.000 HD
ENDBRANCH  10  22
BRANCH  17  24
ATOM     24  C   UNL     1      43.680 -18.538 -35.836  0.00  0.00    +0.076 C 
BRANCH  24  25
ATOM     25  N   UNL     1      45.095 -18.105 -35.752  0.00  0.00    -0.290 N 
ATOM     26  C   UNL     1      45.762 -18.270 -37.060  0.00  0.00    +0.023 C 
ATOM     27  C   UNL     1      47.254 -17.906 -36.982  0.00  0.00    +0.060 C 
ATOM     28  O   UNL     1      47.929 -18.705 -36.002  0.00  0.00    -0.377 OA
ATOM     29  C   UNL     1      47.329 -18.505 -34.716  0.00  0.00    +0.060 C 
ATOM     30  C   UNL     1      45.839 -18.885 -34.736  0.00  0.00    +0.023 C 
ATOM     31  H   UNL     1      45.095 -17.122 -35.481  0.00  0.00    +0.000 HD
ENDBRANCH  24  25
ENDBRANCH  17  24
TORSDOF 4
ENDMDL
MODEL 19
REMARK VINA RESULT:    -6.427     17.550     20.595
REMARK INTER + INTRA:          -8.136
REMARK INTER:                  -7.725
REMARK INTRA:                  -0.411
REMARK UNBOUND:                -0.394
REMARK  Name = cpd317.pdb
REMARK  5 active torsions:
REMARK  status: ('A' for Active; 'I' for Inactive)
REMARK    1  A    between atoms: C_1  and  O_2
REMARK    2  A    between atoms: O_2  and  C_3
REMARK    3  A    between atoms: C_12  and  O_13
REMARK    4  A    between atoms: C_20  and  C_22
REMARK    5  A    between atoms: C_22  and  N_23
REMARK                            x       y       z     vdW  Elec       q    Type
REMARK                         _______ _______ _______ _____ _____    ______ ____
ROOT
ATOM      1  C   UNL     1      40.334 -22.469 -36.244  0.00  0.00    +0.162 A 
ATOM      2  C   UNL     1      39.234 -22.975 -35.548  0.00  0.00    -0.016 A 
ATOM      3  C   UNL     1      38.825 -22.400 -34.327  0.00  0.00    -0.053 A 
ATOM      4  C   UNL     1      39.537 -21.340 -33.745  0.00  0.00    -0.022 A 
ATOM      5  C   UNL     1      40.694 -20.922 -34.381  0.00  0.00    +0.016 A 
ATOM      6  C   UNL     1      41.028 -21.429 -35.646  0.00  0.00    +0.167 A 
ATOM      7  O   UNL     1      42.028 -20.689 -36.266  0.00  0.00    -0.484 OA
ATOM      8  C   UNL     1      42.637 -20.077 -35.124  0.00  0.00    +0.116 C 
ATOM      9  C   UNL     1      43.548 -18.889 -35.394  0.00  0.00    +0.015 C 
ATOM     10  C   UNL     1      44.195 -18.453 -34.060  0.00  0.00    +0.077 C 
ATOM     11  C   UNL     1      43.463 -18.893 -32.807  0.00  0.00    -0.059 C 
ATOM     12  C   UNL     1      42.263 -19.510 -32.804  0.00  0.00    -0.071 C 
ATOM     13  C   UNL     1      41.526 -19.713 -34.101  0.00  0.00    +0.056 C 
ATOM     14  C   UNL     1      40.612 -18.500 -34.397  0.00  0.00    -0.020 C 
ATOM     15  C   UNL     1      39.579 -18.190 -33.287  0.00  0.00    +0.016 C 
ATOM     16  N   UNL     1      38.548 -19.210 -33.014  0.00  0.00    -0.296 N 
ATOM     17  C   UNL     1      37.170 -18.955 -32.970  0.00  0.00    +0.230 C 
ATOM     18  O   UNL     1      36.358 -19.872 -32.811  0.00  0.00    -0.274 OA
ATOM     19  C   UNL     1      38.981 -20.551 -32.594  0.00  0.00    +0.040 C 
ENDROOT
BRANCH   1  21
ATOM     20  C   UNL     1      40.112 -22.357 -38.604  0.00  0.00    +0.079 C 
ATOM     21  O   UNL     1      40.778 -22.885 -37.465  0.00  0.00    -0.491 OA
ENDBRANCH   1  21
BRANCH  10  22
ATOM     22  O   UNL     1      45.491 -19.036 -33.962  0.00  0.00    -0.388 OA
ATOM     23  H   UNL     1      45.545 -19.571 -33.154  0.00  0.00    +0.000 HD
ENDBRANCH  10  22
BRANCH  17  24
ATOM     24  C   UNL     1      36.717 -17.484 -33.108  0.00  0.00    +0.076 C 
BRANCH  24  25
ATOM     25  N   UNL     1      36.691 -16.765 -31.812  0.00  0.00    -0.290 N 
ATOM     26  C   UNL     1      35.301 -16.444 -31.428  0.00  0.00    +0.023 C 
ATOM     27  C   UNL     1      35.249 -15.627 -30.127  0.00  0.00    +0.060 C 
ATOM     28  O   UNL     1      35.998 -14.410 -30.253  0.00  0.00    -0.377 OA
ATOM     29  C   UNL     1      37.365 -14.713 -30.564  0.00  0.00    +0.060 C 
ATOM     30  C   UNL     1      37.470 -15.506 -31.877  0.00  0.00    +0.023 C 
ATOM     31  H   UNL     1      37.113 -17.381 -31.116  0.00  0.00    +0.000 HD
ENDBRANCH  24  25
ENDBRANCH  17  24
TORSDOF 4
ENDMDL
MODEL 20
REMARK VINA RESULT:    -6.043     17.127     21.486
REMARK INTER + INTRA:          -7.673
REMARK INTER:                  -7.348
REMARK INTRA:                  -0.325
REMARK UNBOUND:                -0.394
REMARK  Name = cpd317.pdb
REMARK  5 active torsions:
REMARK  status: ('A' for Active; 'I' for Inactive)
REMARK    1  A    between atoms: C_1  and  O_2
REMARK    2  A    between atoms: O_2  and  C_3
REMARK    3  A    between atoms: C_12  and  O_13
REMARK    4  A    between atoms: C_20  and  C_22
REMARK    5  A    between atoms: C_22  and  N_23
REMARK                            x       y       z     vdW  Elec       q    Type
REMARK                         _______ _______ _______ _____ _____    ______ ____
ROOT
ATOM      1  C   UNL     1      40.312 -17.148 -32.833  0.00  0.00    +0.162 A 
ATOM      2  C   UNL     1      41.639 -16.717 -32.753  0.00  0.00    -0.016 A 
ATOM      3  C   UNL     1      42.699 -17.565 -33.133  0.00  0.00    -0.053 A 
ATOM      4  C   UNL     1      42.464 -18.883 -33.553  0.00  0.00    -0.022 A 
ATOM      5  C   UNL     1      41.157 -19.341 -33.517  0.00  0.00    +0.016 A 
ATOM      6  C   UNL     1      40.105 -18.456 -33.241  0.00  0.00    +0.167 A 
ATOM      7  O   UNL     1      38.862 -18.998 -33.548  0.00  0.00    -0.484 OA
ATOM      8  C   UNL     1      39.174 -20.394 -33.499  0.00  0.00    +0.116 C 
ATOM      9  C   UNL     1      38.169 -21.338 -34.143  0.00  0.00    +0.015 C 
ATOM     10  C   UNL     1      38.624 -22.792 -33.879  0.00  0.00    +0.077 C 
ATOM     11  C   UNL     1      40.092 -22.965 -33.544  0.00  0.00    -0.059 C 
ATOM     12  C   UNL     1      41.004 -21.971 -33.587  0.00  0.00    -0.071 C 
ATOM     13  C   UNL     1      40.599 -20.607 -34.080  0.00  0.00    +0.056 C 
ATOM     14  C   UNL     1      40.799 -20.507 -35.611  0.00  0.00    -0.020 C 
ATOM     15  C   UNL     1      42.243 -20.795 -36.089  0.00  0.00    +0.016 C 
ATOM     16  N   UNL     1      43.303 -19.869 -35.644  0.00  0.00    -0.296 N 
ATOM     17  C   UNL     1      44.220 -19.240 -36.499  0.00  0.00    +0.230 C 
ATOM     18  O   UNL     1      45.032 -18.418 -36.066  0.00  0.00    -0.274 OA
ATOM     19  C   UNL     1      43.536 -19.710 -34.201  0.00  0.00    +0.040 C 
ENDROOT
BRANCH   1  21
ATOM     20  C   UNL     1      39.253 -15.555 -31.431  0.00  0.00    +0.079 C 
ATOM     21  O   UNL     1      39.203 -16.400 -32.571  0.00  0.00    -0.491 OA
ENDBRANCH   1  21
BRANCH  10  22
ATOM     22  O   UNL     1      37.919 -23.300 -32.750  0.00  0.00    -0.388 OA
ATOM     23  H   UNL     1      38.272 -22.899 -31.941  0.00  0.00    +0.000 HD
ENDBRANCH  10  22
BRANCH  17  24
ATOM     24  C   UNL     1      44.181 -19.636 -37.993  0.00  0.00    +0.076 C 
BRANCH  24  25
ATOM     25  N   UNL     1      45.523 -19.651 -38.620  0.00  0.00    -0.290 N 
ATOM     26  C   UNL     1      45.563 -18.730 -39.774  0.00  0.00    +0.023 C 
ATOM     27  C   UNL     1      46.921 -18.786 -40.494  0.00  0.00    +0.060 C 
ATOM     28  O   UNL     1      47.212 -20.117 -40.941  0.00  0.00    -0.377 OA
ATOM     29  C   UNL     1      47.238 -21.010 -39.819  0.00  0.00    +0.060 C 
ATOM     30  C   UNL     1      45.888 -21.010 -39.083  0.00  0.00    +0.023 C 
ATOM     31  H   UNL     1      46.192 -19.351 -37.911  0.00  0.00    +0.000 HD
ENDBRANCH  24  25
ENDBRANCH  17  24
TORSDOF 4
ENDMDL
