REMARK  Name = cpd219.pdb
REMARK  10 active torsions:
REMARK  status: ('A' for Active; 'I' for Inactive)
REMARK    1  A    between atoms: C_1  and  C_2
REMARK    2  A    between atoms: C_2  and  C_3
REMARK    3  A    between atoms: C_3  and  C_4
REMARK    4  A    between atoms: C_4  and  S_6
REMARK    5  A    between atoms: S_6  and  C_7
REMARK    6  A    between atoms: C_7  and  C_8
REMARK    7  A    between atoms: C_8  and  N_9
REMARK    8  A    between atoms: N_9  and  C_10
REMARK    9  A    between atoms: N_9  and  C_11
REMARK   10  A    between atoms: N_9  and  C_12
REMARK                            x       y       z     vdW  Elec       q    Type
REMARK                         _______ _______ _______ _____ _____    ______ ____
ROOT
ATOM      1  S   UNL     1      -3.898  -0.473   0.706  0.00  0.00    -0.090 S 
ENDROOT
BRANCH   1   2
ATOM      2  C   UNL     1      -4.575  -1.149  -0.771  0.00  0.00    +0.189 C 
ATOM      3  O   UNL     1      -3.831  -1.496  -1.680  0.00  0.00    -0.285 OA
BRANCH   2   4
ATOM      4  C   UNL     1      -6.076  -1.341  -0.784  0.00  0.00    +0.016 C 
BRANCH   4   6
ATOM      5  C   UNL     1      -6.626   0.976  -1.680  0.00  0.00    -0.065 C 
ATOM      6  C   UNL     1      -6.886  -0.058  -0.594  0.00  0.00    -0.048 C 
ENDBRANCH   4   6
ENDBRANCH   2   4
ENDBRANCH   1   2
BRANCH   1   7
ATOM      7  C   UNL     1      -2.334   0.210   0.044  0.00  0.00    -0.013 C 
BRANCH   7   8
ATOM      8  C   UNL     1      -1.000  -1.000   0.000  0.00  0.00    -0.079 C 
BRANCH   8   9
ATOM      9  N   UNL     1       0.000  -1.000   0.000  0.00  0.00    +0.375 N 
ATOM     10  C   UNL     1       0.000  -2.000   0.000  0.00  0.00    -0.101 C 
ATOM     11  C   UNL     1       1.000  -1.000   0.000  0.00  0.00    -0.101 C 
ATOM     12  C   UNL     1       0.000   0.000   0.000  0.00  0.00    -0.101 C 
ENDBRANCH   8   9
ENDBRANCH   7   8
ENDBRANCH   1   7
TORSDOF 6
