MODEL 1
REMARK VINA RESULT:    -5.075      0.000      0.000
REMARK INTER + INTRA:          -4.011
REMARK INTER:                  -5.669
REMARK INTRA:                   1.658
REMARK UNBOUND:                 1.658
REMARK  Name = cpd223.pdb
REMARK  8 active torsions:
REMARK  status: ('A' for Active; 'I' for Inactive)
REMARK    1  A    between atoms: C_1  and  C_2
REMARK    2  A    between atoms: C_2  and  C_4
REMARK    3  A    between atoms: C_4  and  C_5
REMARK    4  A    between atoms: C_5  and  C_6
REMARK    5  A    between atoms: C_6  and  N_7
REMARK    6  A    between atoms: N_7  and  C_8
REMARK    7  A    between atoms: N_7  and  C_9
REMARK    8  A    between atoms: N_7  and  C_10
REMARK                            x       y       z     vdW  Elec       q    Type
REMARK                         _______ _______ _______ _____ _____    ______ ____
ROOT
ATOM      1  C   UNL     1      48.422 -39.783 -29.752  0.00  0.00    -0.061 C 
ENDROOT
BRANCH   1   2
ATOM      2  C   UNL     1      48.881 -38.648 -28.821  0.00  0.00    +0.004 C 
BRANCH   2   4
ATOM      3  C   UNL     1      50.835 -38.719 -30.508  0.00  0.00    -0.006 C 
ATOM      4  C   UNL     1      50.190 -38.065 -29.317  0.00  0.00    +0.130 C 
ATOM      5  O   UNL     1      50.694 -37.092 -28.760  0.00  0.00    -0.298 OA
ENDBRANCH   2   4
ENDBRANCH   1   2
BRANCH   1   6
ATOM      6  C   UNL     1      46.692 -40.111 -29.570  0.00  0.00    -0.089 C 
BRANCH   6   7
ATOM      7  N   UNL     1      46.092 -40.908 -29.503  0.00  0.00    +0.374 N 
ATOM      8  C   UNL     1      45.942 -40.713 -28.533  0.00  0.00    -0.101 C 
ATOM      9  C   UNL     1      45.492 -41.705 -29.435  0.00  0.00    -0.101 C 
ATOM     10  C   UNL     1      46.241 -41.103 -30.472  0.00  0.00    -0.101 C 
ENDBRANCH   6   7
ENDBRANCH   1   6
TORSDOF 4
ENDMDL
MODEL 2
REMARK VINA RESULT:    -4.911      4.772      6.126
REMARK INTER + INTRA:          -3.827
REMARK INTER:                  -5.406
REMARK INTRA:                   1.578
REMARK UNBOUND:                 1.658
REMARK  Name = cpd223.pdb
REMARK  8 active torsions:
REMARK  status: ('A' for Active; 'I' for Inactive)
REMARK    1  A    between atoms: C_1  and  C_2
REMARK    2  A    between atoms: C_2  and  C_4
REMARK    3  A    between atoms: C_4  and  C_5
REMARK    4  A    between atoms: C_5  and  C_6
REMARK    5  A    between atoms: C_6  and  N_7
REMARK    6  A    between atoms: N_7  and  C_8
REMARK    7  A    between atoms: N_7  and  C_9
REMARK    8  A    between atoms: N_7  and  C_10
REMARK                            x       y       z     vdW  Elec       q    Type
REMARK                         _______ _______ _______ _____ _____    ______ ____
ROOT
ATOM      1  C   UNL     1      42.788 -39.230 -30.067  0.00  0.00    -0.061 C 
ENDROOT
BRANCH   1   2
ATOM      2  C   UNL     1      42.401 -38.311 -31.238  0.00  0.00    +0.004 C 
BRANCH   2   4
ATOM      3  C   UNL     1      40.668 -36.483 -31.808  0.00  0.00    -0.006 C 
ATOM      4  C   UNL     1      41.441 -37.238 -30.762  0.00  0.00    +0.130 C 
ATOM      5  O   UNL     1      41.306 -37.006 -29.562  0.00  0.00    -0.298 OA
ENDBRANCH   2   4
ENDBRANCH   1   2
BRANCH   1   6
ATOM      6  C   UNL     1      44.511 -39.635 -30.102  0.00  0.00    -0.089 C 
BRANCH   6   7
ATOM      7  N   UNL     1      45.136 -40.254 -29.627  0.00  0.00    +0.374 N 
ATOM      8  C   UNL     1      44.864 -40.998 -30.238  0.00  0.00    -0.101 C 
ATOM      9  C   UNL     1      45.762 -40.873 -29.153  0.00  0.00    -0.101 C 
ATOM     10  C   UNL     1      45.409 -39.510 -29.017  0.00  0.00    -0.101 C 
ENDBRANCH   6   7
ENDBRANCH   1   6
TORSDOF 4
ENDMDL
MODEL 3
REMARK VINA RESULT:    -4.807      8.130      9.020
REMARK INTER + INTRA:          -3.711
REMARK INTER:                  -5.273
REMARK INTRA:                   1.562
REMARK UNBOUND:                 1.658
REMARK  Name = cpd223.pdb
REMARK  8 active torsions:
REMARK  status: ('A' for Active; 'I' for Inactive)
REMARK    1  A    between atoms: C_1  and  C_2
REMARK    2  A    between atoms: C_2  and  C_4
REMARK    3  A    between atoms: C_4  and  C_5
REMARK    4  A    between atoms: C_5  and  C_6
REMARK    5  A    between atoms: C_6  and  N_7
REMARK    6  A    between atoms: N_7  and  C_8
REMARK    7  A    between atoms: N_7  and  C_9
REMARK    8  A    between atoms: N_7  and  C_10
REMARK                            x       y       z     vdW  Elec       q    Type
REMARK                         _______ _______ _______ _____ _____    ______ ____
ROOT
ATOM      1  C   UNL     1      41.582 -35.700 -31.285  0.00  0.00    -0.061 C 
ENDROOT
BRANCH   1   2
ATOM      2  C   UNL     1      42.222 -36.995 -31.813  0.00  0.00    +0.004 C 
BRANCH   2   4
ATOM      3  C   UNL     1      40.979 -37.954 -29.763  0.00  0.00    -0.006 C 
ATOM      4  C   UNL     1      42.061 -38.107 -30.797  0.00  0.00    +0.130 C 
ATOM      5  O   UNL     1      42.791 -39.096 -30.830  0.00  0.00    -0.298 OA
ENDBRANCH   2   4
ENDBRANCH   1   2
BRANCH   1   6
ATOM      6  C   UNL     1      40.159 -35.245 -32.234  0.00  0.00    -0.089 C 
BRANCH   6   7
ATOM      7  N   UNL     1      39.218 -34.951 -32.065  0.00  0.00    +0.374 N 
ATOM      8  C   UNL     1      38.895 -35.877 -32.257  0.00  0.00    -0.101 C 
ATOM      9  C   UNL     1      38.278 -34.657 -31.896  0.00  0.00    -0.101 C 
ATOM     10  C   UNL     1      39.542 -34.024 -31.874  0.00  0.00    -0.101 C 
ENDBRANCH   6   7
ENDBRANCH   1   6
TORSDOF 4
ENDMDL
MODEL 4
REMARK VINA RESULT:    -4.718     30.180     30.646
REMARK INTER + INTRA:          -3.612
REMARK INTER:                  -5.164
REMARK INTRA:                   1.552
REMARK UNBOUND:                 1.658
REMARK  Name = cpd223.pdb
REMARK  8 active torsions:
REMARK  status: ('A' for Active; 'I' for Inactive)
REMARK    1  A    between atoms: C_1  and  C_2
REMARK    2  A    between atoms: C_2  and  C_4
REMARK    3  A    between atoms: C_4  and  C_5
REMARK    4  A    between atoms: C_5  and  C_6
REMARK    5  A    between atoms: C_6  and  N_7
REMARK    6  A    between atoms: N_7  and  C_8
REMARK    7  A    between atoms: N_7  and  C_9
REMARK    8  A    between atoms: N_7  and  C_10
REMARK                            x       y       z     vdW  Elec       q    Type
REMARK                         _______ _______ _______ _____ _____    ______ ____
ROOT
ATOM      1  C   UNL     1      62.640 -25.253  -7.709  0.00  0.00    -0.061 C 
ENDROOT
BRANCH   1   2
ATOM      2  C   UNL     1      63.136 -25.590  -6.293  0.00  0.00    +0.004 C 
BRANCH   2   4
ATOM      3  C   UNL     1      62.991 -28.160  -6.087  0.00  0.00    -0.006 C 
ATOM      4  C   UNL     1      63.837 -26.934  -6.293  0.00  0.00    +0.130 C 
ATOM      5  O   UNL     1      65.053 -27.006  -6.460  0.00  0.00    -0.298 OA
ENDBRANCH   2   4
ENDBRANCH   1   2
BRANCH   1   6
ATOM      6  C   UNL     1      63.567 -23.924  -8.423  0.00  0.00    -0.089 C 
BRANCH   6   7
ATOM      7  N   UNL     1      63.701 -23.515  -9.326  0.00  0.00    +0.374 N 
ATOM      8  C   UNL     1      64.373 -24.221  -9.546  0.00  0.00    -0.101 C 
ATOM      9  C   UNL     1      63.835 -23.106 -10.228  0.00  0.00    -0.101 C 
ATOM     10  C   UNL     1      63.028 -22.809  -9.106  0.00  0.00    -0.101 C 
ENDBRANCH   6   7
ENDBRANCH   1   6
TORSDOF 4
ENDMDL
MODEL 5
REMARK VINA RESULT:    -4.571      8.344      9.127
REMARK INTER + INTRA:          -3.447
REMARK INTER:                  -4.998
REMARK INTRA:                   1.551
REMARK UNBOUND:                 1.658
REMARK  Name = cpd223.pdb
REMARK  8 active torsions:
REMARK  status: ('A' for Active; 'I' for Inactive)
REMARK    1  A    between atoms: C_1  and  C_2
REMARK    2  A    between atoms: C_2  and  C_4
REMARK    3  A    between atoms: C_4  and  C_5
REMARK    4  A    between atoms: C_5  and  C_6
REMARK    5  A    between atoms: C_6  and  N_7
REMARK    6  A    between atoms: N_7  and  C_8
REMARK    7  A    between atoms: N_7  and  C_9
REMARK    8  A    between atoms: N_7  and  C_10
REMARK                            x       y       z     vdW  Elec       q    Type
REMARK                         _______ _______ _______ _____ _____    ______ ____
ROOT
ATOM      1  C   UNL     1      40.201 -35.188 -31.702  0.00  0.00    -0.061 C 
ENDROOT
BRANCH   1   2
ATOM      2  C   UNL     1      41.215 -35.889 -32.621  0.00  0.00    +0.004 C 
BRANCH   2   4
ATOM      3  C   UNL     1      42.069 -38.027 -31.452  0.00  0.00    -0.006 C 
ATOM      4  C   UNL     1      42.281 -36.577 -31.791  0.00  0.00    +0.130 C 
ATOM      5  O   UNL     1      43.279 -35.963 -31.419  0.00  0.00    -0.298 OA
ENDBRANCH   2   4
ENDBRANCH   1   2
BRANCH   1   6
ATOM      6  C   UNL     1      38.741 -36.165 -31.482  0.00  0.00    -0.089 C 
BRANCH   6   7
ATOM      7  N   UNL     1      38.024 -36.282 -30.795  0.00  0.00    +0.374 N 
ATOM      8  C   UNL     1      37.500 -35.541 -31.214  0.00  0.00    -0.101 C 
ATOM      9  C   UNL     1      37.308 -36.400 -30.107  0.00  0.00    -0.101 C 
ATOM     10  C   UNL     1      38.548 -37.024 -30.376  0.00  0.00    -0.101 C 
ENDBRANCH   6   7
ENDBRANCH   1   6
TORSDOF 4
ENDMDL
MODEL 6
REMARK VINA RESULT:    -4.472     21.477     22.444
REMARK INTER + INTRA:          -3.337
REMARK INTER:                  -4.849
REMARK INTRA:                   1.512
REMARK UNBOUND:                 1.658
REMARK  Name = cpd223.pdb
REMARK  8 active torsions:
REMARK  status: ('A' for Active; 'I' for Inactive)
REMARK    1  A    between atoms: C_1  and  C_2
REMARK    2  A    between atoms: C_2  and  C_4
REMARK    3  A    between atoms: C_4  and  C_5
REMARK    4  A    between atoms: C_5  and  C_6
REMARK    5  A    between atoms: C_6  and  N_7
REMARK    6  A    between atoms: N_7  and  C_8
REMARK    7  A    between atoms: N_7  and  C_9
REMARK    8  A    between atoms: N_7  and  C_10
REMARK                            x       y       z     vdW  Elec       q    Type
REMARK                         _______ _______ _______ _____ _____    ______ ____
ROOT
ATOM      1  C   UNL     1      47.069 -20.515 -41.522  0.00  0.00    -0.061 C 
ENDROOT
BRANCH   1   2
ATOM      2  C   UNL     1      45.802 -19.937 -40.871  0.00  0.00    +0.004 C 
BRANCH   2   4
ATOM      3  C   UNL     1      44.474 -20.149 -43.076  0.00  0.00    -0.006 C 
ATOM      4  C   UNL     1      44.923 -19.292 -41.925  0.00  0.00    +0.130 C 
ATOM      5  O   UNL     1      44.593 -18.111 -41.828  0.00  0.00    -0.298 OA
ENDBRANCH   2   4
ENDBRANCH   1   2
BRANCH   1   6
ATOM      6  C   UNL     1      47.129 -22.278 -41.373  0.00  0.00    -0.089 C 
BRANCH   6   7
ATOM      7  N   UNL     1      47.587 -23.045 -41.824  0.00  0.00    +0.374 N 
ATOM      8  C   UNL     1      48.358 -22.954 -41.194  0.00  0.00    -0.101 C 
ATOM      9  C   UNL     1      48.044 -23.811 -42.274  0.00  0.00    -0.101 C 
ATOM     10  C   UNL     1      46.815 -23.135 -42.453  0.00  0.00    -0.101 C 
ENDBRANCH   6   7
ENDBRANCH   1   6
TORSDOF 4
ENDMDL
MODEL 7
REMARK VINA RESULT:    -4.368      8.491      9.445
REMARK INTER + INTRA:          -3.220
REMARK INTER:                  -4.885
REMARK INTRA:                   1.665
REMARK UNBOUND:                 1.658
REMARK  Name = cpd223.pdb
REMARK  8 active torsions:
REMARK  status: ('A' for Active; 'I' for Inactive)
REMARK    1  A    between atoms: C_1  and  C_2
REMARK    2  A    between atoms: C_2  and  C_4
REMARK    3  A    between atoms: C_4  and  C_5
REMARK    4  A    between atoms: C_5  and  C_6
REMARK    5  A    between atoms: C_6  and  N_7
REMARK    6  A    between atoms: N_7  and  C_8
REMARK    7  A    between atoms: N_7  and  C_9
REMARK    8  A    between atoms: N_7  and  C_10
REMARK                            x       y       z     vdW  Elec       q    Type
REMARK                         _______ _______ _______ _____ _____    ______ ____
ROOT
ATOM      1  C   UNL     1      39.726 -37.142 -30.418  0.00  0.00    -0.061 C 
ENDROOT
BRANCH   1   2
ATOM      2  C   UNL     1      39.681 -36.477 -31.804  0.00  0.00    +0.004 C 
BRANCH   2   4
ATOM      3  C   UNL     1      42.090 -37.408 -31.797  0.00  0.00    -0.006 C 
ATOM      4  C   UNL     1      41.044 -36.558 -32.463  0.00  0.00    +0.130 C 
ATOM      5  O   UNL     1      41.272 -35.948 -33.507  0.00  0.00    -0.298 OA
ENDBRANCH   2   4
ENDBRANCH   1   2
BRANCH   1   6
ATOM      6  C   UNL     1      38.099 -37.497 -29.816  0.00  0.00    -0.089 C 
BRANCH   6   7
ATOM      7  N   UNL     1      37.630 -37.546 -28.934  0.00  0.00    +0.374 N 
ATOM      8  C   UNL     1      38.218 -38.308 -28.663  0.00  0.00    -0.101 C 
ATOM      9  C   UNL     1      37.160 -37.596 -28.053  0.00  0.00    -0.101 C 
ATOM     10  C   UNL     1      37.041 -36.785 -29.205  0.00  0.00    -0.101 C 
ENDBRANCH   6   7
ENDBRANCH   1   6
TORSDOF 4
ENDMDL
MODEL 8
REMARK VINA RESULT:    -4.353      8.960     10.425
REMARK INTER + INTRA:          -3.204
REMARK INTER:                  -4.850
REMARK INTRA:                   1.646
REMARK UNBOUND:                 1.658
REMARK  Name = cpd223.pdb
REMARK  8 active torsions:
REMARK  status: ('A' for Active; 'I' for Inactive)
REMARK    1  A    between atoms: C_1  and  C_2
REMARK    2  A    between atoms: C_2  and  C_4
REMARK    3  A    between atoms: C_4  and  C_5
REMARK    4  A    between atoms: C_5  and  C_6
REMARK    5  A    between atoms: C_6  and  N_7
REMARK    6  A    between atoms: N_7  and  C_8
REMARK    7  A    between atoms: N_7  and  C_9
REMARK    8  A    between atoms: N_7  and  C_10
REMARK                            x       y       z     vdW  Elec       q    Type
REMARK                         _______ _______ _______ _____ _____    ______ ____
ROOT
ATOM      1  C   UNL     1      38.484 -37.047 -30.340  0.00  0.00    -0.061 C 
ENDROOT
BRANCH   1   2
ATOM      2  C   UNL     1      38.484 -37.936 -29.085  0.00  0.00    +0.004 C 
BRANCH   2   4
ATOM      3  C   UNL     1      36.260 -36.691 -28.663  0.00  0.00    -0.006 C 
ATOM      4  C   UNL     1      37.120 -37.902 -28.423  0.00  0.00    +0.130 C 
ATOM      5  O   UNL     1      36.741 -38.839 -27.722  0.00  0.00    -0.298 OA
ENDBRANCH   2   4
ENDBRANCH   1   2
BRANCH   1   6
ATOM      6  C   UNL     1      40.129 -36.620 -30.833  0.00  0.00    -0.089 C 
BRANCH   6   7
ATOM      7  N   UNL     1      40.632 -36.468 -31.684  0.00  0.00    +0.374 N 
ATOM      8  C   UNL     1      40.083 -35.652 -31.863  0.00  0.00    -0.101 C 
ATOM      9  C   UNL     1      41.135 -36.317 -32.535  0.00  0.00    -0.101 C 
ATOM     10  C   UNL     1      41.181 -37.285 -31.505  0.00  0.00    -0.101 C 
ENDBRANCH   6   7
ENDBRANCH   1   6
TORSDOF 4
ENDMDL
MODEL 9
REMARK VINA RESULT:    -4.294     25.565     27.210
REMARK INTER + INTRA:          -3.138
REMARK INTER:                  -4.676
REMARK INTRA:                   1.537
REMARK UNBOUND:                 1.658
REMARK  Name = cpd223.pdb
REMARK  8 active torsions:
REMARK  status: ('A' for Active; 'I' for Inactive)
REMARK    1  A    between atoms: C_1  and  C_2
REMARK    2  A    between atoms: C_2  and  C_4
REMARK    3  A    between atoms: C_4  and  C_5
REMARK    4  A    between atoms: C_5  and  C_6
REMARK    5  A    between atoms: C_6  and  N_7
REMARK    6  A    between atoms: N_7  and  C_8
REMARK    7  A    between atoms: N_7  and  C_9
REMARK    8  A    between atoms: N_7  and  C_10
REMARK                            x       y       z     vdW  Elec       q    Type
REMARK                         _______ _______ _______ _____ _____    ______ ____
ROOT
ATOM      1  C   UNL     1      58.809 -21.785 -47.023  0.00  0.00    -0.061 C 
ENDROOT
BRANCH   1   2
ATOM      2  C   UNL     1      59.169 -20.381 -47.539  0.00  0.00    +0.004 C 
BRANCH   2   4
ATOM      3  C   UNL     1      59.692 -18.058 -46.539  0.00  0.00    -0.006 C 
ATOM      4  C   UNL     1      58.926 -19.350 -46.454  0.00  0.00    +0.130 C 
ATOM      5  O   UNL     1      58.127 -19.572 -45.547  0.00  0.00    -0.298 OA
ENDBRANCH   2   4
ENDBRANCH   1   2
BRANCH   1   6
ATOM      6  C   UNL     1      57.248 -22.328 -47.655  0.00  0.00    -0.089 C 
BRANCH   6   7
ATOM      7  N   UNL     1      56.479 -22.890 -47.349  0.00  0.00    +0.374 N 
ATOM      8  C   UNL     1      55.987 -22.064 -47.070  0.00  0.00    -0.101 C 
ATOM      9  C   UNL     1      55.710 -23.451 -47.043  0.00  0.00    -0.101 C 
ATOM     10  C   UNL     1      56.970 -23.715 -47.628  0.00  0.00    -0.101 C 
ENDBRANCH   6   7
ENDBRANCH   1   6
TORSDOF 4
ENDMDL
MODEL 10
REMARK VINA RESULT:    -4.282     29.655     30.396
REMARK INTER + INTRA:          -3.124
REMARK INTER:                  -4.689
REMARK INTRA:                   1.565
REMARK UNBOUND:                 1.658
REMARK  Name = cpd223.pdb
REMARK  8 active torsions:
REMARK  status: ('A' for Active; 'I' for Inactive)
REMARK    1  A    between atoms: C_1  and  C_2
REMARK    2  A    between atoms: C_2  and  C_4
REMARK    3  A    between atoms: C_4  and  C_5
REMARK    4  A    between atoms: C_5  and  C_6
REMARK    5  A    between atoms: C_6  and  N_7
REMARK    6  A    between atoms: N_7  and  C_8
REMARK    7  A    between atoms: N_7  and  C_9
REMARK    8  A    between atoms: N_7  and  C_10
REMARK                            x       y       z     vdW  Elec       q    Type
REMARK                         _______ _______ _______ _____ _____    ______ ____
ROOT
ATOM      1  C   UNL     1      63.971 -24.044  -7.621  0.00  0.00    -0.061 C 
ENDROOT
BRANCH   1   2
ATOM      2  C   UNL     1      63.169 -22.868  -8.204  0.00  0.00    +0.004 C 
BRANCH   2   4
ATOM      3  C   UNL     1      63.068 -21.666 -10.488  0.00  0.00    -0.006 C 
ATOM      4  C   UNL     1      63.142 -22.956  -9.718  0.00  0.00    +0.130 C 
ATOM      5  O   UNL     1      63.184 -24.048 -10.282  0.00  0.00    -0.298 OA
ENDBRANCH   2   4
ENDBRANCH   1   2
BRANCH   1   6
ATOM      6  C   UNL     1      62.919 -25.194  -6.781  0.00  0.00    -0.089 C 
BRANCH   6   7
ATOM      7  N   UNL     1      62.837 -26.185  -6.679  0.00  0.00    +0.374 N 
ATOM      8  C   UNL     1      63.587 -26.179  -6.018  0.00  0.00    -0.101 C 
ATOM      9  C   UNL     1      62.755 -27.177  -6.577  0.00  0.00    -0.101 C 
ATOM     10  C   UNL     1      62.087 -26.191  -7.341  0.00  0.00    -0.101 C 
ENDBRANCH   6   7
ENDBRANCH   1   6
TORSDOF 4
ENDMDL
MODEL 11
REMARK VINA RESULT:    -4.270     21.027     22.012
REMARK INTER + INTRA:          -3.111
REMARK INTER:                  -4.704
REMARK INTRA:                   1.593
REMARK UNBOUND:                 1.658
REMARK  Name = cpd223.pdb
REMARK  8 active torsions:
REMARK  status: ('A' for Active; 'I' for Inactive)
REMARK    1  A    between atoms: C_1  and  C_2
REMARK    2  A    between atoms: C_2  and  C_4
REMARK    3  A    between atoms: C_4  and  C_5
REMARK    4  A    between atoms: C_5  and  C_6
REMARK    5  A    between atoms: C_6  and  N_7
REMARK    6  A    between atoms: N_7  and  C_8
REMARK    7  A    between atoms: N_7  and  C_9
REMARK    8  A    between atoms: N_7  and  C_10
REMARK                            x       y       z     vdW  Elec       q    Type
REMARK                         _______ _______ _______ _____ _____    ______ ____
ROOT
ATOM      1  C   UNL     1      45.189 -22.110 -42.707  0.00  0.00    -0.061 C 
ENDROOT
BRANCH   1   2
ATOM      2  C   UNL     1      44.282 -20.908 -42.392  0.00  0.00    +0.004 C 
BRANCH   2   4
ATOM      3  C   UNL     1      43.231 -21.071 -40.038  0.00  0.00    -0.006 C 
ATOM      4  C   UNL     1      43.126 -21.344 -41.514  0.00  0.00    +0.130 C 
ATOM      5  O   UNL     1      42.142 -21.896 -42.003  0.00  0.00    -0.298 OA
ENDBRANCH   2   4
ENDBRANCH   1   2
BRANCH   1   6
ATOM      6  C   UNL     1      46.699 -22.043 -41.786  0.00  0.00    -0.089 C 
BRANCH   6   7
ATOM      7  N   UNL     1      47.470 -22.646 -41.583  0.00  0.00    +0.374 N 
ATOM      8  C   UNL     1      48.063 -22.081 -42.158  0.00  0.00    -0.101 C 
ATOM      9  C   UNL     1      48.242 -23.249 -41.380  0.00  0.00    -0.101 C 
ATOM     10  C   UNL     1      46.878 -23.211 -41.008  0.00  0.00    -0.101 C 
ENDBRANCH   6   7
ENDBRANCH   1   6
TORSDOF 4
ENDMDL
MODEL 12
REMARK VINA RESULT:    -4.263     21.450     22.403
REMARK INTER + INTRA:          -3.103
REMARK INTER:                  -4.641
REMARK INTRA:                   1.538
REMARK UNBOUND:                 1.658
REMARK  Name = cpd223.pdb
REMARK  8 active torsions:
REMARK  status: ('A' for Active; 'I' for Inactive)
REMARK    1  A    between atoms: C_1  and  C_2
REMARK    2  A    between atoms: C_2  and  C_4
REMARK    3  A    between atoms: C_4  and  C_5
REMARK    4  A    between atoms: C_5  and  C_6
REMARK    5  A    between atoms: C_6  and  N_7
REMARK    6  A    between atoms: N_7  and  C_8
REMARK    7  A    between atoms: N_7  and  C_9
REMARK    8  A    between atoms: N_7  and  C_10
REMARK                            x       y       z     vdW  Elec       q    Type
REMARK                         _______ _______ _______ _____ _____    ______ ____
ROOT
ATOM      1  C   UNL     1      45.184 -21.931 -42.440  0.00  0.00    -0.061 C 
ENDROOT
BRANCH   1   2
ATOM      2  C   UNL     1      44.877 -20.538 -43.014  0.00  0.00    +0.004 C 
BRANCH   2   4
ATOM      3  C   UNL     1      43.676 -20.334 -40.737  0.00  0.00    -0.006 C 
ATOM      4  C   UNL     1      44.267 -19.656 -41.942  0.00  0.00    +0.130 C 
ATOM      5  O   UNL     1      44.267 -18.432 -42.064  0.00  0.00    -0.298 OA
ENDBRANCH   2   4
ENDBRANCH   1   2
BRANCH   1   6
ATOM      6  C   UNL     1      46.905 -22.116 -42.069  0.00  0.00    -0.089 C 
BRANCH   6   7
ATOM      7  N   UNL     1      47.485 -22.719 -41.521  0.00  0.00    +0.374 N 
ATOM      8  C   UNL     1      47.403 -22.093 -40.746  0.00  0.00    -0.101 C 
ATOM      9  C   UNL     1      48.065 -23.322 -40.974  0.00  0.00    -0.101 C 
ATOM     10  C   UNL     1      47.566 -23.345 -42.297  0.00  0.00    -0.101 C 
ENDBRANCH   6   7
ENDBRANCH   1   6
TORSDOF 4
ENDMDL
MODEL 13
REMARK VINA RESULT:    -4.249      8.968     10.139
REMARK INTER + INTRA:          -3.088
REMARK INTER:                  -4.597
REMARK INTRA:                   1.509
REMARK UNBOUND:                 1.658
REMARK  Name = cpd223.pdb
REMARK  8 active torsions:
REMARK  status: ('A' for Active; 'I' for Inactive)
REMARK    1  A    between atoms: C_1  and  C_2
REMARK    2  A    between atoms: C_2  and  C_4
REMARK    3  A    between atoms: C_4  and  C_5
REMARK    4  A    between atoms: C_5  and  C_6
REMARK    5  A    between atoms: C_6  and  N_7
REMARK    6  A    between atoms: N_7  and  C_8
REMARK    7  A    between atoms: N_7  and  C_9
REMARK    8  A    between atoms: N_7  and  C_10
REMARK                            x       y       z     vdW  Elec       q    Type
REMARK                         _______ _______ _______ _____ _____    ______ ____
ROOT
ATOM      1  C   UNL     1      39.441 -35.870 -32.279  0.00  0.00    -0.061 C 
ENDROOT
BRANCH   1   2
ATOM      2  C   UNL     1      38.482 -34.774 -31.787  0.00  0.00    +0.004 C 
BRANCH   2   4
ATOM      3  C   UNL     1      37.407 -36.839 -30.670  0.00  0.00    -0.006 C 
ATOM      4  C   UNL     1      37.291 -35.400 -31.089  0.00  0.00    +0.130 C 
ATOM      5  O   UNL     1      36.274 -34.742 -30.876  0.00  0.00    -0.298 OA
ENDBRANCH   2   4
ENDBRANCH   1   2
BRANCH   1   6
ATOM      6  C   UNL     1      40.955 -35.869 -31.361  0.00  0.00    -0.089 C 
BRANCH   6   7
ATOM      7  N   UNL     1      41.784 -36.425 -31.299  0.00  0.00    +0.374 N 
ATOM      8  C   UNL     1      41.327 -37.034 -30.651  0.00  0.00    -0.101 C 
ATOM      9  C   UNL     1      42.613 -36.980 -31.236  0.00  0.00    -0.101 C 
ATOM     10  C   UNL     1      42.241 -35.815 -31.947  0.00  0.00    -0.101 C 
ENDBRANCH   6   7
ENDBRANCH   1   6
TORSDOF 4
ENDMDL
MODEL 14
REMARK VINA RESULT:    -4.240      9.509     10.541
REMARK INTER + INTRA:          -3.077
REMARK INTER:                  -4.624
REMARK INTRA:                   1.547
REMARK UNBOUND:                 1.658
REMARK  Name = cpd223.pdb
REMARK  8 active torsions:
REMARK  status: ('A' for Active; 'I' for Inactive)
REMARK    1  A    between atoms: C_1  and  C_2
REMARK    2  A    between atoms: C_2  and  C_4
REMARK    3  A    between atoms: C_4  and  C_5
REMARK    4  A    between atoms: C_5  and  C_6
REMARK    5  A    between atoms: C_6  and  N_7
REMARK    6  A    between atoms: N_7  and  C_8
REMARK    7  A    between atoms: N_7  and  C_9
REMARK    8  A    between atoms: N_7  and  C_10
REMARK                            x       y       z     vdW  Elec       q    Type
REMARK                         _______ _______ _______ _____ _____    ______ ____
ROOT
ATOM      1  C   UNL     1      37.670 -37.253 -30.423  0.00  0.00    -0.061 C 
ENDROOT
BRANCH   1   2
ATOM      2  C   UNL     1      38.516 -36.104 -30.998  0.00  0.00    +0.004 C 
BRANCH   2   4
ATOM      3  C   UNL     1      40.619 -36.203 -32.494  0.00  0.00    -0.006 C 
ATOM      4  C   UNL     1      39.948 -36.561 -31.196  0.00  0.00    +0.130 C 
ATOM      5  O   UNL     1      40.530 -37.197 -30.319  0.00  0.00    -0.298 OA
ENDBRANCH   2   4
ENDBRANCH   1   2
BRANCH   1   6
ATOM      6  C   UNL     1      37.088 -36.878 -28.794  0.00  0.00    -0.089 C 
BRANCH   6   7
ATOM      7  N   UNL     1      36.509 -37.303 -28.098  0.00  0.00    +0.374 N 
ATOM      8  C   UNL     1      37.283 -37.857 -27.792  0.00  0.00    -0.101 C 
ATOM      9  C   UNL     1      35.929 -37.727 -27.402  0.00  0.00    -0.101 C 
ATOM     10  C   UNL     1      35.734 -36.749 -28.404  0.00  0.00    -0.101 C 
ENDBRANCH   6   7
ENDBRANCH   1   6
TORSDOF 4
ENDMDL
MODEL 15
REMARK VINA RESULT:    -4.219     26.527     27.208
REMARK INTER + INTRA:          -3.054
REMARK INTER:                  -4.655
REMARK INTRA:                   1.601
REMARK UNBOUND:                 1.658
REMARK  Name = cpd223.pdb
REMARK  8 active torsions:
REMARK  status: ('A' for Active; 'I' for Inactive)
REMARK    1  A    between atoms: C_1  and  C_2
REMARK    2  A    between atoms: C_2  and  C_4
REMARK    3  A    between atoms: C_4  and  C_5
REMARK    4  A    between atoms: C_5  and  C_6
REMARK    5  A    between atoms: C_6  and  N_7
REMARK    6  A    between atoms: N_7  and  C_8
REMARK    7  A    between atoms: N_7  and  C_9
REMARK    8  A    between atoms: N_7  and  C_10
REMARK                            x       y       z     vdW  Elec       q    Type
REMARK                         _______ _______ _______ _____ _____    ______ ____
ROOT
ATOM      1  C   UNL     1      57.284 -22.379 -48.472  0.00  0.00    -0.061 C 
ENDROOT
BRANCH   1   2
ATOM      2  C   UNL     1      56.486 -23.617 -48.913  0.00  0.00    +0.004 C 
BRANCH   2   4
ATOM      3  C   UNL     1      56.177 -23.110 -51.427  0.00  0.00    -0.006 C 
ATOM      4  C   UNL     1      55.563 -23.259 -50.062  0.00  0.00    +0.130 C 
ATOM      5  O   UNL     1      54.358 -23.103 -49.872  0.00  0.00    -0.298 OA
ENDBRANCH   2   4
ENDBRANCH   1   2
BRANCH   1   6
ATOM      6  C   UNL     1      56.977 -21.979 -46.775  0.00  0.00    -0.089 C 
BRANCH   6   7
ATOM      7  N   UNL     1      56.912 -21.159 -46.206  0.00  0.00    +0.374 N 
ATOM      8  C   UNL     1      55.915 -21.183 -46.285  0.00  0.00    -0.101 C 
ATOM      9  C   UNL     1      56.847 -20.339 -45.638  0.00  0.00    -0.101 C 
ATOM     10  C   UNL     1      57.909 -21.135 -46.128  0.00  0.00    -0.101 C 
ENDBRANCH   6   7
ENDBRANCH   1   6
TORSDOF 4
ENDMDL
MODEL 16
REMARK VINA RESULT:    -4.154      9.253     10.099
REMARK INTER + INTRA:          -2.981
REMARK INTER:                  -4.719
REMARK INTRA:                   1.737
REMARK UNBOUND:                 1.658
REMARK  Name = cpd223.pdb
REMARK  8 active torsions:
REMARK  status: ('A' for Active; 'I' for Inactive)
REMARK    1  A    between atoms: C_1  and  C_2
REMARK    2  A    between atoms: C_2  and  C_4
REMARK    3  A    between atoms: C_4  and  C_5
REMARK    4  A    between atoms: C_5  and  C_6
REMARK    5  A    between atoms: C_6  and  N_7
REMARK    6  A    between atoms: N_7  and  C_8
REMARK    7  A    between atoms: N_7  and  C_9
REMARK    8  A    between atoms: N_7  and  C_10
REMARK                            x       y       z     vdW  Elec       q    Type
REMARK                         _______ _______ _______ _____ _____    ______ ____
ROOT
ATOM      1  C   UNL     1      38.985 -35.967 -31.359  0.00  0.00    -0.061 C 
ENDROOT
BRANCH   1   2
ATOM      2  C   UNL     1      40.204 -36.755 -30.851  0.00  0.00    +0.004 C 
BRANCH   2   4
ATOM      3  C   UNL     1      42.351 -37.879 -31.744  0.00  0.00    -0.006 C 
ATOM      4  C   UNL     1      41.229 -36.899 -31.958  0.00  0.00    +0.130 C 
ATOM      5  O   UNL     1      41.134 -36.238 -32.990  0.00  0.00    -0.298 OA
ENDBRANCH   2   4
ENDBRANCH   1   2
BRANCH   1   6
ATOM      6  C   UNL     1      37.478 -36.584 -30.666  0.00  0.00    -0.089 C 
BRANCH   6   7
ATOM      7  N   UNL     1      36.730 -36.243 -30.096  0.00  0.00    +0.374 N 
ATOM      8  C   UNL     1      36.561 -35.511 -30.755  0.00  0.00    -0.101 C 
ATOM      9  C   UNL     1      35.983 -35.902 -29.525  0.00  0.00    -0.101 C 
ATOM     10  C   UNL     1      36.899 -36.976 -29.436  0.00  0.00    -0.101 C 
ENDBRANCH   6   7
ENDBRANCH   1   6
TORSDOF 4
ENDMDL
MODEL 17
REMARK VINA RESULT:    -3.859     29.025     29.712
REMARK INTER + INTRA:          -2.652
REMARK INTER:                  -4.177
REMARK INTRA:                   1.526
REMARK UNBOUND:                 1.658
REMARK  Name = cpd223.pdb
REMARK  8 active torsions:
REMARK  status: ('A' for Active; 'I' for Inactive)
REMARK    1  A    between atoms: C_1  and  C_2
REMARK    2  A    between atoms: C_2  and  C_4
REMARK    3  A    between atoms: C_4  and  C_5
REMARK    4  A    between atoms: C_5  and  C_6
REMARK    5  A    between atoms: C_6  and  N_7
REMARK    6  A    between atoms: N_7  and  C_8
REMARK    7  A    between atoms: N_7  and  C_9
REMARK    8  A    between atoms: N_7  and  C_10
REMARK                            x       y       z     vdW  Elec       q    Type
REMARK                         _______ _______ _______ _____ _____    ______ ____
ROOT
ATOM      1  C   UNL     1      62.431 -13.865 -31.847  0.00  0.00    -0.061 C 
ENDROOT
BRANCH   1   2
ATOM      2  C   UNL     1      60.938 -14.233 -31.854  0.00  0.00    +0.004 C 
BRANCH   2   4
ATOM      3  C   UNL     1      59.965 -13.139 -29.727  0.00  0.00    -0.006 C 
ATOM      4  C   UNL     1      60.124 -13.121 -31.222  0.00  0.00    +0.130 C 
ATOM      5  O   UNL     1      59.622 -12.240 -31.918  0.00  0.00    -0.298 OA
ENDBRANCH   2   4
ENDBRANCH   1   2
BRANCH   1   6
ATOM      6  C   UNL     1      63.350 -14.898 -30.743  0.00  0.00    -0.089 C 
BRANCH   6   7
ATOM      7  N   UNL     1      64.274 -14.940 -30.363  0.00  0.00    +0.374 N 
ATOM      8  C   UNL     1      64.008 -14.299 -29.643  0.00  0.00    -0.101 C 
ATOM      9  C   UNL     1      65.199 -14.982 -29.984  0.00  0.00    -0.101 C 
ATOM     10  C   UNL     1      64.541 -15.581 -31.083  0.00  0.00    -0.101 C 
ENDBRANCH   6   7
ENDBRANCH   1   6
TORSDOF 4
ENDMDL
MODEL 18
REMARK VINA RESULT:    -3.810     29.515     29.872
REMARK INTER + INTRA:          -2.598
REMARK INTER:                  -4.172
REMARK INTRA:                   1.574
REMARK UNBOUND:                 1.658
REMARK  Name = cpd223.pdb
REMARK  8 active torsions:
REMARK  status: ('A' for Active; 'I' for Inactive)
REMARK    1  A    between atoms: C_1  and  C_2
REMARK    2  A    between atoms: C_2  and  C_4
REMARK    3  A    between atoms: C_4  and  C_5
REMARK    4  A    between atoms: C_5  and  C_6
REMARK    5  A    between atoms: C_6  and  N_7
REMARK    6  A    between atoms: N_7  and  C_8
REMARK    7  A    between atoms: N_7  and  C_9
REMARK    8  A    between atoms: N_7  and  C_10
REMARK                            x       y       z     vdW  Elec       q    Type
REMARK                         _______ _______ _______ _____ _____    ______ ____
ROOT
ATOM      1  C   UNL     1      64.342 -15.268 -30.896  0.00  0.00    -0.061 C 
ENDROOT
BRANCH   1   2
ATOM      2  C   UNL     1      65.755 -14.891 -30.418  0.00  0.00    +0.004 C 
BRANCH   2   4
ATOM      3  C   UNL     1      66.382 -16.948 -31.849  0.00  0.00    -0.006 C 
ATOM      4  C   UNL     1      66.724 -16.018 -30.717  0.00  0.00    +0.130 C 
ATOM      5  O   UNL     1      67.750 -16.154 -30.053  0.00  0.00    -0.298 OA
ENDBRANCH   2   4
ENDBRANCH   1   2
BRANCH   1   6
ATOM      6  C   UNL     1      63.209 -13.923 -30.699  0.00  0.00    -0.089 C 
BRANCH   6   7
ATOM      7  N   UNL     1      62.229 -13.757 -30.809  0.00  0.00    +0.374 N 
ATOM      8  C   UNL     1      62.369 -13.579 -31.783  0.00  0.00    -0.101 C 
ATOM      9  C   UNL     1      61.249 -13.591 -30.919  0.00  0.00    -0.101 C 
ATOM     10  C   UNL     1      62.089 -13.936 -29.835  0.00  0.00    -0.101 C 
ENDBRANCH   6   7
ENDBRANCH   1   6
TORSDOF 4
ENDMDL
MODEL 19
REMARK VINA RESULT:    -3.801     11.014     11.891
REMARK INTER + INTRA:          -2.587
REMARK INTER:                  -4.170
REMARK INTRA:                   1.583
REMARK UNBOUND:                 1.658
REMARK  Name = cpd223.pdb
REMARK  8 active torsions:
REMARK  status: ('A' for Active; 'I' for Inactive)
REMARK    1  A    between atoms: C_1  and  C_2
REMARK    2  A    between atoms: C_2  and  C_4
REMARK    3  A    between atoms: C_4  and  C_5
REMARK    4  A    between atoms: C_5  and  C_6
REMARK    5  A    between atoms: C_6  and  N_7
REMARK    6  A    between atoms: N_7  and  C_8
REMARK    7  A    between atoms: N_7  and  C_9
REMARK    8  A    between atoms: N_7  and  C_10
REMARK                            x       y       z     vdW  Elec       q    Type
REMARK                         _______ _______ _______ _____ _____    ______ ____
ROOT
ATOM      1  C   UNL     1      37.561 -35.792 -30.841  0.00  0.00    -0.061 C 
ENDROOT
BRANCH   1   2
ATOM      2  C   UNL     1      38.353 -35.042 -31.926  0.00  0.00    +0.004 C 
BRANCH   2   4
ATOM      3  C   UNL     1      40.127 -36.790 -31.241  0.00  0.00    -0.006 C 
ATOM      4  C   UNL     1      39.629 -35.793 -32.251  0.00  0.00    +0.130 C 
ATOM      5  O   UNL     1      40.224 -35.588 -33.308  0.00  0.00    -0.298 OA
ENDBRANCH   2   4
ENDBRANCH   1   2
BRANCH   1   6
ATOM      6  C   UNL     1      35.830 -35.438 -30.940  0.00  0.00    -0.089 C 
BRANCH   6   7
ATOM      7  N   UNL     1      35.019 -35.539 -30.364  0.00  0.00    +0.374 N 
ATOM      8  C   UNL     1      34.847 -36.439 -30.764  0.00  0.00    -0.101 C 
ATOM      9  C   UNL     1      34.208 -35.640 -29.788  0.00  0.00    -0.101 C 
ATOM     10  C   UNL     1      35.191 -34.639 -29.964  0.00  0.00    -0.101 C 
ENDBRANCH   6   7
ENDBRANCH   1   6
TORSDOF 4
ENDMDL
MODEL 20
REMARK VINA RESULT:    -3.788     30.034     31.423
REMARK INTER + INTRA:          -2.573
REMARK INTER:                  -4.112
REMARK INTRA:                   1.539
REMARK UNBOUND:                 1.658
REMARK  Name = cpd223.pdb
REMARK  8 active torsions:
REMARK  status: ('A' for Active; 'I' for Inactive)
REMARK    1  A    between atoms: C_1  and  C_2
REMARK    2  A    between atoms: C_2  and  C_4
REMARK    3  A    between atoms: C_4  and  C_5
REMARK    4  A    between atoms: C_5  and  C_6
REMARK    5  A    between atoms: C_6  and  N_7
REMARK    6  A    between atoms: N_7  and  C_8
REMARK    7  A    between atoms: N_7  and  C_9
REMARK    8  A    between atoms: N_7  and  C_10
REMARK                            x       y       z     vdW  Elec       q    Type
REMARK                         _______ _______ _______ _____ _____    ______ ____
ROOT
ATOM      1  C   UNL     1      63.600 -24.554  -8.095  0.00  0.00    -0.061 C 
ENDROOT
BRANCH   1   2
ATOM      2  C   UNL     1      62.367 -25.426  -7.807  0.00  0.00    +0.004 C 
BRANCH   2   4
ATOM      3  C   UNL     1      63.721 -26.217  -5.754  0.00  0.00    -0.006 C 
ATOM      4  C   UNL     1      62.730 -26.537  -6.840  0.00  0.00    +0.130 C 
ATOM      5  O   UNL     1      62.222 -27.651  -6.947  0.00  0.00    -0.298 OA
ENDBRANCH   2   4
ENDBRANCH   1   2
BRANCH   1   6
ATOM      6  C   UNL     1      63.284 -22.848  -7.744  0.00  0.00    -0.089 C 
BRANCH   6   7
ATOM      7  N   UNL     1      63.769 -21.975  -7.810  0.00  0.00    +0.374 N 
ATOM      8  C   UNL     1      64.229 -22.165  -6.943  0.00  0.00    -0.101 C 
ATOM      9  C   UNL     1      64.253 -21.103  -7.876  0.00  0.00    -0.101 C 
ATOM     10  C   UNL     1      63.309 -21.785  -8.677  0.00  0.00    -0.101 C 
ENDBRANCH   6   7
ENDBRANCH   1   6
TORSDOF 4
ENDMDL
