REMARK  Name = cpd223.pdb
REMARK  8 active torsions:
REMARK  status: ('A' for Active; 'I' for Inactive)
REMARK    1  A    between atoms: C_1  and  C_2
REMARK    2  A    between atoms: C_2  and  C_4
REMARK    3  A    between atoms: C_4  and  C_5
REMARK    4  A    between atoms: C_5  and  C_6
REMARK    5  A    between atoms: C_6  and  N_7
REMARK    6  A    between atoms: N_7  and  C_8
REMARK    7  A    between atoms: N_7  and  C_9
REMARK    8  A    between atoms: N_7  and  C_10
REMARK                            x       y       z     vdW  Elec       q    Type
REMARK                         _______ _______ _______ _____ _____    ______ ____
ROOT
ATOM      1  C   UNL     1      -2.312   0.178   0.155  0.00  0.00    -0.061 C 
ENDROOT
BRANCH   1   2
ATOM      2  C   UNL     1      -3.687  -0.478  -0.056  0.00  0.00    +0.004 C 
BRANCH   2   4
ATOM      3  C   UNL     1      -5.987   0.641  -0.414  0.00  0.00    -0.006 C 
ATOM      4  C   UNL     1      -4.783   0.432   0.463  0.00  0.00    +0.130 C 
ATOM      5  O   UNL     1      -4.681   0.970   1.564  0.00  0.00    -0.298 OA
ENDBRANCH   2   4
ENDBRANCH   1   2
BRANCH   1   6
ATOM      6  C   UNL     1      -1.000  -1.000   0.000  0.00  0.00    -0.089 C 
BRANCH   6   7
ATOM      7  N   UNL     1       0.000  -1.000   0.000  0.00  0.00    +0.374 N 
ATOM      8  C   UNL     1       0.000  -2.000   0.000  0.00  0.00    -0.101 C 
ATOM      9  C   UNL     1       1.000  -1.000   0.000  0.00  0.00    -0.101 C 
ATOM     10  C   UNL     1       0.000   0.000   0.000  0.00  0.00    -0.101 C 
ENDBRANCH   6   7
ENDBRANCH   1   6
TORSDOF 4
