MODEL 1
REMARK VINA RESULT:    -7.710      0.000      0.000
REMARK INTER + INTRA:         -14.157
REMARK INTER:                 -11.992
REMARK INTRA:                  -2.165
REMARK UNBOUND:                -2.165
REMARK  Name = cpd341.pdb
REMARK  11 active torsions:
REMARK  status: ('A' for Active; 'I' for Inactive)
REMARK    1  A    between atoms: C_1  and  C_2
REMARK    2  A    between atoms: C_2  and  C_4
REMARK    3  A    between atoms: C_4  and  C_5
REMARK    4  A    between atoms: C_4  and  C_13
REMARK    5  A    between atoms: C_5  and  C_6
REMARK    6  A    between atoms: C_9  and  O_10
REMARK    7  A    between atoms: N_15  and  C_16
REMARK    8  A    between atoms: C_16  and  C_17
REMARK    9  A    between atoms: C_17  and  C_18
REMARK   10  A    between atoms: C_18  and  N_19
REMARK   11  A    between atoms: N_19  and  C_20
REMARK                            x       y       z     vdW  Elec       q    Type
REMARK                         _______ _______ _______ _____ _____    ______ ____
ROOT
ATOM      1  C   UNL A   1      45.965 -18.354 -34.925  0.00  0.00    +0.013 C 
ENDROOT
BRANCH   1   4
ATOM      2  C   UNL A   1      47.162 -19.076 -36.961  0.00  0.00    +0.224 C 
ATOM      3  O   UNL A   1      48.265 -18.868 -36.458  0.00  0.00    -0.275 OA
ATOM      4  N   UNL A   1      45.985 -18.808 -36.302  0.00  0.00    -0.315 N 
ATOM      5  H   UNL A   1      45.132 -18.928 -36.779  0.00  0.00    +0.000 HD
BRANCH   2   6
ATOM      6  C   UNL A   1      47.041 -19.558 -38.395  0.00  0.00    +0.097 C 
BRANCH   6   8
ATOM      7  C   UNL A   1      47.034 -17.992 -40.444  0.00  0.00    -0.005 C 
ATOM      8  C   UNL A   1      46.318 -18.514 -39.224  0.00  0.00    +0.142 C 
ATOM      9  O   UNL A   1      45.218 -18.067 -38.894  0.00  0.00    -0.297 OA
ENDBRANCH   6   8
BRANCH   6  10
ATOM     10  C   UNL A   1      46.382 -20.936 -38.557  0.00  0.00    -0.010 C 
BRANCH  10  11
ATOM     11  C   UNL A   1      46.951 -21.759 -39.689  0.00  0.00    -0.046 A 
ATOM     12  C   UNL A   1      46.106 -22.296 -40.671  0.00  0.00    -0.055 A 
ATOM     13  C   UNL A   1      46.624 -23.069 -41.714  0.00  0.00    -0.020 A 
ATOM     14  C   UNL A   1      47.993 -23.299 -41.777  0.00  0.00    +0.117 A 
ATOM     15  C   UNL A   1      48.848 -22.769 -40.819  0.00  0.00    -0.020 A 
ATOM     16  C   UNL A   1      48.330 -22.000 -39.776  0.00  0.00    -0.055 A 
BRANCH  14  17
ATOM     17  O   UNL A   1      48.542 -24.044 -42.778  0.00  0.00    -0.507 OA
ATOM     18  H   UNL A   1      48.766 -24.940 -42.625  0.00  0.00    +0.000 HD
ENDBRANCH  14  17
ENDBRANCH  10  11
ENDBRANCH   6  10
ENDBRANCH   2   6
ENDBRANCH   1   4
BRANCH   1  19
ATOM     19  C   UNL A   1      44.675 -18.742 -34.207  0.00  0.00    -0.022 C 
BRANCH  19  20
ATOM     20  C   UNL A   1      44.086 -20.020 -34.800  0.00  0.00    +0.011 C 
BRANCH  20  21
ATOM     21  N   UNL A   1      42.703 -19.766 -35.193  0.00  0.00    -0.343 N 
ATOM     22  H   UNL A   1      42.283 -18.889 -35.041  0.00  0.00    +0.000 HD
BRANCH  21  23
ATOM     23  C   UNL A   1      41.987 -20.826 -35.800  0.00  0.00    +0.041 A 
ATOM     24  C   UNL A   1      41.993 -21.062 -37.191  0.00  0.00    -0.005 A 
ATOM     25  C   UNL A   1      41.217 -22.125 -37.671  0.00  0.00    +0.047 A 
ATOM     26  N   UNL A   1      40.420 -22.882 -36.881  0.00  0.00    -0.251 NA
ATOM     27  C   UNL A   1      40.359 -22.613 -35.573  0.00  0.00    +0.073 A 
ATOM     28  C   UNL A   1      39.503 -23.370 -34.783  0.00  0.00    -0.036 A 
ATOM     29  C   UNL A   1      39.368 -23.146 -33.412  0.00  0.00    -0.060 A 
ATOM     30  C   UNL A   1      40.110 -22.143 -32.806  0.00  0.00    -0.061 A 
ATOM     31  C   UNL A   1      40.979 -21.374 -33.579  0.00  0.00    -0.051 A 
ATOM     32  C   UNL A   1      41.117 -21.590 -34.972  0.00  0.00    +0.021 A 
ATOM     33  C   UNL A   1      41.140 -22.462 -39.139  0.00  0.00    -0.010 C 
ATOM     34  C   UNL A   1      42.272 -21.864 -39.963  0.00  0.00    -0.047 C 
ATOM     35  C   UNL A   1      42.431 -20.393 -39.617  0.00  0.00    -0.049 C 
ATOM     36  C   UNL A   1      42.820 -20.238 -38.147  0.00  0.00    -0.024 C 
ENDBRANCH  21  23
ENDBRANCH  20  21
ENDBRANCH  19  20
ENDBRANCH   1  19
TORSDOF 10
ENDMDL
MODEL 2
REMARK VINA RESULT:    -7.685      1.490      2.446
REMARK INTER + INTRA:         -14.118
REMARK INTER:                 -11.081
REMARK INTRA:                  -3.037
REMARK UNBOUND:                -2.165
REMARK  Name = cpd341.pdb
REMARK  11 active torsions:
REMARK  status: ('A' for Active; 'I' for Inactive)
REMARK    1  A    between atoms: C_1  and  C_2
REMARK    2  A    between atoms: C_2  and  C_4
REMARK    3  A    between atoms: C_4  and  C_5
REMARK    4  A    between atoms: C_4  and  C_13
REMARK    5  A    between atoms: C_5  and  C_6
REMARK    6  A    between atoms: C_9  and  O_10
REMARK    7  A    between atoms: N_15  and  C_16
REMARK    8  A    between atoms: C_16  and  C_17
REMARK    9  A    between atoms: C_17  and  C_18
REMARK   10  A    between atoms: C_18  and  N_19
REMARK   11  A    between atoms: N_19  and  C_20
REMARK                            x       y       z     vdW  Elec       q    Type
REMARK                         _______ _______ _______ _____ _____    ______ ____
ROOT
ATOM      1  C   UNL A   1      43.701 -18.208 -33.906  0.00  0.00    +0.013 C 
ENDROOT
BRANCH   1   4
ATOM      2  C   UNL A   1      45.461 -19.337 -35.218  0.00  0.00    +0.224 C 
ATOM      3  O   UNL A   1      45.177 -20.442 -34.759  0.00  0.00    -0.275 OA
ATOM      4  N   UNL A   1      44.824 -18.184 -34.822  0.00  0.00    -0.315 N 
ATOM      5  H   UNL A   1      45.140 -17.320 -35.170  0.00  0.00    +0.000 HD
BRANCH   2   6
ATOM      6  C   UNL A   1      46.615 -19.174 -36.191  0.00  0.00    +0.097 C 
BRANCH   6   8
ATOM      7  C   UNL A   1      48.725 -19.021 -34.716  0.00  0.00    -0.005 C 
ATOM      8  C   UNL A   1      47.695 -18.316 -35.561  0.00  0.00    +0.142 C 
ATOM      9  O   UNL A   1      47.707 -17.089 -35.686  0.00  0.00    -0.297 OA
ENDBRANCH   6   8
BRANCH   6  10
ATOM     10  C   UNL A   1      46.219 -18.628 -37.571  0.00  0.00    -0.010 C 
BRANCH  10  11
ATOM     11  C   UNL A   1      46.334 -19.641 -38.687  0.00  0.00    -0.046 A 
ATOM     12  C   UNL A   1      46.544 -20.997 -38.396  0.00  0.00    -0.055 A 
ATOM     13  C   UNL A   1      46.664 -21.936 -39.423  0.00  0.00    -0.020 A 
ATOM     14  C   UNL A   1      46.567 -21.518 -40.745  0.00  0.00    +0.117 A 
ATOM     15  C   UNL A   1      46.352 -20.181 -41.054  0.00  0.00    -0.020 A 
ATOM     16  C   UNL A   1      46.234 -19.242 -40.028  0.00  0.00    -0.055 A 
BRANCH  14  17
ATOM     17  O   UNL A   1      46.675 -22.400 -41.779  0.00  0.00    -0.507 OA
ATOM     18  H   UNL A   1      45.921 -22.617 -42.290  0.00  0.00    +0.000 HD
ENDBRANCH  14  17
ENDBRANCH  10  11
ENDBRANCH   6  10
ENDBRANCH   2   6
ENDBRANCH   1   4
BRANCH   1  19
ATOM     19  C   UNL A   1      42.360 -18.136 -34.634  0.00  0.00    -0.022 C 
BRANCH  19  20
ATOM     20  C   UNL A   1      41.467 -19.313 -34.247  0.00  0.00    +0.011 C 
BRANCH  20  21
ATOM     21  N   UNL A   1      42.139 -20.558 -34.610  0.00  0.00    -0.343 N 
ATOM     22  H   UNL A   1      42.999 -20.810 -34.204  0.00  0.00    +0.000 HD
BRANCH  21  23
ATOM     23  C   UNL A   1      41.508 -21.390 -35.567  0.00  0.00    +0.041 A 
ATOM     24  C   UNL A   1      41.806 -21.341 -36.945  0.00  0.00    -0.005 A 
ATOM     25  C   UNL A   1      41.088 -22.194 -37.793  0.00  0.00    +0.047 A 
ATOM     26  N   UNL A   1      40.090 -23.003 -37.366  0.00  0.00    -0.251 NA
ATOM     27  C   UNL A   1      39.760 -22.996 -36.070  0.00  0.00    +0.073 A 
ATOM     28  C   UNL A   1      38.704 -23.799 -35.655  0.00  0.00    -0.036 A 
ATOM     29  C   UNL A   1      38.285 -23.841 -34.324  0.00  0.00    -0.060 A 
ATOM     30  C   UNL A   1      38.937 -23.067 -33.376  0.00  0.00    -0.061 A 
ATOM     31  C   UNL A   1      40.003 -22.258 -33.770  0.00  0.00    -0.051 A 
ATOM     32  C   UNL A   1      40.430 -22.204 -35.120  0.00  0.00    +0.021 A 
ATOM     33  C   UNL A   1      41.315 -22.220 -39.284  0.00  0.00    -0.010 C 
ATOM     34  C   UNL A   1      42.637 -21.596 -39.711  0.00  0.00    -0.047 C 
ATOM     35  C   UNL A   1      42.810 -20.250 -39.025  0.00  0.00    -0.049 C 
ATOM     36  C   UNL A   1      42.874 -20.437 -37.510  0.00  0.00    -0.024 C 
ENDBRANCH  21  23
ENDBRANCH  20  21
ENDBRANCH  19  20
ENDBRANCH   1  19
TORSDOF 10
ENDMDL
MODEL 3
REMARK VINA RESULT:    -7.533      0.781      3.379
REMARK INTER + INTRA:         -13.881
REMARK INTER:                 -11.755
REMARK INTRA:                  -2.126
REMARK UNBOUND:                -2.165
REMARK  Name = cpd341.pdb
REMARK  11 active torsions:
REMARK  status: ('A' for Active; 'I' for Inactive)
REMARK    1  A    between atoms: C_1  and  C_2
REMARK    2  A    between atoms: C_2  and  C_4
REMARK    3  A    between atoms: C_4  and  C_5
REMARK    4  A    between atoms: C_4  and  C_13
REMARK    5  A    between atoms: C_5  and  C_6
REMARK    6  A    between atoms: C_9  and  O_10
REMARK    7  A    between atoms: N_15  and  C_16
REMARK    8  A    between atoms: C_16  and  C_17
REMARK    9  A    between atoms: C_17  and  C_18
REMARK   10  A    between atoms: C_18  and  N_19
REMARK   11  A    between atoms: N_19  and  C_20
REMARK                            x       y       z     vdW  Elec       q    Type
REMARK                         _______ _______ _______ _____ _____    ______ ____
ROOT
ATOM      1  C   UNL A   1      46.085 -18.415 -35.137  0.00  0.00    +0.013 C 
ENDROOT
BRANCH   1   4
ATOM      2  C   UNL A   1      46.866 -18.471 -37.479  0.00  0.00    +0.224 C 
ATOM      3  O   UNL A   1      47.231 -17.298 -37.447  0.00  0.00    -0.275 OA
ATOM      4  N   UNL A   1      46.251 -19.085 -36.412  0.00  0.00    -0.315 N 
ATOM      5  H   UNL A   1      45.916 -20.004 -36.517  0.00  0.00    +0.000 HD
BRANCH   2   6
ATOM      6  C   UNL A   1      46.988 -19.289 -38.752  0.00  0.00    +0.097 C 
BRANCH   6   8
ATOM      7  C   UNL A   1      45.011 -18.226 -40.023  0.00  0.00    -0.005 C 
ATOM      8  C   UNL A   1      46.496 -18.472 -39.931  0.00  0.00    +0.142 C 
ATOM      9  O   UNL A   1      47.262 -18.069 -40.809  0.00  0.00    -0.297 OA
ENDBRANCH   6   8
BRANCH   6  10
ATOM     10  C   UNL A   1      46.290 -20.657 -38.706  0.00  0.00    -0.010 C 
BRANCH  10  11
ATOM     11  C   UNL A   1      46.809 -21.644 -39.726  0.00  0.00    -0.046 A 
ATOM     12  C   UNL A   1      48.135 -22.099 -39.664  0.00  0.00    -0.055 A 
ATOM     13  C   UNL A   1      48.625 -23.001 -40.611  0.00  0.00    -0.020 A 
ATOM     14  C   UNL A   1      47.784 -23.454 -41.620  0.00  0.00    +0.117 A 
ATOM     15  C   UNL A   1      46.466 -23.021 -41.696  0.00  0.00    -0.020 A 
ATOM     16  C   UNL A   1      45.977 -22.118 -40.751  0.00  0.00    -0.055 A 
BRANCH  14  17
ATOM     17  O   UNL A   1      48.218 -24.337 -42.564  0.00  0.00    -0.507 OA
ATOM     18  H   UNL A   1      49.101 -24.649 -42.542  0.00  0.00    +0.000 HD
ENDBRANCH  14  17
ENDBRANCH  10  11
ENDBRANCH   6  10
ENDBRANCH   2   6
ENDBRANCH   1   4
BRANCH   1  19
ATOM     19  C   UNL A   1      44.802 -18.838 -34.425  0.00  0.00    -0.022 C 
BRANCH  19  20
ATOM     20  C   UNL A   1      44.167 -20.042 -35.117  0.00  0.00    +0.011 C 
BRANCH  20  21
ATOM     21  N   UNL A   1      42.853 -19.659 -35.625  0.00  0.00    -0.343 N 
ATOM     22  H   UNL A   1      42.610 -18.713 -35.746  0.00  0.00    +0.000 HD
BRANCH  21  23
ATOM     23  C   UNL A   1      41.941 -20.697 -35.937  0.00  0.00    +0.041 A 
ATOM     24  C   UNL A   1      41.205 -21.395 -34.958  0.00  0.00    -0.005 A 
ATOM     25  C   UNL A   1      40.360 -22.424 -35.395  0.00  0.00    +0.047 A 
ATOM     26  N   UNL A   1      40.269 -22.816 -36.687  0.00  0.00    -0.251 NA
ATOM     27  C   UNL A   1      41.021 -22.200 -37.606  0.00  0.00    +0.073 A 
ATOM     28  C   UNL A   1      40.950 -22.644 -38.921  0.00  0.00    -0.036 A 
ATOM     29  C   UNL A   1      41.711 -22.068 -39.938  0.00  0.00    -0.060 A 
ATOM     30  C   UNL A   1      42.565 -21.015 -39.643  0.00  0.00    -0.061 A 
ATOM     31  C   UNL A   1      42.648 -20.551 -38.331  0.00  0.00    -0.051 A 
ATOM     32  C   UNL A   1      41.884 -21.135 -37.290  0.00  0.00    +0.021 A 
ATOM     33  C   UNL A   1      39.534 -23.244 -34.436  0.00  0.00    -0.010 C 
ATOM     34  C   UNL A   1      39.363 -22.597 -33.068  0.00  0.00    -0.047 C 
ATOM     35  C   UNL A   1      40.713 -22.121 -32.559  0.00  0.00    -0.049 C 
ATOM     36  C   UNL A   1      41.280 -21.050 -33.491  0.00  0.00    -0.024 C 
ENDBRANCH  21  23
ENDBRANCH  20  21
ENDBRANCH  19  20
ENDBRANCH   1  19
TORSDOF 10
ENDMDL
MODEL 4
REMARK VINA RESULT:    -7.409     16.821     20.460
REMARK INTER + INTRA:         -13.688
REMARK INTER:                 -10.936
REMARK INTRA:                  -2.752
REMARK UNBOUND:                -2.165
REMARK  Name = cpd341.pdb
REMARK  11 active torsions:
REMARK  status: ('A' for Active; 'I' for Inactive)
REMARK    1  A    between atoms: C_1  and  C_2
REMARK    2  A    between atoms: C_2  and  C_4
REMARK    3  A    between atoms: C_4  and  C_5
REMARK    4  A    between atoms: C_4  and  C_13
REMARK    5  A    between atoms: C_5  and  C_6
REMARK    6  A    between atoms: C_9  and  O_10
REMARK    7  A    between atoms: N_15  and  C_16
REMARK    8  A    between atoms: C_16  and  C_17
REMARK    9  A    between atoms: C_17  and  C_18
REMARK   10  A    between atoms: C_18  and  N_19
REMARK   11  A    between atoms: N_19  and  C_20
REMARK                            x       y       z     vdW  Elec       q    Type
REMARK                         _______ _______ _______ _____ _____    ______ ____
ROOT
ATOM      1  C   UNL A   1      33.085 -38.672 -26.802  0.00  0.00    +0.013 C 
ENDROOT
BRANCH   1   4
ATOM      2  C   UNL A   1      35.353 -38.405 -27.739  0.00  0.00    +0.224 C 
ATOM      3  O   UNL A   1      35.774 -37.861 -26.720  0.00  0.00    -0.275 OA
ATOM      4  N   UNL A   1      34.042 -38.791 -27.885  0.00  0.00    -0.315 N 
ATOM      5  H   UNL A   1      33.744 -39.157 -28.749  0.00  0.00    +0.000 HD
BRANCH   2   6
ATOM      6  C   UNL A   1      36.254 -38.595 -28.946  0.00  0.00    +0.097 C 
BRANCH   6   8
ATOM      7  C   UNL A   1      35.739 -40.155 -30.934  0.00  0.00    -0.005 C 
ATOM      8  C   UNL A   1      36.102 -40.007 -29.478  0.00  0.00    +0.142 C 
ATOM      9  O   UNL A   1      36.216 -40.994 -28.748  0.00  0.00    -0.297 OA
ENDBRANCH   6   8
BRANCH   6  10
ATOM     10  C   UNL A   1      37.733 -38.259 -28.703  0.00  0.00    -0.010 C 
BRANCH  10  11
ATOM     11  C   UNL A   1      38.355 -37.412 -29.789  0.00  0.00    -0.046 A 
ATOM     12  C   UNL A   1      37.546 -36.695 -30.683  0.00  0.00    -0.055 A 
ATOM     13  C   UNL A   1      38.114 -35.921 -31.697  0.00  0.00    -0.020 A 
ATOM     14  C   UNL A   1      39.498 -35.859 -31.813  0.00  0.00    +0.117 A 
ATOM     15  C   UNL A   1      40.317 -36.555 -30.934  0.00  0.00    -0.020 A 
ATOM     16  C   UNL A   1      39.749 -37.331 -29.923  0.00  0.00    -0.055 A 
BRANCH  14  17
ATOM     17  O   UNL A   1      40.096 -35.114 -32.786  0.00  0.00    -0.507 OA
ATOM     18  H   UNL A   1      40.419 -35.528 -33.561  0.00  0.00    +0.000 HD
ENDBRANCH  14  17
ENDBRANCH  10  11
ENDBRANCH   6  10
ENDBRANCH   2   6
ENDBRANCH   1   4
BRANCH   1  19
ATOM     19  C   UNL A   1      31.880 -37.816 -27.186  0.00  0.00    -0.022 C 
BRANCH  19  20
ATOM     20  C   UNL A   1      32.302 -36.375 -27.461  0.00  0.00    +0.011 C 
BRANCH  20  21
ATOM     21  N   UNL A   1      31.683 -35.928 -28.705  0.00  0.00    -0.343 N 
ATOM     22  H   UNL A   1      30.748 -35.618 -28.727  0.00  0.00    +0.000 HD
BRANCH  21  23
ATOM     23  C   UNL A   1      32.473 -35.957 -29.880  0.00  0.00    +0.041 A 
ATOM     24  C   UNL A   1      32.489 -37.050 -30.770  0.00  0.00    -0.005 A 
ATOM     25  C   UNL A   1      33.339 -36.969 -31.881  0.00  0.00    +0.047 A 
ATOM     26  N   UNL A   1      34.183 -35.933 -32.099  0.00  0.00    -0.251 NA
ATOM     27  C   UNL A   1      34.218 -34.929 -31.216  0.00  0.00    +0.073 A 
ATOM     28  C   UNL A   1      35.122 -33.894 -31.431  0.00  0.00    -0.036 A 
ATOM     29  C   UNL A   1      35.234 -32.816 -30.552  0.00  0.00    -0.060 A 
ATOM     30  C   UNL A   1      34.422 -32.760 -29.429  0.00  0.00    -0.061 A 
ATOM     31  C   UNL A   1      33.506 -33.785 -29.197  0.00  0.00    -0.051 A 
ATOM     32  C   UNL A   1      33.390 -34.887 -30.080  0.00  0.00    +0.021 A 
ATOM     33  C   UNL A   1      33.446 -38.082 -32.892  0.00  0.00    -0.010 C 
ATOM     34  C   UNL A   1      32.279 -39.060 -32.850  0.00  0.00    -0.047 C 
ATOM     35  C   UNL A   1      32.017 -39.477 -31.412  0.00  0.00    -0.049 C 
ATOM     36  C   UNL A   1      31.611 -38.263 -30.578  0.00  0.00    -0.024 C 
ENDBRANCH  21  23
ENDBRANCH  20  21
ENDBRANCH  19  20
ENDBRANCH   1  19
TORSDOF 10
ENDMDL
MODEL 5
REMARK VINA RESULT:    -7.311     16.398     19.522
REMARK INTER + INTRA:         -13.536
REMARK INTER:                 -11.793
REMARK INTRA:                  -1.743
REMARK UNBOUND:                -2.165
REMARK  Name = cpd341.pdb
REMARK  11 active torsions:
REMARK  status: ('A' for Active; 'I' for Inactive)
REMARK    1  A    between atoms: C_1  and  C_2
REMARK    2  A    between atoms: C_2  and  C_4
REMARK    3  A    between atoms: C_4  and  C_5
REMARK    4  A    between atoms: C_4  and  C_13
REMARK    5  A    between atoms: C_5  and  C_6
REMARK    6  A    between atoms: C_9  and  O_10
REMARK    7  A    between atoms: N_15  and  C_16
REMARK    8  A    between atoms: C_16  and  C_17
REMARK    9  A    between atoms: C_17  and  C_18
REMARK   10  A    between atoms: C_18  and  N_19
REMARK   11  A    between atoms: N_19  and  C_20
REMARK                            x       y       z     vdW  Elec       q    Type
REMARK                         _______ _______ _______ _____ _____    ______ ____
ROOT
ATOM      1  C   UNL A   1      33.202 -39.089 -31.743  0.00  0.00    +0.013 C 
ENDROOT
BRANCH   1   4
ATOM      2  C   UNL A   1      35.074 -38.430 -30.274  0.00  0.00    +0.224 C 
ATOM      3  O   UNL A   1      34.333 -37.824 -29.502  0.00  0.00    -0.275 OA
ATOM      4  N   UNL A   1      34.614 -39.036 -31.419  0.00  0.00    -0.315 N 
ATOM      5  H   UNL A   1      35.262 -39.446 -32.037  0.00  0.00    +0.000 HD
BRANCH   2   6
ATOM      6  C   UNL A   1      36.575 -38.456 -30.048  0.00  0.00    +0.097 C 
BRANCH   6   8
ATOM      7  C   UNL A   1      36.481 -40.918 -29.284  0.00  0.00    -0.005 C 
ATOM      8  C   UNL A   1      36.915 -39.502 -29.003  0.00  0.00    +0.142 C 
ATOM      9  O   UNL A   1      37.473 -39.207 -27.945  0.00  0.00    -0.297 OA
ENDBRANCH   6   8
BRANCH   6  10
ATOM     10  C   UNL A   1      37.194 -37.099 -29.684  0.00  0.00    -0.010 C 
BRANCH  10  11
ATOM     11  C   UNL A   1      38.290 -36.653 -30.624  0.00  0.00    -0.046 A 
ATOM     12  C   UNL A   1      39.623 -37.020 -30.386  0.00  0.00    -0.055 A 
ATOM     13  C   UNL A   1      40.642 -36.600 -31.244  0.00  0.00    -0.020 A 
ATOM     14  C   UNL A   1      40.327 -35.816 -32.347  0.00  0.00    +0.117 A 
ATOM     15  C   UNL A   1      39.012 -35.447 -32.603  0.00  0.00    -0.020 A 
ATOM     16  C   UNL A   1      37.994 -35.864 -31.745  0.00  0.00    -0.055 A 
BRANCH  14  17
ATOM     17  O   UNL A   1      41.289 -35.386 -33.211  0.00  0.00    -0.507 OA
ATOM     18  H   UNL A   1      41.443 -34.469 -33.322  0.00  0.00    +0.000 HD
ENDBRANCH  14  17
ENDBRANCH  10  11
ENDBRANCH   6  10
ENDBRANCH   2   6
ENDBRANCH   1   4
BRANCH   1  19
ATOM     19  C   UNL A   1      32.815 -38.068 -32.809  0.00  0.00    -0.022 C 
BRANCH  19  20
ATOM     20  C   UNL A   1      31.894 -36.997 -32.229  0.00  0.00    +0.011 C 
BRANCH  20  21
ATOM     21  N   UNL A   1      31.970 -35.802 -33.065  0.00  0.00    -0.343 N 
ATOM     22  H   UNL A   1      32.060 -35.870 -34.043  0.00  0.00    +0.000 HD
BRANCH  21  23
ATOM     23  C   UNL A   1      31.907 -34.543 -32.419  0.00  0.00    +0.041 A 
ATOM     24  C   UNL A   1      32.979 -34.004 -31.679  0.00  0.00    -0.005 A 
ATOM     25  C   UNL A   1      32.780 -32.763 -31.061  0.00  0.00    +0.047 A 
ATOM     26  N   UNL A   1      31.600 -32.099 -31.085  0.00  0.00    -0.251 NA
ATOM     27  C   UNL A   1      30.563 -32.645 -31.728  0.00  0.00    +0.073 A 
ATOM     28  C   UNL A   1      29.347 -31.972 -31.707  0.00  0.00    -0.036 A 
ATOM     29  C   UNL A   1      28.210 -32.478 -32.339  0.00  0.00    -0.060 A 
ATOM     30  C   UNL A   1      28.284 -33.685 -33.018  0.00  0.00    -0.061 A 
ATOM     31  C   UNL A   1      29.496 -34.374 -33.056  0.00  0.00    -0.051 A 
ATOM     32  C   UNL A   1      30.652 -33.872 -32.411  0.00  0.00    +0.021 A 
ATOM     33  C   UNL A   1      33.852 -32.097 -30.235  0.00  0.00    -0.010 C 
ATOM     34  C   UNL A   1      35.249 -32.646 -30.490  0.00  0.00    -0.047 C 
ATOM     35  C   UNL A   1      35.213 -34.165 -30.451  0.00  0.00    -0.049 C 
ATOM     36  C   UNL A   1      34.314 -34.699 -31.565  0.00  0.00    -0.024 C 
ENDBRANCH  21  23
ENDBRANCH  20  21
ENDBRANCH  19  20
ENDBRANCH   1  19
TORSDOF 10
ENDMDL
MODEL 6
REMARK VINA RESULT:    -7.256     16.453     19.486
REMARK INTER + INTRA:         -13.451
REMARK INTER:                 -11.746
REMARK INTRA:                  -1.705
REMARK UNBOUND:                -2.165
REMARK  Name = cpd341.pdb
REMARK  11 active torsions:
REMARK  status: ('A' for Active; 'I' for Inactive)
REMARK    1  A    between atoms: C_1  and  C_2
REMARK    2  A    between atoms: C_2  and  C_4
REMARK    3  A    between atoms: C_4  and  C_5
REMARK    4  A    between atoms: C_4  and  C_13
REMARK    5  A    between atoms: C_5  and  C_6
REMARK    6  A    between atoms: C_9  and  O_10
REMARK    7  A    between atoms: N_15  and  C_16
REMARK    8  A    between atoms: C_16  and  C_17
REMARK    9  A    between atoms: C_17  and  C_18
REMARK   10  A    between atoms: C_18  and  N_19
REMARK   11  A    between atoms: N_19  and  C_20
REMARK                            x       y       z     vdW  Elec       q    Type
REMARK                         _______ _______ _______ _____ _____    ______ ____
ROOT
ATOM      1  C   UNL A   1      33.187 -39.036 -31.842  0.00  0.00    +0.013 C 
ENDROOT
BRANCH   1   4
ATOM      2  C   UNL A   1      35.027 -38.365 -30.338  0.00  0.00    +0.224 C 
ATOM      3  O   UNL A   1      34.263 -37.791 -29.564  0.00  0.00    -0.275 OA
ATOM      4  N   UNL A   1      34.594 -38.959 -31.501  0.00  0.00    -0.315 N 
ATOM      5  H   UNL A   1      35.258 -39.343 -32.118  0.00  0.00    +0.000 HD
BRANCH   2   6
ATOM      6  C   UNL A   1      36.525 -38.364 -30.095  0.00  0.00    +0.097 C 
BRANCH   6   8
ATOM      7  C   UNL A   1      36.448 -40.792 -29.226  0.00  0.00    -0.005 C 
ATOM      8  C   UNL A   1      36.865 -39.360 -29.002  0.00  0.00    +0.142 C 
ATOM      9  O   UNL A   1      37.409 -39.013 -27.952  0.00  0.00    -0.297 OA
ENDBRANCH   6   8
BRANCH   6  10
ATOM     10  C   UNL A   1      37.124 -36.985 -29.782  0.00  0.00    -0.010 C 
BRANCH  10  11
ATOM     11  C   UNL A   1      38.266 -36.592 -30.690  0.00  0.00    -0.046 A 
ATOM     12  C   UNL A   1      39.580 -36.980 -30.389  0.00  0.00    -0.055 A 
ATOM     13  C   UNL A   1      40.641 -36.609 -31.217  0.00  0.00    -0.020 A 
ATOM     14  C   UNL A   1      40.387 -35.852 -32.355  0.00  0.00    +0.117 A 
ATOM     15  C   UNL A   1      39.092 -35.464 -32.675  0.00  0.00    -0.020 A 
ATOM     16  C   UNL A   1      38.031 -35.832 -31.846  0.00  0.00    -0.055 A 
BRANCH  14  17
ATOM     17  O   UNL A   1      41.391 -35.470 -33.193  0.00  0.00    -0.507 OA
ATOM     18  H   UNL A   1      41.570 -34.560 -33.326  0.00  0.00    +0.000 HD
ENDBRANCH  14  17
ENDBRANCH  10  11
ENDBRANCH   6  10
ENDBRANCH   2   6
ENDBRANCH   1   4
BRANCH   1  19
ATOM     19  C   UNL A   1      32.800 -38.034 -32.927  0.00  0.00    -0.022 C 
BRANCH  19  20
ATOM     20  C   UNL A   1      31.825 -36.992 -32.383  0.00  0.00    +0.011 C 
BRANCH  20  21
ATOM     21  N   UNL A   1      32.014 -35.740 -33.109  0.00  0.00    -0.343 N 
ATOM     22  H   UNL A   1      32.265 -35.736 -34.061  0.00  0.00    +0.000 HD
BRANCH  21  23
ATOM     23  C   UNL A   1      31.825 -34.531 -32.396  0.00  0.00    +0.041 A 
ATOM     24  C   UNL A   1      30.613 -33.810 -32.411  0.00  0.00    -0.005 A 
ATOM     25  C   UNL A   1      30.564 -32.611 -31.690  0.00  0.00    +0.047 A 
ATOM     26  N   UNL A   1      31.631 -32.085 -31.043  0.00  0.00    -0.251 NA
ATOM     27  C   UNL A   1      32.800 -32.734 -31.088  0.00  0.00    +0.073 A 
ATOM     28  C   UNL A   1      33.897 -32.160 -30.457  0.00  0.00    -0.036 A 
ATOM     29  C   UNL A   1      35.156 -32.763 -30.468  0.00  0.00    -0.060 A 
ATOM     30  C   UNL A   1      35.330 -33.974 -31.120  0.00  0.00    -0.061 A 
ATOM     31  C   UNL A   1      34.241 -34.570 -31.756  0.00  0.00    -0.051 A 
ATOM     32  C   UNL A   1      32.962 -33.962 -31.756  0.00  0.00    +0.021 A 
ATOM     33  C   UNL A   1      29.325 -31.752 -31.644  0.00  0.00    -0.010 C 
ATOM     34  C   UNL A   1      28.057 -32.487 -32.058  0.00  0.00    -0.047 C 
ATOM     35  C   UNL A   1      28.307 -33.244 -33.352  0.00  0.00    -0.049 C 
ATOM     36  C   UNL A   1      29.388 -34.303 -33.142  0.00  0.00    -0.024 C 
ENDBRANCH  21  23
ENDBRANCH  20  21
ENDBRANCH  19  20
ENDBRANCH   1  19
TORSDOF 10
ENDMDL
MODEL 7
REMARK VINA RESULT:    -7.049     17.329     21.110
REMARK INTER + INTRA:         -13.129
REMARK INTER:                 -11.019
REMARK INTRA:                  -2.110
REMARK UNBOUND:                -2.165
REMARK  Name = cpd341.pdb
REMARK  11 active torsions:
REMARK  status: ('A' for Active; 'I' for Inactive)
REMARK    1  A    between atoms: C_1  and  C_2
REMARK    2  A    between atoms: C_2  and  C_4
REMARK    3  A    between atoms: C_4  and  C_5
REMARK    4  A    between atoms: C_4  and  C_13
REMARK    5  A    between atoms: C_5  and  C_6
REMARK    6  A    between atoms: C_9  and  O_10
REMARK    7  A    between atoms: N_15  and  C_16
REMARK    8  A    between atoms: C_16  and  C_17
REMARK    9  A    between atoms: C_17  and  C_18
REMARK   10  A    between atoms: C_18  and  N_19
REMARK   11  A    between atoms: N_19  and  C_20
REMARK                            x       y       z     vdW  Elec       q    Type
REMARK                         _______ _______ _______ _____ _____    ______ ____
ROOT
ATOM      1  C   UNL A   1      33.401 -36.906 -32.400  0.00  0.00    +0.013 C 
ENDROOT
BRANCH   1   4
ATOM      2  C   UNL A   1      35.622 -36.377 -31.461  0.00  0.00    +0.224 C 
ATOM      3  O   UNL A   1      35.456 -35.166 -31.596  0.00  0.00    -0.275 OA
ATOM      4  N   UNL A   1      34.691 -37.302 -31.871  0.00  0.00    -0.315 N 
ATOM      5  H   UNL A   1      34.907 -38.260 -31.803  0.00  0.00    +0.000 HD
BRANCH   2   6
ATOM      6  C   UNL A   1      36.927 -36.926 -30.914  0.00  0.00    +0.097 C 
BRANCH   6   8
ATOM      7  C   UNL A   1      36.080 -36.877 -28.478  0.00  0.00    -0.005 C 
ATOM      8  C   UNL A   1      36.664 -37.671 -29.619  0.00  0.00    +0.142 C 
ATOM      9  O   UNL A   1      36.961 -38.860 -29.480  0.00  0.00    -0.297 OA
ENDBRANCH   6   8
BRANCH   6  10
ATOM     10  C   UNL A   1      38.035 -35.879 -30.725  0.00  0.00    -0.010 C 
BRANCH  10  11
ATOM     11  C   UNL A   1      39.420 -36.385 -31.058  0.00  0.00    -0.046 A 
ATOM     12  C   UNL A   1      40.029 -36.040 -32.274  0.00  0.00    -0.055 A 
ATOM     13  C   UNL A   1      41.303 -36.515 -32.593  0.00  0.00    -0.020 A 
ATOM     14  C   UNL A   1      41.973 -37.333 -31.690  0.00  0.00    +0.117 A 
ATOM     15  C   UNL A   1      41.390 -37.680 -30.478  0.00  0.00    -0.020 A 
ATOM     16  C   UNL A   1      40.116 -37.207 -30.160  0.00  0.00    -0.055 A 
BRANCH  14  17
ATOM     17  O   UNL A   1      43.219 -37.817 -31.959  0.00  0.00    -0.507 OA
ATOM     18  H   UNL A   1      43.735 -38.187 -31.271  0.00  0.00    +0.000 HD
ENDBRANCH  14  17
ENDBRANCH  10  11
ENDBRANCH   6  10
ENDBRANCH   2   6
ENDBRANCH   1   4
BRANCH   1  19
ATOM     19  C   UNL A   1      32.242 -37.536 -31.631  0.00  0.00    -0.022 C 
BRANCH  19  20
ATOM     20  C   UNL A   1      32.209 -37.034 -30.189  0.00  0.00    +0.011 C 
BRANCH  20  21
ATOM     21  N   UNL A   1      31.711 -38.102 -29.327  0.00  0.00    -0.343 N 
ATOM     22  H   UNL A   1      30.808 -38.476 -29.448  0.00  0.00    +0.000 HD
BRANCH  21  23
ATOM     23  C   UNL A   1      32.573 -38.581 -28.310  0.00  0.00    +0.041 A 
ATOM     24  C   UNL A   1      32.740 -37.928 -27.072  0.00  0.00    -0.005 A 
ATOM     25  C   UNL A   1      33.648 -38.487 -26.163  0.00  0.00    +0.047 A 
ATOM     26  N   UNL A   1      34.410 -39.570 -26.441  0.00  0.00    -0.251 NA
ATOM     27  C   UNL A   1      34.303 -40.147 -27.643  0.00  0.00    +0.073 A 
ATOM     28  C   UNL A   1      35.124 -41.232 -27.929  0.00  0.00    -0.036 A 
ATOM     29  C   UNL A   1      35.086 -41.882 -29.163  0.00  0.00    -0.060 A 
ATOM     30  C   UNL A   1      34.204 -41.447 -30.140  0.00  0.00    -0.061 A 
ATOM     31  C   UNL A   1      33.368 -40.365 -29.872  0.00  0.00    -0.051 A 
ATOM     32  C   UNL A   1      33.404 -39.693 -28.625  0.00  0.00    +0.021 A 
ATOM     33  C   UNL A   1      33.915 -37.868 -24.814  0.00  0.00    -0.010 C 
ATOM     34  C   UNL A   1      32.838 -36.889 -24.367  0.00  0.00    -0.047 C 
ATOM     35  C   UNL A   1      32.523 -35.926 -25.500  0.00  0.00    -0.049 C 
ATOM     36  C   UNL A   1      31.962 -36.691 -26.698  0.00  0.00    -0.024 C 
ENDBRANCH  21  23
ENDBRANCH  20  21
ENDBRANCH  19  20
ENDBRANCH   1  19
TORSDOF 10
ENDMDL
MODEL 8
REMARK VINA RESULT:    -7.002      2.685      7.542
REMARK INTER + INTRA:         -13.056
REMARK INTER:                 -10.838
REMARK INTRA:                  -2.218
REMARK UNBOUND:                -2.165
REMARK  Name = cpd341.pdb
REMARK  11 active torsions:
REMARK  status: ('A' for Active; 'I' for Inactive)
REMARK    1  A    between atoms: C_1  and  C_2
REMARK    2  A    between atoms: C_2  and  C_4
REMARK    3  A    between atoms: C_4  and  C_5
REMARK    4  A    between atoms: C_4  and  C_13
REMARK    5  A    between atoms: C_5  and  C_6
REMARK    6  A    between atoms: C_9  and  O_10
REMARK    7  A    between atoms: N_15  and  C_16
REMARK    8  A    between atoms: C_16  and  C_17
REMARK    9  A    between atoms: C_17  and  C_18
REMARK   10  A    between atoms: C_18  and  N_19
REMARK   11  A    between atoms: N_19  and  C_20
REMARK                            x       y       z     vdW  Elec       q    Type
REMARK                         _______ _______ _______ _____ _____    ______ ____
ROOT
ATOM      1  C   UNL A   1      45.559 -18.985 -35.410  0.00  0.00    +0.013 C 
ENDROOT
BRANCH   1   4
ATOM      2  C   UNL A   1      43.304 -19.202 -36.391  0.00  0.00    +0.224 C 
ATOM      3  O   UNL A   1      43.075 -17.999 -36.279  0.00  0.00    -0.275 OA
ATOM      4  N   UNL A   1      44.472 -19.778 -35.949  0.00  0.00    -0.315 N 
ATOM      5  H   UNL A   1      44.572 -20.756 -36.001  0.00  0.00    +0.000 HD
BRANCH   2   6
ATOM      6  C   UNL A   1      42.251 -20.144 -36.945  0.00  0.00    +0.097 C 
BRANCH   6   8
ATOM      7  C   UNL A   1      43.062 -21.300 -39.103  0.00  0.00    -0.005 C 
ATOM      8  C   UNL A   1      42.322 -20.155 -38.460  0.00  0.00    +0.142 C 
ATOM      9  O   UNL A   1      41.846 -19.244 -39.141  0.00  0.00    -0.297 OA
ENDBRANCH   6   8
BRANCH   6  10
ATOM     10  C   UNL A   1      40.819 -19.859 -36.468  0.00  0.00    -0.010 C 
BRANCH  10  11
ATOM     11  C   UNL A   1      40.281 -20.885 -35.497  0.00  0.00    -0.046 A 
ATOM     12  C   UNL A   1      40.252 -20.613 -34.121  0.00  0.00    -0.055 A 
ATOM     13  C   UNL A   1      39.768 -21.562 -33.217  0.00  0.00    -0.020 A 
ATOM     14  C   UNL A   1      39.305 -22.783 -33.692  0.00  0.00    +0.117 A 
ATOM     15  C   UNL A   1      39.319 -23.069 -35.051  0.00  0.00    -0.020 A 
ATOM     16  C   UNL A   1      39.805 -22.122 -35.954  0.00  0.00    -0.055 A 
BRANCH  14  17
ATOM     17  O   UNL A   1      38.822 -23.737 -32.846  0.00  0.00    -0.507 OA
ATOM     18  H   UNL A   1      39.349 -24.043 -32.135  0.00  0.00    +0.000 HD
ENDBRANCH  14  17
ENDBRANCH  10  11
ENDBRANCH   6  10
ENDBRANCH   2   6
ENDBRANCH   1   4
BRANCH   1  19
ATOM     19  C   UNL A   1      46.904 -19.346 -36.037  0.00  0.00    -0.022 C 
BRANCH  19  20
ATOM     20  C   UNL A   1      46.726 -20.370 -37.156  0.00  0.00    +0.011 C 
BRANCH  20  21
ATOM     21  N   UNL A   1      47.440 -19.906 -38.342  0.00  0.00    -0.343 N 
ATOM     22  H   UNL A   1      48.370 -19.587 -38.284  0.00  0.00    +0.000 HD
BRANCH  21  23
ATOM     23  C   UNL A   1      46.749 -19.931 -39.577  0.00  0.00    +0.041 A 
ATOM     24  C   UNL A   1      45.839 -18.928 -39.971  0.00  0.00    -0.005 A 
ATOM     25  C   UNL A   1      45.195 -19.087 -41.205  0.00  0.00    +0.047 A 
ATOM     26  N   UNL A   1      45.352 -20.176 -41.994  0.00  0.00    -0.251 NA
ATOM     27  C   UNL A   1      46.161 -21.160 -41.586  0.00  0.00    +0.073 A 
ATOM     28  C   UNL A   1      46.277 -22.291 -42.386  0.00  0.00    -0.036 A 
ATOM     29  C   UNL A   1      47.087 -23.370 -42.027  0.00  0.00    -0.060 A 
ATOM     30  C   UNL A   1      47.807 -23.323 -40.843  0.00  0.00    -0.061 A 
ATOM     31  C   UNL A   1      47.708 -22.195 -40.028  0.00  0.00    -0.051 A 
ATOM     32  C   UNL A   1      46.883 -21.099 -40.380  0.00  0.00    +0.021 A 
ATOM     33  C   UNL A   1      44.196 -18.083 -41.723  0.00  0.00    -0.010 C 
ATOM     34  C   UNL A   1      44.279 -16.727 -41.034  0.00  0.00    -0.047 C 
ATOM     35  C   UNL A   1      44.319 -16.924 -39.527  0.00  0.00    -0.049 C 
ATOM     36  C   UNL A   1      45.573 -17.702 -39.132  0.00  0.00    -0.024 C 
ENDBRANCH  21  23
ENDBRANCH  20  21
ENDBRANCH  19  20
ENDBRANCH   1  19
TORSDOF 10
ENDMDL
MODEL 9
REMARK VINA RESULT:    -6.947     17.594     21.872
REMARK INTER + INTRA:         -12.970
REMARK INTER:                 -10.618
REMARK INTRA:                  -2.351
REMARK UNBOUND:                -2.165
REMARK  Name = cpd341.pdb
REMARK  11 active torsions:
REMARK  status: ('A' for Active; 'I' for Inactive)
REMARK    1  A    between atoms: C_1  and  C_2
REMARK    2  A    between atoms: C_2  and  C_4
REMARK    3  A    between atoms: C_4  and  C_5
REMARK    4  A    between atoms: C_4  and  C_13
REMARK    5  A    between atoms: C_5  and  C_6
REMARK    6  A    between atoms: C_9  and  O_10
REMARK    7  A    between atoms: N_15  and  C_16
REMARK    8  A    between atoms: C_16  and  C_17
REMARK    9  A    between atoms: C_17  and  C_18
REMARK   10  A    between atoms: C_18  and  N_19
REMARK   11  A    between atoms: N_19  and  C_20
REMARK                            x       y       z     vdW  Elec       q    Type
REMARK                         _______ _______ _______ _____ _____    ______ ____
ROOT
ATOM      1  C   UNL A   1      34.018 -40.553 -29.565  0.00  0.00    +0.013 C 
ENDROOT
BRANCH   1   4
ATOM      2  C   UNL A   1      35.890 -39.004 -30.009  0.00  0.00    +0.224 C 
ATOM      3  O   UNL A   1      36.142 -39.526 -31.093  0.00  0.00    -0.275 OA
ATOM      4  N   UNL A   1      34.901 -39.471 -29.174  0.00  0.00    -0.315 N 
ATOM      5  H   UNL A   1      34.790 -39.059 -28.287  0.00  0.00    +0.000 HD
BRANCH   2   6
ATOM      6  C   UNL A   1      36.735 -37.859 -29.483  0.00  0.00    +0.097 C 
BRANCH   6   8
ATOM      7  C   UNL A   1      35.260 -35.817 -28.926  0.00  0.00    -0.005 C 
ATOM      8  C   UNL A   1      35.946 -37.074 -28.453  0.00  0.00    +0.142 C 
ATOM      9  O   UNL A   1      35.905 -37.411 -27.268  0.00  0.00    -0.297 OA
ENDBRANCH   6   8
BRANCH   6  10
ATOM     10  C   UNL A   1      37.298 -36.926 -30.566  0.00  0.00    -0.010 C 
BRANCH  10  11
ATOM     11  C   UNL A   1      38.807 -36.843 -30.579  0.00  0.00    -0.046 A 
ATOM     12  C   UNL A   1      39.567 -37.573 -29.654  0.00  0.00    -0.055 A 
ATOM     13  C   UNL A   1      40.961 -37.491 -29.652  0.00  0.00    -0.020 A 
ATOM     14  C   UNL A   1      41.598 -36.680 -30.585  0.00  0.00    +0.117 A 
ATOM     15  C   UNL A   1      40.864 -35.954 -31.514  0.00  0.00    -0.020 A 
ATOM     16  C   UNL A   1      39.470 -36.035 -31.514  0.00  0.00    -0.055 A 
BRANCH  14  17
ATOM     17  O   UNL A   1      42.956 -36.571 -30.622  0.00  0.00    -0.507 OA
ATOM     18  H   UNL A   1      43.445 -37.034 -31.273  0.00  0.00    +0.000 HD
ENDBRANCH  14  17
ENDBRANCH  10  11
ENDBRANCH   6  10
ENDBRANCH   2   6
ENDBRANCH   1   4
BRANCH   1  19
ATOM     19  C   UNL A   1      33.558 -41.384 -28.370  0.00  0.00    -0.022 C 
BRANCH  19  20
ATOM     20  C   UNL A   1      33.884 -40.676 -27.057  0.00  0.00    +0.011 C 
BRANCH  20  21
ATOM     21  N   UNL A   1      32.668 -40.054 -26.539  0.00  0.00    -0.343 N 
ATOM     22  H   UNL A   1      31.817 -40.548 -26.508  0.00  0.00    +0.000 HD
BRANCH  21  23
ATOM     23  C   UNL A   1      32.757 -38.717 -26.082  0.00  0.00    +0.041 A 
ATOM     24  C   UNL A   1      33.093 -38.378 -24.755  0.00  0.00    -0.005 A 
ATOM     25  C   UNL A   1      33.115 -37.018 -24.420  0.00  0.00    +0.047 A 
ATOM     26  N   UNL A   1      32.769 -36.032 -25.281  0.00  0.00    -0.251 NA
ATOM     27  C   UNL A   1      32.383 -36.359 -26.519  0.00  0.00    +0.073 A 
ATOM     28  C   UNL A   1      31.989 -35.339 -27.377  0.00  0.00    -0.036 A 
ATOM     29  C   UNL A   1      31.557 -35.594 -28.680  0.00  0.00    -0.060 A 
ATOM     30  C   UNL A   1      31.521 -36.899 -29.146  0.00  0.00    -0.061 A 
ATOM     31  C   UNL A   1      31.917 -37.937 -28.304  0.00  0.00    -0.051 A 
ATOM     32  C   UNL A   1      32.349 -37.689 -26.978  0.00  0.00    +0.021 A 
ATOM     33  C   UNL A   1      33.449 -36.540 -23.029  0.00  0.00    -0.010 C 
ATOM     34  C   UNL A   1      34.163 -37.583 -22.180  0.00  0.00    -0.047 C 
ATOM     35  C   UNL A   1      33.427 -38.909 -22.279  0.00  0.00    -0.049 C 
ATOM     36  C   UNL A   1      33.450 -39.416 -23.720  0.00  0.00    -0.024 C 
ENDBRANCH  21  23
ENDBRANCH  20  21
ENDBRANCH  19  20
ENDBRANCH   1  19
TORSDOF 10
ENDMDL
MODEL 10
REMARK VINA RESULT:    -6.845      2.795      5.872
REMARK INTER + INTRA:         -12.811
REMARK INTER:                  -9.015
REMARK INTRA:                  -3.797
REMARK UNBOUND:                -2.165
REMARK  Name = cpd341.pdb
REMARK  11 active torsions:
REMARK  status: ('A' for Active; 'I' for Inactive)
REMARK    1  A    between atoms: C_1  and  C_2
REMARK    2  A    between atoms: C_2  and  C_4
REMARK    3  A    between atoms: C_4  and  C_5
REMARK    4  A    between atoms: C_4  and  C_13
REMARK    5  A    between atoms: C_5  and  C_6
REMARK    6  A    between atoms: C_9  and  O_10
REMARK    7  A    between atoms: N_15  and  C_16
REMARK    8  A    between atoms: C_16  and  C_17
REMARK    9  A    between atoms: C_17  and  C_18
REMARK   10  A    between atoms: C_18  and  N_19
REMARK   11  A    between atoms: N_19  and  C_20
REMARK                            x       y       z     vdW  Elec       q    Type
REMARK                         _______ _______ _______ _____ _____    ______ ____
ROOT
ATOM      1  C   UNL A   1      39.528 -20.495 -36.628  0.00  0.00    +0.013 C 
ENDROOT
BRANCH   1   4
ATOM      2  C   UNL A   1      40.478 -20.567 -38.906  0.00  0.00    +0.224 C 
ATOM      3  O   UNL A   1      39.536 -19.937 -39.383  0.00  0.00    -0.275 OA
ATOM      4  N   UNL A   1      40.534 -20.926 -37.579  0.00  0.00    -0.315 N 
ATOM      5  H   UNL A   1      41.277 -21.490 -37.267  0.00  0.00    +0.000 HD
BRANCH   2   6
ATOM      6  C   UNL A   1      41.601 -21.074 -39.792  0.00  0.00    +0.097 C 
BRANCH   6   8
ATOM      7  C   UNL A   1      41.430 -22.569 -41.887  0.00  0.00    -0.005 C 
ATOM      8  C   UNL A   1      41.206 -22.404 -40.405  0.00  0.00    +0.142 C 
ATOM      9  O   UNL A   1      40.676 -23.296 -39.739  0.00  0.00    -0.297 OA
ENDBRANCH   6   8
BRANCH   6  10
ATOM     10  C   UNL A   1      42.969 -21.176 -39.101  0.00  0.00    -0.010 C 
BRANCH  10  11
ATOM     11  C   UNL A   1      44.142 -20.933 -40.023  0.00  0.00    -0.046 A 
ATOM     12  C   UNL A   1      43.973 -20.204 -41.210  0.00  0.00    -0.055 A 
ATOM     13  C   UNL A   1      45.049 -19.987 -42.074  0.00  0.00    -0.020 A 
ATOM     14  C   UNL A   1      46.300 -20.495 -41.745  0.00  0.00    +0.117 A 
ATOM     15  C   UNL A   1      46.490 -21.214 -40.571  0.00  0.00    -0.020 A 
ATOM     16  C   UNL A   1      45.414 -21.432 -39.710  0.00  0.00    -0.055 A 
BRANCH  14  17
ATOM     17  O   UNL A   1      47.379 -20.306 -42.556  0.00  0.00    -0.507 OA
ATOM     18  H   UNL A   1      47.627 -20.969 -43.169  0.00  0.00    +0.000 HD
ENDBRANCH  14  17
ENDBRANCH  10  11
ENDBRANCH   6  10
ENDBRANCH   2   6
ENDBRANCH   1   4
BRANCH   1  19
ATOM     19  C   UNL A   1      40.131 -19.708 -35.466  0.00  0.00    -0.022 C 
BRANCH  19  20
ATOM     20  C   UNL A   1      41.655 -19.797 -35.481  0.00  0.00    +0.011 C 
BRANCH  20  21
ATOM     21  N   UNL A   1      42.207 -18.457 -35.657  0.00  0.00    -0.343 N 
ATOM     22  H   UNL A   1      41.942 -17.715 -35.065  0.00  0.00    +0.000 HD
BRANCH  21  23
ATOM     23  C   UNL A   1      43.136 -18.261 -36.707  0.00  0.00    +0.041 A 
ATOM     24  C   UNL A   1      44.514 -18.533 -36.577  0.00  0.00    -0.005 A 
ATOM     25  C   UNL A   1      45.334 -18.265 -37.681  0.00  0.00    +0.047 A 
ATOM     26  N   UNL A   1      44.882 -17.702 -38.826  0.00  0.00    -0.251 NA
ATOM     27  C   UNL A   1      43.588 -17.379 -38.923  0.00  0.00    +0.073 A 
ATOM     28  C   UNL A   1      43.149 -16.761 -40.088  0.00  0.00    -0.036 A 
ATOM     29  C   UNL A   1      41.819 -16.377 -40.265  0.00  0.00    -0.060 A 
ATOM     30  C   UNL A   1      40.896 -16.617 -39.258  0.00  0.00    -0.061 A 
ATOM     31  C   UNL A   1      41.315 -17.241 -38.083  0.00  0.00    -0.051 A 
ATOM     32  C   UNL A   1      42.664 -17.627 -37.891  0.00  0.00    +0.021 A 
ATOM     33  C   UNL A   1      46.822 -18.508 -37.651  0.00  0.00    -0.010 C 
ATOM     34  C   UNL A   1      47.267 -19.442 -36.534  0.00  0.00    -0.047 C 
ATOM     35  C   UNL A   1      46.628 -19.010 -35.225  0.00  0.00    -0.049 C 
ATOM     36  C   UNL A   1      45.107 -19.121 -35.320  0.00  0.00    -0.024 C 
ENDBRANCH  21  23
ENDBRANCH  20  21
ENDBRANCH  19  20
ENDBRANCH   1  19
TORSDOF 10
ENDMDL
MODEL 11
REMARK VINA RESULT:    -6.815      3.199      6.987
REMARK INTER + INTRA:         -12.765
REMARK INTER:                  -9.928
REMARK INTRA:                  -2.837
REMARK UNBOUND:                -2.165
REMARK  Name = cpd341.pdb
REMARK  11 active torsions:
REMARK  status: ('A' for Active; 'I' for Inactive)
REMARK    1  A    between atoms: C_1  and  C_2
REMARK    2  A    between atoms: C_2  and  C_4
REMARK    3  A    between atoms: C_4  and  C_5
REMARK    4  A    between atoms: C_4  and  C_13
REMARK    5  A    between atoms: C_5  and  C_6
REMARK    6  A    between atoms: C_9  and  O_10
REMARK    7  A    between atoms: N_15  and  C_16
REMARK    8  A    between atoms: C_16  and  C_17
REMARK    9  A    between atoms: C_17  and  C_18
REMARK   10  A    between atoms: C_18  and  N_19
REMARK   11  A    between atoms: N_19  and  C_20
REMARK                            x       y       z     vdW  Elec       q    Type
REMARK                         _______ _______ _______ _____ _____    ______ ____
ROOT
ATOM      1  C   UNL A   1      44.586 -18.338 -34.517  0.00  0.00    +0.013 C 
ENDROOT
BRANCH   1   4
ATOM      2  C   UNL A   1      42.124 -18.336 -34.328  0.00  0.00    +0.224 C 
ATOM      3  O   UNL A   1      41.975 -18.033 -35.511  0.00  0.00    -0.275 OA
ATOM      4  N   UNL A   1      43.364 -18.459 -33.747  0.00  0.00    -0.315 N 
ATOM      5  H   UNL A   1      43.424 -18.635 -32.780  0.00  0.00    +0.000 HD
BRANCH   2   6
ATOM      6  C   UNL A   1      40.926 -18.499 -33.411  0.00  0.00    +0.097 C 
BRANCH   6   8
ATOM      7  C   UNL A   1      39.312 -17.050 -32.014  0.00  0.00    -0.005 C 
ATOM      8  C   UNL A   1      40.650 -17.189 -32.697  0.00  0.00    +0.142 C 
ATOM      9  O   UNL A   1      41.454 -16.255 -32.715  0.00  0.00    -0.297 OA
ENDBRANCH   6   8
BRANCH   6  10
ATOM     10  C   UNL A   1      41.039 -19.655 -32.406  0.00  0.00    -0.010 C 
BRANCH  10  11
ATOM     11  C   UNL A   1      40.374 -20.932 -32.864  0.00  0.00    -0.046 A 
ATOM     12  C   UNL A   1      41.061 -22.154 -32.798  0.00  0.00    -0.055 A 
ATOM     13  C   UNL A   1      40.457 -23.336 -33.232  0.00  0.00    -0.020 A 
ATOM     14  C   UNL A   1      39.159 -23.297 -33.728  0.00  0.00    +0.117 A 
ATOM     15  C   UNL A   1      38.459 -22.099 -33.795  0.00  0.00    -0.020 A 
ATOM     16  C   UNL A   1      39.063 -20.918 -33.364  0.00  0.00    -0.055 A 
BRANCH  14  17
ATOM     17  O   UNL A   1      38.530 -24.427 -34.160  0.00  0.00    -0.507 OA
ATOM     18  H   UNL A   1      38.185 -25.037 -33.540  0.00  0.00    +0.000 HD
ENDBRANCH  14  17
ENDBRANCH  10  11
ENDBRANCH   6  10
ENDBRANCH   2   6
ENDBRANCH   1   4
BRANCH   1  19
ATOM     19  C   UNL A   1      45.304 -19.676 -34.677  0.00  0.00    -0.022 C 
BRANCH  19  20
ATOM     20  C   UNL A   1      45.419 -20.061 -36.150  0.00  0.00    +0.011 C 
BRANCH  20  21
ATOM     21  N   UNL A   1      44.302 -19.471 -36.882  0.00  0.00    -0.343 N 
ATOM     22  H   UNL A   1      43.872 -18.641 -36.574  0.00  0.00    +0.000 HD
BRANCH  21  23
ATOM     23  C   UNL A   1      43.859 -20.135 -38.052  0.00  0.00    +0.041 A 
ATOM     24  C   UNL A   1      44.421 -19.908 -39.326  0.00  0.00    -0.005 A 
ATOM     25  C   UNL A   1      43.871 -20.605 -40.409  0.00  0.00    +0.047 A 
ATOM     26  N   UNL A   1      42.798 -21.423 -40.303  0.00  0.00    -0.251 NA
ATOM     27  C   UNL A   1      42.221 -21.583 -39.107  0.00  0.00    +0.073 A 
ATOM     28  C   UNL A   1      41.093 -22.391 -39.022  0.00  0.00    -0.036 A 
ATOM     29  C   UNL A   1      40.422 -22.599 -37.816  0.00  0.00    -0.060 A 
ATOM     30  C   UNL A   1      40.887 -21.992 -36.659  0.00  0.00    -0.061 A 
ATOM     31  C   UNL A   1      42.020 -21.181 -36.721  0.00  0.00    -0.051 A 
ATOM     32  C   UNL A   1      42.703 -20.958 -37.942  0.00  0.00    +0.021 A 
ATOM     33  C   UNL A   1      44.385 -20.433 -41.817  0.00  0.00    -0.010 C 
ATOM     34  C   UNL A   1      45.773 -19.811 -41.889  0.00  0.00    -0.047 C 
ATOM     35  C   UNL A   1      45.827 -18.582 -40.996  0.00  0.00    -0.049 C 
ATOM     36  C   UNL A   1      45.592 -18.980 -39.540  0.00  0.00    -0.024 C 
ENDBRANCH  21  23
ENDBRANCH  20  21
ENDBRANCH  19  20
ENDBRANCH   1  19
TORSDOF 10
ENDMDL
MODEL 12
REMARK VINA RESULT:    -6.779      1.987      4.944
REMARK INTER + INTRA:         -12.710
REMARK INTER:                 -10.655
REMARK INTRA:                  -2.055
REMARK UNBOUND:                -2.165
REMARK  Name = cpd341.pdb
REMARK  11 active torsions:
REMARK  status: ('A' for Active; 'I' for Inactive)
REMARK    1  A    between atoms: C_1  and  C_2
REMARK    2  A    between atoms: C_2  and  C_4
REMARK    3  A    between atoms: C_4  and  C_5
REMARK    4  A    between atoms: C_4  and  C_13
REMARK    5  A    between atoms: C_5  and  C_6
REMARK    6  A    between atoms: C_9  and  O_10
REMARK    7  A    between atoms: N_15  and  C_16
REMARK    8  A    between atoms: C_16  and  C_17
REMARK    9  A    between atoms: C_17  and  C_18
REMARK   10  A    between atoms: C_18  and  N_19
REMARK   11  A    between atoms: N_19  and  C_20
REMARK                            x       y       z     vdW  Elec       q    Type
REMARK                         _______ _______ _______ _____ _____    ______ ____
ROOT
ATOM      1  C   UNL A   1      42.436 -21.218 -40.106  0.00  0.00    +0.013 C 
ENDROOT
BRANCH   1   4
ATOM      2  C   UNL A   1      44.610 -20.775 -41.190  0.00  0.00    +0.224 C 
ATOM      3  O   UNL A   1      44.098 -20.655 -42.301  0.00  0.00    -0.275 OA
ATOM      4  N   UNL A   1      43.880 -21.097 -40.069  0.00  0.00    -0.315 N 
ATOM      5  H   UNL A   1      44.352 -21.249 -39.219  0.00  0.00    +0.000 HD
BRANCH   2   6
ATOM      6  C   UNL A   1      46.113 -20.667 -41.011  0.00  0.00    +0.097 C 
BRANCH   6   8
ATOM      7  C   UNL A   1      48.105 -22.058 -41.876  0.00  0.00    -0.005 C 
ATOM      8  C   UNL A   1      46.750 -22.028 -41.215  0.00  0.00    +0.142 C 
ATOM      9  O   UNL A   1      46.170 -23.071 -40.906  0.00  0.00    -0.297 OA
ENDBRANCH   6   8
BRANCH   6  10
ATOM     10  C   UNL A   1      46.559 -20.049 -39.677  0.00  0.00    -0.010 C 
BRANCH  10  11
ATOM     11  C   UNL A   1      46.879 -18.574 -39.761  0.00  0.00    -0.046 A 
ATOM     12  C   UNL A   1      46.929 -17.792 -38.597  0.00  0.00    -0.055 A 
ATOM     13  C   UNL A   1      47.211 -16.425 -38.669  0.00  0.00    -0.020 A 
ATOM     14  C   UNL A   1      47.450 -15.842 -39.907  0.00  0.00    +0.117 A 
ATOM     15  C   UNL A   1      47.412 -16.601 -41.070  0.00  0.00    -0.020 A 
ATOM     16  C   UNL A   1      47.128 -17.965 -40.999  0.00  0.00    -0.055 A 
BRANCH  14  17
ATOM     17  O   UNL A   1      47.732 -14.513 -40.024  0.00  0.00    -0.507 OA
ATOM     18  H   UNL A   1      48.621 -14.227 -40.083  0.00  0.00    +0.000 HD
ENDBRANCH  14  17
ENDBRANCH  10  11
ENDBRANCH   6  10
ENDBRANCH   2   6
ENDBRANCH   1   4
BRANCH   1  19
ATOM     19  C   UNL A   1      41.753 -20.300 -39.095  0.00  0.00    -0.022 C 
BRANCH  19  20
ATOM     20  C   UNL A   1      40.935 -21.108 -38.091  0.00  0.00    +0.011 C 
BRANCH  20  21
ATOM     21  N   UNL A   1      41.845 -21.770 -37.160  0.00  0.00    -0.343 N 
ATOM     22  H   UNL A   1      42.302 -22.607 -37.404  0.00  0.00    +0.000 HD
BRANCH  21  23
ATOM     23  C   UNL A   1      42.048 -21.164 -35.897  0.00  0.00    +0.041 A 
ATOM     24  C   UNL A   1      43.228 -20.471 -35.556  0.00  0.00    -0.005 A 
ATOM     25  C   UNL A   1      43.319 -19.945 -34.261  0.00  0.00    +0.047 A 
ATOM     26  N   UNL A   1      42.369 -20.127 -33.314  0.00  0.00    -0.251 NA
ATOM     27  C   UNL A   1      41.282 -20.845 -33.616  0.00  0.00    +0.073 A 
ATOM     28  C   UNL A   1      40.337 -21.061 -32.620  0.00  0.00    -0.036 A 
ATOM     29  C   UNL A   1      39.182 -21.811 -32.846  0.00  0.00    -0.060 A 
ATOM     30  C   UNL A   1      38.956 -22.359 -34.099  0.00  0.00    -0.061 A 
ATOM     31  C   UNL A   1      39.889 -22.151 -35.115  0.00  0.00    -0.051 A 
ATOM     32  C   UNL A   1      41.067 -21.398 -34.892  0.00  0.00    +0.021 A 
ATOM     33  C   UNL A   1      44.537 -19.195 -33.784  0.00  0.00    -0.010 C 
ATOM     34  C   UNL A   1      45.427 -18.693 -34.913  0.00  0.00    -0.047 C 
ATOM     35  C   UNL A   1      45.673 -19.819 -35.905  0.00  0.00    -0.049 C 
ATOM     36  C   UNL A   1      44.354 -20.259 -36.538  0.00  0.00    -0.024 C 
ENDBRANCH  21  23
ENDBRANCH  20  21
ENDBRANCH  19  20
ENDBRANCH   1  19
TORSDOF 10
ENDMDL
MODEL 13
REMARK VINA RESULT:    -6.776      3.167      6.877
REMARK INTER + INTRA:         -12.704
REMARK INTER:                  -9.114
REMARK INTRA:                  -3.590
REMARK UNBOUND:                -2.165
REMARK  Name = cpd341.pdb
REMARK  11 active torsions:
REMARK  status: ('A' for Active; 'I' for Inactive)
REMARK    1  A    between atoms: C_1  and  C_2
REMARK    2  A    between atoms: C_2  and  C_4
REMARK    3  A    between atoms: C_4  and  C_5
REMARK    4  A    between atoms: C_4  and  C_13
REMARK    5  A    between atoms: C_5  and  C_6
REMARK    6  A    between atoms: C_9  and  O_10
REMARK    7  A    between atoms: N_15  and  C_16
REMARK    8  A    between atoms: C_16  and  C_17
REMARK    9  A    between atoms: C_17  and  C_18
REMARK   10  A    between atoms: C_18  and  N_19
REMARK   11  A    between atoms: N_19  and  C_20
REMARK                            x       y       z     vdW  Elec       q    Type
REMARK                         _______ _______ _______ _____ _____    ______ ____
ROOT
ATOM      1  C   UNL A   1      42.771 -21.082 -40.194  0.00  0.00    +0.013 C 
ENDROOT
BRANCH   1   4
ATOM      2  C   UNL A   1      43.209 -19.450 -38.394  0.00  0.00    +0.224 C 
ATOM      3  O   UNL A   1      43.122 -18.492 -39.160  0.00  0.00    -0.275 OA
ATOM      4  N   UNL A   1      43.099 -20.753 -38.821  0.00  0.00    -0.315 N 
ATOM      5  H   UNL A   1      43.248 -21.482 -38.176  0.00  0.00    +0.000 HD
BRANCH   2   6
ATOM      6  C   UNL A   1      43.543 -19.244 -36.928  0.00  0.00    +0.097 C 
BRANCH   6   8
ATOM      7  C   UNL A   1      45.913 -20.215 -36.624  0.00  0.00    -0.005 C 
ATOM      8  C   UNL A   1      45.033 -19.001 -36.774  0.00  0.00    +0.142 C 
ATOM      9  O   UNL A   1      45.504 -17.863 -36.719  0.00  0.00    -0.297 OA
ENDBRANCH   6   8
BRANCH   6  10
ATOM     10  C   UNL A   1      43.076 -20.373 -35.997  0.00  0.00    -0.010 C 
BRANCH  10  11
ATOM     11  C   UNL A   1      42.305 -19.892 -34.789  0.00  0.00    -0.046 A 
ATOM     12  C   UNL A   1      41.854 -18.566 -34.716  0.00  0.00    -0.055 A 
ATOM     13  C   UNL A   1      41.153 -18.112 -33.596  0.00  0.00    -0.020 A 
ATOM     14  C   UNL A   1      40.897 -18.989 -32.549  0.00  0.00    +0.117 A 
ATOM     15  C   UNL A   1      41.329 -20.309 -32.606  0.00  0.00    -0.020 A 
ATOM     16  C   UNL A   1      42.031 -20.762 -33.723  0.00  0.00    -0.055 A 
BRANCH  14  17
ATOM     17  O   UNL A   1      40.214 -18.590 -31.439  0.00  0.00    -0.507 OA
ATOM     18  H   UNL A   1      40.378 -17.747 -31.067  0.00  0.00    +0.000 HD
ENDBRANCH  14  17
ENDBRANCH  10  11
ENDBRANCH   6  10
ENDBRANCH   2   6
ENDBRANCH   1   4
BRANCH   1  19
ATOM     19  C   UNL A   1      41.608 -22.066 -40.291  0.00  0.00    -0.022 C 
BRANCH  19  20
ATOM     20  C   UNL A   1      41.170 -22.529 -38.903  0.00  0.00    +0.011 C 
BRANCH  20  21
ATOM     21  N   UNL A   1      39.759 -22.203 -38.718  0.00  0.00    -0.343 N 
ATOM     22  H   UNL A   1      39.074 -22.529 -39.347  0.00  0.00    +0.000 HD
BRANCH  21  23
ATOM     23  C   UNL A   1      39.409 -21.403 -37.604  0.00  0.00    +0.041 A 
ATOM     24  C   UNL A   1      39.043 -21.943 -36.353  0.00  0.00    -0.005 A 
ATOM     25  C   UNL A   1      38.688 -21.044 -35.339  0.00  0.00    +0.047 A 
ATOM     26  N   UNL A   1      38.615 -19.704 -35.522  0.00  0.00    -0.251 NA
ATOM     27  C   UNL A   1      38.894 -19.199 -36.728  0.00  0.00    +0.073 A 
ATOM     28  C   UNL A   1      38.772 -17.826 -36.911  0.00  0.00    -0.036 A 
ATOM     29  C   UNL A   1      39.029 -17.219 -38.141  0.00  0.00    -0.060 A 
ATOM     30  C   UNL A   1      39.424 -17.995 -39.220  0.00  0.00    -0.061 A 
ATOM     31  C   UNL A   1      39.557 -19.374 -39.056  0.00  0.00    -0.051 A 
ATOM     32  C   UNL A   1      39.291 -20.000 -37.814  0.00  0.00    +0.021 A 
ATOM     33  C   UNL A   1      38.269 -21.508 -33.967  0.00  0.00    -0.010 C 
ATOM     34  C   UNL A   1      38.678 -22.942 -33.656  0.00  0.00    -0.047 C 
ATOM     35  C   UNL A   1      38.297 -23.843 -34.818  0.00  0.00    -0.049 C 
ATOM     36  C   UNL A   1      39.055 -23.426 -36.078  0.00  0.00    -0.024 C 
ENDBRANCH  21  23
ENDBRANCH  20  21
ENDBRANCH  19  20
ENDBRANCH   1  19
TORSDOF 10
ENDMDL
MODEL 14
REMARK VINA RESULT:    -6.767      2.015      4.007
REMARK INTER + INTRA:         -12.690
REMARK INTER:                 -10.133
REMARK INTRA:                  -2.556
REMARK UNBOUND:                -2.165
REMARK  Name = cpd341.pdb
REMARK  11 active torsions:
REMARK  status: ('A' for Active; 'I' for Inactive)
REMARK    1  A    between atoms: C_1  and  C_2
REMARK    2  A    between atoms: C_2  and  C_4
REMARK    3  A    between atoms: C_4  and  C_5
REMARK    4  A    between atoms: C_4  and  C_13
REMARK    5  A    between atoms: C_5  and  C_6
REMARK    6  A    between atoms: C_9  and  O_10
REMARK    7  A    between atoms: N_15  and  C_16
REMARK    8  A    between atoms: C_16  and  C_17
REMARK    9  A    between atoms: C_17  and  C_18
REMARK   10  A    between atoms: C_18  and  N_19
REMARK   11  A    between atoms: N_19  and  C_20
REMARK                            x       y       z     vdW  Elec       q    Type
REMARK                         _______ _______ _______ _____ _____    ______ ____
ROOT
ATOM      1  C   UNL A   1      42.925 -17.465 -36.421  0.00  0.00    +0.013 C 
ENDROOT
BRANCH   1   4
ATOM      2  C   UNL A   1      43.709 -17.681 -38.753  0.00  0.00    +0.224 C 
ATOM      3  O   UNL A   1      42.568 -17.838 -39.184  0.00  0.00    -0.275 OA
ATOM      4  N   UNL A   1      43.981 -17.540 -37.412  0.00  0.00    -0.315 N 
ATOM      5  H   UNL A   1      44.919 -17.488 -37.117  0.00  0.00    +0.000 HD
BRANCH   2   6
ATOM      6  C   UNL A   1      44.906 -17.733 -39.685  0.00  0.00    +0.097 C 
BRANCH   6   8
ATOM      7  C   UNL A   1      47.176 -16.509 -39.667  0.00  0.00    -0.005 C 
ATOM      8  C   UNL A   1      45.671 -16.426 -39.605  0.00  0.00    +0.142 C 
ATOM      9  O   UNL A   1      45.101 -15.346 -39.442  0.00  0.00    -0.297 OA
ENDBRANCH   6   8
BRANCH   6  10
ATOM     10  C   UNL A   1      44.569 -18.080 -41.143  0.00  0.00    -0.010 C 
BRANCH  10  11
ATOM     11  C   UNL A   1      45.004 -19.467 -41.559  0.00  0.00    -0.046 A 
ATOM     12  C   UNL A   1      44.334 -20.141 -42.591  0.00  0.00    -0.055 A 
ATOM     13  C   UNL A   1      44.723 -21.428 -42.971  0.00  0.00    -0.020 A 
ATOM     14  C   UNL A   1      45.789 -22.039 -42.322  0.00  0.00    +0.117 A 
ATOM     15  C   UNL A   1      46.469 -21.385 -41.302  0.00  0.00    -0.020 A 
ATOM     16  C   UNL A   1      46.080 -20.101 -40.921  0.00  0.00    -0.055 A 
BRANCH  14  17
ATOM     17  O   UNL A   1      46.203 -23.292 -42.662  0.00  0.00    -0.507 OA
ATOM     18  H   UNL A   1      47.097 -23.441 -42.899  0.00  0.00    +0.000 HD
ENDBRANCH  14  17
ENDBRANCH  10  11
ENDBRANCH   6  10
ENDBRANCH   2   6
ENDBRANCH   1   4
BRANCH   1  19
ATOM     19  C   UNL A   1      43.167 -18.409 -35.246  0.00  0.00    -0.022 C 
BRANCH  19  20
ATOM     20  C   UNL A   1      44.159 -19.507 -35.625  0.00  0.00    +0.011 C 
BRANCH  20  21
ATOM     21  N   UNL A   1      43.569 -20.807 -35.316  0.00  0.00    -0.343 N 
ATOM     22  H   UNL A   1      44.066 -21.482 -34.800  0.00  0.00    +0.000 HD
BRANCH  21  23
ATOM     23  C   UNL A   1      42.257 -21.061 -35.784  0.00  0.00    +0.041 A 
ATOM     24  C   UNL A   1      41.154 -21.240 -34.924  0.00  0.00    -0.005 A 
ATOM     25  C   UNL A   1      39.913 -21.518 -35.511  0.00  0.00    +0.047 A 
ATOM     26  N   UNL A   1      39.740 -21.687 -36.843  0.00  0.00    -0.251 NA
ATOM     27  C   UNL A   1      40.800 -21.588 -37.652  0.00  0.00    +0.073 A 
ATOM     28  C   UNL A   1      40.613 -21.807 -39.012  0.00  0.00    -0.036 A 
ATOM     29  C   UNL A   1      41.668 -21.738 -39.924  0.00  0.00    -0.060 A 
ATOM     30  C   UNL A   1      42.944 -21.435 -39.473  0.00  0.00    -0.061 A 
ATOM     31  C   UNL A   1      43.152 -21.206 -38.114  0.00  0.00    -0.051 A 
ATOM     32  C   UNL A   1      42.089 -21.282 -37.180  0.00  0.00    +0.021 A 
ATOM     33  C   UNL A   1      38.668 -21.739 -34.689  0.00  0.00    -0.010 C 
ATOM     34  C   UNL A   1      38.777 -21.215 -33.263  0.00  0.00    -0.047 C 
ATOM     35  C   UNL A   1      40.084 -21.685 -32.647  0.00  0.00    -0.049 C 
ATOM     36  C   UNL A   1      41.268 -21.111 -33.424  0.00  0.00    -0.024 C 
ENDBRANCH  21  23
ENDBRANCH  20  21
ENDBRANCH  19  20
ENDBRANCH   1  19
TORSDOF 10
ENDMDL
MODEL 15
REMARK VINA RESULT:    -6.753      3.131      7.400
REMARK INTER + INTRA:         -12.668
REMARK INTER:                 -10.280
REMARK INTRA:                  -2.388
REMARK UNBOUND:                -2.165
REMARK  Name = cpd341.pdb
REMARK  11 active torsions:
REMARK  status: ('A' for Active; 'I' for Inactive)
REMARK    1  A    between atoms: C_1  and  C_2
REMARK    2  A    between atoms: C_2  and  C_4
REMARK    3  A    between atoms: C_4  and  C_5
REMARK    4  A    between atoms: C_4  and  C_13
REMARK    5  A    between atoms: C_5  and  C_6
REMARK    6  A    between atoms: C_9  and  O_10
REMARK    7  A    between atoms: N_15  and  C_16
REMARK    8  A    between atoms: C_16  and  C_17
REMARK    9  A    between atoms: C_17  and  C_18
REMARK   10  A    between atoms: C_18  and  N_19
REMARK   11  A    between atoms: N_19  and  C_20
REMARK                            x       y       z     vdW  Elec       q    Type
REMARK                         _______ _______ _______ _____ _____    ______ ____
ROOT
ATOM      1  C   UNL A   1      46.315 -17.895 -36.093  0.00  0.00    +0.013 C 
ENDROOT
BRANCH   1   4
ATOM      2  C   UNL A   1      44.278 -17.557 -34.740  0.00  0.00    +0.224 C 
ATOM      3  O   UNL A   1      43.768 -16.822 -35.583  0.00  0.00    -0.275 OA
ATOM      4  N   UNL A   1      45.539 -18.086 -34.884  0.00  0.00    -0.315 N 
ATOM      5  H   UNL A   1      45.925 -18.610 -34.145  0.00  0.00    +0.000 HD
BRANCH   2   6
ATOM      6  C   UNL A   1      43.568 -17.843 -33.429  0.00  0.00    +0.097 C 
BRANCH   6   8
ATOM      7  C   UNL A   1      44.259 -15.745 -32.097  0.00  0.00    -0.005 C 
ATOM      8  C   UNL A   1      44.354 -17.239 -32.281  0.00  0.00    +0.142 C 
ATOM      9  O   UNL A   1      45.082 -17.923 -31.559  0.00  0.00    -0.297 OA
ENDBRANCH   6   8
BRANCH   6  10
ATOM     10  C   UNL A   1      43.276 -19.329 -33.168  0.00  0.00    -0.010 C 
BRANCH  10  11
ATOM     11  C   UNL A   1      41.804 -19.670 -33.149  0.00  0.00    -0.046 A 
ATOM     12  C   UNL A   1      41.362 -20.876 -32.586  0.00  0.00    -0.055 A 
ATOM     13  C   UNL A   1      40.004 -21.203 -32.576  0.00  0.00    -0.020 A 
ATOM     14  C   UNL A   1      39.084 -20.317 -33.126  0.00  0.00    +0.117 A 
ATOM     15  C   UNL A   1      39.501 -19.115 -33.682  0.00  0.00    -0.020 A 
ATOM     16  C   UNL A   1      40.858 -18.789 -33.694  0.00  0.00    -0.055 A 
BRANCH  14  17
ATOM     17  O   UNL A   1      37.750 -20.594 -33.136  0.00  0.00    -0.507 OA
ATOM     18  H   UNL A   1      37.381 -21.095 -33.836  0.00  0.00    +0.000 HD
ENDBRANCH  14  17
ENDBRANCH  10  11
ENDBRANCH   6  10
ENDBRANCH   2   6
ENDBRANCH   1   4
BRANCH   1  19
ATOM     19  C   UNL A   1      46.905 -19.203 -36.615  0.00  0.00    -0.022 C 
BRANCH  19  20
ATOM     20  C   UNL A   1      45.801 -20.160 -37.057  0.00  0.00    +0.011 C 
BRANCH  20  21
ATOM     21  N   UNL A   1      44.789 -19.408 -37.793  0.00  0.00    -0.343 N 
ATOM     22  H   UNL A   1      44.732 -18.428 -37.725  0.00  0.00    +0.000 HD
BRANCH  21  23
ATOM     23  C   UNL A   1      43.891 -20.140 -38.609  0.00  0.00    +0.041 A 
ATOM     24  C   UNL A   1      42.780 -20.839 -38.095  0.00  0.00    -0.005 A 
ATOM     25  C   UNL A   1      41.987 -21.552 -39.004  0.00  0.00    +0.047 A 
ATOM     26  N   UNL A   1      42.272 -21.653 -40.324  0.00  0.00    -0.251 NA
ATOM     27  C   UNL A   1      43.366 -21.047 -40.798  0.00  0.00    +0.073 A 
ATOM     28  C   UNL A   1      43.670 -21.197 -42.146  0.00  0.00    -0.036 A 
ATOM     29  C   UNL A   1      44.800 -20.611 -42.719  0.00  0.00    -0.060 A 
ATOM     30  C   UNL A   1      45.651 -19.850 -41.932  0.00  0.00    -0.061 A 
ATOM     31  C   UNL A   1      45.362 -19.683 -40.578  0.00  0.00    -0.051 A 
ATOM     32  C   UNL A   1      44.222 -20.279 -39.986  0.00  0.00    +0.021 A 
ATOM     33  C   UNL A   1      40.781 -22.344 -38.566  0.00  0.00    -0.010 C 
ATOM     34  C   UNL A   1      40.263 -21.958 -37.187  0.00  0.00    -0.047 C 
ATOM     35  C   UNL A   1      41.424 -21.898 -36.207  0.00  0.00    -0.049 C 
ATOM     36  C   UNL A   1      42.415 -20.815 -36.631  0.00  0.00    -0.024 C 
ENDBRANCH  21  23
ENDBRANCH  20  21
ENDBRANCH  19  20
ENDBRANCH   1  19
TORSDOF 10
ENDMDL
MODEL 16
REMARK VINA RESULT:    -6.642      1.906      3.849
REMARK INTER + INTRA:         -12.495
REMARK INTER:                  -9.972
REMARK INTRA:                  -2.524
REMARK UNBOUND:                -2.165
REMARK  Name = cpd341.pdb
REMARK  11 active torsions:
REMARK  status: ('A' for Active; 'I' for Inactive)
REMARK    1  A    between atoms: C_1  and  C_2
REMARK    2  A    between atoms: C_2  and  C_4
REMARK    3  A    between atoms: C_4  and  C_5
REMARK    4  A    between atoms: C_4  and  C_13
REMARK    5  A    between atoms: C_5  and  C_6
REMARK    6  A    between atoms: C_9  and  O_10
REMARK    7  A    between atoms: N_15  and  C_16
REMARK    8  A    between atoms: C_16  and  C_17
REMARK    9  A    between atoms: C_17  and  C_18
REMARK   10  A    between atoms: C_18  and  N_19
REMARK   11  A    between atoms: N_19  and  C_20
REMARK                            x       y       z     vdW  Elec       q    Type
REMARK                         _______ _______ _______ _____ _____    ______ ____
ROOT
ATOM      1  C   UNL A   1      44.531 -18.418 -34.705  0.00  0.00    +0.013 C 
ENDROOT
BRANCH   1   4
ATOM      2  C   UNL A   1      44.800 -18.142 -37.144  0.00  0.00    +0.224 C 
ATOM      3  O   UNL A   1      43.633 -17.785 -37.292  0.00  0.00    -0.275 OA
ATOM      4  N   UNL A   1      45.311 -18.516 -35.924  0.00  0.00    -0.315 N 
ATOM      5  H   UNL A   1      46.232 -18.861 -35.876  0.00  0.00    +0.000 HD
BRANCH   2   6
ATOM      6  C   UNL A   1      45.726 -18.282 -38.338  0.00  0.00    +0.097 C 
BRANCH   6   8
ATOM      7  C   UNL A   1      47.141 -16.615 -39.706  0.00  0.00    -0.005 C 
ATOM      8  C   UNL A   1      46.715 -17.131 -38.355  0.00  0.00    +0.142 C 
ATOM      9  O   UNL A   1      47.194 -16.669 -37.318  0.00  0.00    -0.297 OA
ENDBRANCH   6   8
BRANCH   6  10
ATOM     10  C   UNL A   1      45.013 -18.410 -39.693  0.00  0.00    -0.010 C 
BRANCH  10  11
ATOM     11  C   UNL A   1      45.336 -19.684 -40.438  0.00  0.00    -0.046 A 
ATOM     12  C   UNL A   1      44.786 -19.924 -41.706  0.00  0.00    -0.055 A 
ATOM     13  C   UNL A   1      45.069 -21.107 -42.394  0.00  0.00    -0.020 A 
ATOM     14  C   UNL A   1      45.911 -22.049 -41.815  0.00  0.00    +0.117 A 
ATOM     15  C   UNL A   1      46.471 -21.827 -40.563  0.00  0.00    -0.020 A 
ATOM     16  C   UNL A   1      46.186 -20.647 -39.874  0.00  0.00    -0.055 A 
BRANCH  14  17
ATOM     17  O   UNL A   1      46.217 -23.214 -42.451  0.00  0.00    -0.507 OA
ATOM     18  H   UNL A   1      45.893 -24.028 -42.119  0.00  0.00    +0.000 HD
ENDBRANCH  14  17
ENDBRANCH  10  11
ENDBRANCH   6  10
ENDBRANCH   2   6
ENDBRANCH   1   4
BRANCH   1  19
ATOM     19  C   UNL A   1      44.364 -19.770 -34.015  0.00  0.00    -0.022 C 
BRANCH  19  20
ATOM     20  C   UNL A   1      42.940 -19.942 -33.492  0.00  0.00    +0.011 C 
BRANCH  20  21
ATOM     21  N   UNL A   1      42.337 -21.107 -34.132  0.00  0.00    -0.343 N 
ATOM     22  H   UNL A   1      42.716 -22.008 -34.013  0.00  0.00    +0.000 HD
BRANCH  21  23
ATOM     23  C   UNL A   1      41.186 -20.896 -34.930  0.00  0.00    +0.041 A 
ATOM     24  C   UNL A   1      39.885 -20.797 -34.395  0.00  0.00    -0.005 A 
ATOM     25  C   UNL A   1      38.827 -20.621 -35.295  0.00  0.00    +0.047 A 
ATOM     26  N   UNL A   1      38.985 -20.608 -36.640  0.00  0.00    -0.251 NA
ATOM     27  C   UNL A   1      40.210 -20.773 -37.149  0.00  0.00    +0.073 A 
ATOM     28  C   UNL A   1      40.351 -20.802 -38.532  0.00  0.00    -0.036 A 
ATOM     29  C   UNL A   1      41.591 -20.984 -39.146  0.00  0.00    -0.060 A 
ATOM     30  C   UNL A   1      42.726 -21.137 -38.365  0.00  0.00    -0.061 A 
ATOM     31  C   UNL A   1      42.609 -21.106 -36.975  0.00  0.00    -0.051 A 
ATOM     32  C   UNL A   1      41.353 -20.929 -36.344  0.00  0.00    +0.021 A 
ATOM     33  C   UNL A   1      37.394 -20.513 -34.837  0.00  0.00    -0.010 C 
ATOM     34  C   UNL A   1      37.249 -20.179 -33.358  0.00  0.00    -0.047 C 
ATOM     35  C   UNL A   1      38.153 -21.087 -32.540  0.00  0.00    -0.049 C 
ATOM     36  C   UNL A   1      39.615 -20.845 -32.911  0.00  0.00    -0.024 C 
ENDBRANCH  21  23
ENDBRANCH  20  21
ENDBRANCH  19  20
ENDBRANCH   1  19
TORSDOF 10
ENDMDL
MODEL 17
REMARK VINA RESULT:    -6.609      2.476      4.911
REMARK INTER + INTRA:         -12.444
REMARK INTER:                  -9.290
REMARK INTRA:                  -3.154
REMARK UNBOUND:                -2.165
REMARK  Name = cpd341.pdb
REMARK  11 active torsions:
REMARK  status: ('A' for Active; 'I' for Inactive)
REMARK    1  A    between atoms: C_1  and  C_2
REMARK    2  A    between atoms: C_2  and  C_4
REMARK    3  A    between atoms: C_4  and  C_5
REMARK    4  A    between atoms: C_4  and  C_13
REMARK    5  A    between atoms: C_5  and  C_6
REMARK    6  A    between atoms: C_9  and  O_10
REMARK    7  A    between atoms: N_15  and  C_16
REMARK    8  A    between atoms: C_16  and  C_17
REMARK    9  A    between atoms: C_17  and  C_18
REMARK   10  A    between atoms: C_18  and  N_19
REMARK   11  A    between atoms: N_19  and  C_20
REMARK                            x       y       z     vdW  Elec       q    Type
REMARK                         _______ _______ _______ _____ _____    ______ ____
ROOT
ATOM      1  C   UNL A   1      42.688 -15.727 -38.598  0.00  0.00    +0.013 C 
ENDROOT
BRANCH   1   4
ATOM      2  C   UNL A   1      43.317 -18.059 -39.114  0.00  0.00    +0.224 C 
ATOM      3  O   UNL A   1      42.348 -18.516 -38.512  0.00  0.00    -0.275 OA
ATOM      4  N   UNL A   1      43.589 -16.711 -39.167  0.00  0.00    -0.315 N 
ATOM      5  H   UNL A   1      44.417 -16.407 -39.603  0.00  0.00    +0.000 HD
BRANCH   2   6
ATOM      6  C   UNL A   1      44.336 -18.980 -39.760  0.00  0.00    +0.097 C 
BRANCH   6   8
ATOM      7  C   UNL A   1      46.441 -18.056 -40.928  0.00  0.00    -0.005 C 
ATOM      8  C   UNL A   1      44.953 -18.295 -40.964  0.00  0.00    +0.142 C 
ATOM      9  O   UNL A   1      44.268 -17.900 -41.910  0.00  0.00    -0.297 OA
ENDBRANCH   6   8
BRANCH   6  10
ATOM     10  C   UNL A   1      43.797 -20.368 -40.139  0.00  0.00    -0.010 C 
BRANCH  10  11
ATOM     11  C   UNL A   1      44.830 -21.278 -40.761  0.00  0.00    -0.046 A 
ATOM     12  C   UNL A   1      44.752 -21.616 -42.121  0.00  0.00    -0.055 A 
ATOM     13  C   UNL A   1      45.697 -22.468 -42.699  0.00  0.00    -0.020 A 
ATOM     14  C   UNL A   1      46.726 -22.977 -41.917  0.00  0.00    +0.117 A 
ATOM     15  C   UNL A   1      46.825 -22.649 -40.571  0.00  0.00    -0.020 A 
ATOM     16  C   UNL A   1      45.880 -21.800 -39.992  0.00  0.00    -0.055 A 
BRANCH  14  17
ATOM     17  O   UNL A   1      47.671 -23.808 -42.440  0.00  0.00    -0.507 OA
ATOM     18  H   UNL A   1      47.481 -24.717 -42.560  0.00  0.00    +0.000 HD
ENDBRANCH  14  17
ENDBRANCH  10  11
ENDBRANCH   6  10
ENDBRANCH   2   6
ENDBRANCH   1   4
BRANCH   1  19
ATOM     19  C   UNL A   1      43.304 -15.003 -37.403  0.00  0.00    -0.022 C 
BRANCH  19  20
ATOM     20  C   UNL A   1      42.723 -15.525 -36.091  0.00  0.00    +0.011 C 
BRANCH  20  21
ATOM     21  N   UNL A   1      43.787 -16.166 -35.323  0.00  0.00    -0.343 N 
ATOM     22  H   UNL A   1      44.430 -15.634 -34.801  0.00  0.00    +0.000 HD
BRANCH  21  23
ATOM     23  C   UNL A   1      43.861 -17.580 -35.356  0.00  0.00    +0.041 A 
ATOM     24  C   UNL A   1      42.967 -18.414 -34.653  0.00  0.00    -0.005 A 
ATOM     25  C   UNL A   1      43.167 -19.798 -34.742  0.00  0.00    +0.047 A 
ATOM     26  N   UNL A   1      44.204 -20.360 -35.405  0.00  0.00    -0.251 NA
ATOM     27  C   UNL A   1      45.092 -19.566 -36.012  0.00  0.00    +0.073 A 
ATOM     28  C   UNL A   1      46.176 -20.156 -36.652  0.00  0.00    -0.036 A 
ATOM     29  C   UNL A   1      47.156 -19.401 -37.296  0.00  0.00    -0.060 A 
ATOM     30  C   UNL A   1      47.056 -18.018 -37.311  0.00  0.00    -0.061 A 
ATOM     31  C   UNL A   1      45.974 -17.405 -36.680  0.00  0.00    -0.051 A 
ATOM     32  C   UNL A   1      44.978 -18.163 -36.017  0.00  0.00    +0.021 A 
ATOM     33  C   UNL A   1      42.279 -20.783 -34.024  0.00  0.00    -0.010 C 
ATOM     34  C   UNL A   1      40.945 -20.196 -33.584  0.00  0.00    -0.047 C 
ATOM     35  C   UNL A   1      41.180 -18.867 -32.885  0.00  0.00    -0.049 C 
ATOM     36  C   UNL A   1      41.809 -17.868 -33.854  0.00  0.00    -0.024 C 
ENDBRANCH  21  23
ENDBRANCH  20  21
ENDBRANCH  19  20
ENDBRANCH   1  19
TORSDOF 10
ENDMDL
MODEL 18
REMARK VINA RESULT:    -6.378      2.414      4.264
REMARK INTER + INTRA:         -12.085
REMARK INTER:                 -10.571
REMARK INTRA:                  -1.513
REMARK UNBOUND:                -2.165
REMARK  Name = cpd341.pdb
REMARK  11 active torsions:
REMARK  status: ('A' for Active; 'I' for Inactive)
REMARK    1  A    between atoms: C_1  and  C_2
REMARK    2  A    between atoms: C_2  and  C_4
REMARK    3  A    between atoms: C_4  and  C_5
REMARK    4  A    between atoms: C_4  and  C_13
REMARK    5  A    between atoms: C_5  and  C_6
REMARK    6  A    between atoms: C_9  and  O_10
REMARK    7  A    between atoms: N_15  and  C_16
REMARK    8  A    between atoms: C_16  and  C_17
REMARK    9  A    between atoms: C_17  and  C_18
REMARK   10  A    between atoms: C_18  and  N_19
REMARK   11  A    between atoms: N_19  and  C_20
REMARK                            x       y       z     vdW  Elec       q    Type
REMARK                         _______ _______ _______ _____ _____    ______ ____
ROOT
ATOM      1  C   UNL A   1      41.995 -21.843 -38.867  0.00  0.00    +0.013 C 
ENDROOT
BRANCH   1   4
ATOM      2  C   UNL A   1      43.781 -20.169 -39.193  0.00  0.00    +0.224 C 
ATOM      3  O   UNL A   1      44.086 -20.176 -38.002  0.00  0.00    -0.275 OA
ATOM      4  N   UNL A   1      42.740 -20.916 -39.695  0.00  0.00    -0.315 N 
ATOM      5  H   UNL A   1      42.495 -20.818 -40.644  0.00  0.00    +0.000 HD
BRANCH   2   6
ATOM      6  C   UNL A   1      44.486 -19.247 -40.171  0.00  0.00    +0.097 C 
BRANCH   6   8
ATOM      7  C   UNL A   1      44.596 -16.720 -40.675  0.00  0.00    -0.005 C 
ATOM      8  C   UNL A   1      43.790 -17.899 -40.193  0.00  0.00    +0.142 C 
ATOM      9  O   UNL A   1      42.635 -17.756 -39.785  0.00  0.00    -0.297 OA
ENDBRANCH   6   8
BRANCH   6  10
ATOM     10  C   UNL A   1      44.633 -19.808 -41.593  0.00  0.00    -0.010 C 
BRANCH  10  11
ATOM     11  C   UNL A   1      45.611 -20.955 -41.701  0.00  0.00    -0.046 A 
ATOM     12  C   UNL A   1      45.378 -22.005 -42.602  0.00  0.00    -0.055 A 
ATOM     13  C   UNL A   1      46.271 -23.075 -42.698  0.00  0.00    -0.020 A 
ATOM     14  C   UNL A   1      47.405 -23.091 -41.894  0.00  0.00    +0.117 A 
ATOM     15  C   UNL A   1      47.658 -22.057 -41.000  0.00  0.00    -0.020 A 
ATOM     16  C   UNL A   1      46.764 -20.990 -40.903  0.00  0.00    -0.055 A 
BRANCH  14  17
ATOM     17  O   UNL A   1      48.305 -24.112 -41.956  0.00  0.00    -0.507 OA
ATOM     18  H   UNL A   1      48.253 -24.820 -41.344  0.00  0.00    +0.000 HD
ENDBRANCH  14  17
ENDBRANCH  10  11
ENDBRANCH   6  10
ENDBRANCH   2   6
ENDBRANCH   1   4
BRANCH   1  19
ATOM     19  C   UNL A   1      40.518 -21.471 -38.767  0.00  0.00    -0.022 C 
BRANCH  19  20
ATOM     20  C   UNL A   1      40.303 -20.368 -37.733  0.00  0.00    +0.011 C 
BRANCH  20  21
ATOM     21  N   UNL A   1      41.097 -20.670 -36.546  0.00  0.00    -0.343 N 
ATOM     22  H   UNL A   1      42.070 -20.810 -36.606  0.00  0.00    +0.000 HD
BRANCH  21  23
ATOM     23  C   UNL A   1      40.420 -20.753 -35.305  0.00  0.00    +0.041 A 
ATOM     24  C   UNL A   1      39.619 -21.854 -34.938  0.00  0.00    -0.005 A 
ATOM     25  C   UNL A   1      38.975 -21.800 -33.695  0.00  0.00    +0.047 A 
ATOM     26  N   UNL A   1      39.032 -20.727 -32.872  0.00  0.00    -0.251 NA
ATOM     27  C   UNL A   1      39.734 -19.654 -33.253  0.00  0.00    +0.073 A 
ATOM     28  C   UNL A   1      39.746 -18.544 -32.417  0.00  0.00    -0.036 A 
ATOM     29  C   UNL A   1      40.441 -17.379 -32.745  0.00  0.00    -0.060 A 
ATOM     30  C   UNL A   1      41.149 -17.316 -33.935  0.00  0.00    -0.061 A 
ATOM     31  C   UNL A   1      41.155 -18.420 -34.786  0.00  0.00    -0.051 A 
ATOM     32  C   UNL A   1      40.447 -19.604 -34.465  0.00  0.00    +0.021 A 
ATOM     33  C   UNL A   1      38.086 -22.915 -33.204  0.00  0.00    -0.010 C 
ATOM     34  C   UNL A   1      38.296 -24.232 -33.938  0.00  0.00    -0.047 C 
ATOM     35  C   UNL A   1      38.301 -23.984 -35.437  0.00  0.00    -0.049 C 
ATOM     36  C   UNL A   1      39.467 -23.072 -35.815  0.00  0.00    -0.024 C 
ENDBRANCH  21  23
ENDBRANCH  20  21
ENDBRANCH  19  20
ENDBRANCH   1  19
TORSDOF 10
ENDMDL
MODEL 19
REMARK VINA RESULT:    -6.352      2.726      5.041
REMARK INTER + INTRA:         -12.044
REMARK INTER:                  -9.271
REMARK INTRA:                  -2.773
REMARK UNBOUND:                -2.165
REMARK  Name = cpd341.pdb
REMARK  11 active torsions:
REMARK  status: ('A' for Active; 'I' for Inactive)
REMARK    1  A    between atoms: C_1  and  C_2
REMARK    2  A    between atoms: C_2  and  C_4
REMARK    3  A    between atoms: C_4  and  C_5
REMARK    4  A    between atoms: C_4  and  C_13
REMARK    5  A    between atoms: C_5  and  C_6
REMARK    6  A    between atoms: C_9  and  O_10
REMARK    7  A    between atoms: N_15  and  C_16
REMARK    8  A    between atoms: C_16  and  C_17
REMARK    9  A    between atoms: C_17  and  C_18
REMARK   10  A    between atoms: C_18  and  N_19
REMARK   11  A    between atoms: N_19  and  C_20
REMARK                            x       y       z     vdW  Elec       q    Type
REMARK                         _______ _______ _______ _____ _____    ______ ____
ROOT
ATOM      1  C   UNL A   1      40.038 -16.535 -38.848  0.00  0.00    +0.013 C 
ENDROOT
BRANCH   1   4
ATOM      2  C   UNL A   1      42.222 -17.203 -39.784  0.00  0.00    +0.224 C 
ATOM      3  O   UNL A   1      42.177 -16.341 -40.660  0.00  0.00    -0.275 OA
ATOM      4  N   UNL A   1      41.200 -17.401 -38.886  0.00  0.00    -0.315 N 
ATOM      5  H   UNL A   1      41.258 -18.152 -38.252  0.00  0.00    +0.000 HD
BRANCH   2   6
ATOM      6  C   UNL A   1      43.387 -18.173 -39.710  0.00  0.00    +0.097 C 
BRANCH   6   8
ATOM      7  C   UNL A   1      44.466 -19.388 -37.706  0.00  0.00    -0.005 C 
ATOM      8  C   UNL A   1      44.033 -18.090 -38.340  0.00  0.00    +0.142 C 
ATOM      9  O   UNL A   1      44.155 -17.019 -37.741  0.00  0.00    -0.297 OA
ENDBRANCH   6   8
BRANCH   6  10
ATOM     10  C   UNL A   1      44.436 -18.005 -40.819  0.00  0.00    -0.010 C 
BRANCH  10  11
ATOM     11  C   UNL A   1      44.974 -19.311 -41.357  0.00  0.00    -0.046 A 
ATOM     12  C   UNL A   1      46.250 -19.760 -40.987  0.00  0.00    -0.055 A 
ATOM     13  C   UNL A   1      46.759 -20.959 -41.491  0.00  0.00    -0.020 A 
ATOM     14  C   UNL A   1      45.985 -21.715 -42.363  0.00  0.00    +0.117 A 
ATOM     15  C   UNL A   1      44.716 -21.292 -42.737  0.00  0.00    -0.020 A 
ATOM     16  C   UNL A   1      44.209 -20.092 -42.236  0.00  0.00    -0.055 A 
BRANCH  14  17
ATOM     17  O   UNL A   1      46.440 -22.893 -42.877  0.00  0.00    -0.507 OA
ATOM     18  H   UNL A   1      47.163 -23.332 -42.475  0.00  0.00    +0.000 HD
ENDBRANCH  14  17
ENDBRANCH  10  11
ENDBRANCH   6  10
ENDBRANCH   2   6
ENDBRANCH   1   4
BRANCH   1  19
ATOM     19  C   UNL A   1      38.730 -17.317 -38.945  0.00  0.00    -0.022 C 
BRANCH  19  20
ATOM     20  C   UNL A   1      38.369 -17.943 -37.600  0.00  0.00    +0.011 C 
BRANCH  20  21
ATOM     21  N   UNL A   1      38.198 -19.382 -37.777  0.00  0.00    -0.343 N 
ATOM     22  H   UNL A   1      37.435 -19.747 -38.282  0.00  0.00    +0.000 HD
BRANCH  21  23
ATOM     23  C   UNL A   1      39.169 -20.235 -37.199  0.00  0.00    +0.041 A 
ATOM     24  C   UNL A   1      39.288 -20.435 -35.808  0.00  0.00    -0.005 A 
ATOM     25  C   UNL A   1      40.312 -21.279 -35.360  0.00  0.00    +0.047 A 
ATOM     26  N   UNL A   1      41.221 -21.851 -36.184  0.00  0.00    -0.251 NA
ATOM     27  C   UNL A   1      41.151 -21.605 -37.496  0.00  0.00    +0.073 A 
ATOM     28  C   UNL A   1      42.118 -22.163 -38.324  0.00  0.00    -0.036 A 
ATOM     29  C   UNL A   1      42.127 -21.945 -39.702  0.00  0.00    -0.060 A 
ATOM     30  C   UNL A   1      41.145 -21.153 -40.277  0.00  0.00    -0.061 A 
ATOM     31  C   UNL A   1      40.162 -20.587 -39.466  0.00  0.00    -0.051 A 
ATOM     32  C   UNL A   1      40.149 -20.797 -38.065  0.00  0.00    +0.021 A 
ATOM     33  C   UNL A   1      40.539 -21.556 -33.895  0.00  0.00    -0.010 C 
ATOM     34  C   UNL A   1      39.343 -21.215 -33.015  0.00  0.00    -0.047 C 
ATOM     35  C   UNL A   1      38.831 -19.829 -33.369  0.00  0.00    -0.049 C 
ATOM     36  C   UNL A   1      38.343 -19.801 -34.816  0.00  0.00    -0.024 C 
ENDBRANCH  21  23
ENDBRANCH  20  21
ENDBRANCH  19  20
ENDBRANCH   1  19
TORSDOF 10
ENDMDL
MODEL 20
REMARK VINA RESULT:    -6.090      2.528      5.574
REMARK INTER + INTRA:         -11.637
REMARK INTER:                  -8.033
REMARK INTRA:                  -3.604
REMARK UNBOUND:                -2.165
REMARK  Name = cpd341.pdb
REMARK  11 active torsions:
REMARK  status: ('A' for Active; 'I' for Inactive)
REMARK    1  A    between atoms: C_1  and  C_2
REMARK    2  A    between atoms: C_2  and  C_4
REMARK    3  A    between atoms: C_4  and  C_5
REMARK    4  A    between atoms: C_4  and  C_13
REMARK    5  A    between atoms: C_5  and  C_6
REMARK    6  A    between atoms: C_9  and  O_10
REMARK    7  A    between atoms: N_15  and  C_16
REMARK    8  A    between atoms: C_16  and  C_17
REMARK    9  A    between atoms: C_17  and  C_18
REMARK   10  A    between atoms: C_18  and  N_19
REMARK   11  A    between atoms: N_19  and  C_20
REMARK                            x       y       z     vdW  Elec       q    Type
REMARK                         _______ _______ _______ _____ _____    ______ ____
ROOT
ATOM      1  C   UNL A   1      46.309 -18.756 -35.446  0.00  0.00    +0.013 C 
ENDROOT
BRANCH   1   4
ATOM      2  C   UNL A   1      45.875 -18.775 -37.876  0.00  0.00    +0.224 C 
ATOM      3  O   UNL A   1      46.770 -19.591 -38.090  0.00  0.00    -0.275 OA
ATOM      4  N   UNL A   1      45.612 -18.275 -36.622  0.00  0.00    -0.315 N 
ATOM      5  H   UNL A   1      44.930 -17.572 -36.521  0.00  0.00    +0.000 HD
BRANCH   2   6
ATOM      6  C   UNL A   1      45.064 -18.195 -39.021  0.00  0.00    +0.097 C 
BRANCH   6   8
ATOM      7  C   UNL A   1      45.657 -18.962 -41.410  0.00  0.00    -0.005 C 
ATOM      8  C   UNL A   1      45.945 -18.048 -40.247  0.00  0.00    +0.142 C 
ATOM      9  O   UNL A   1      46.889 -17.257 -40.279  0.00  0.00    -0.297 OA
ENDBRANCH   6   8
BRANCH   6  10
ATOM     10  C   UNL A   1      44.352 -16.872 -38.698  0.00  0.00    -0.010 C 
BRANCH  10  11
ATOM     11  C   UNL A   1      42.862 -17.013 -38.491  0.00  0.00    -0.046 A 
ATOM     12  C   UNL A   1      41.990 -17.024 -39.590  0.00  0.00    -0.055 A 
ATOM     13  C   UNL A   1      40.610 -17.140 -39.404  0.00  0.00    -0.020 A 
ATOM     14  C   UNL A   1      40.102 -17.252 -38.115  0.00  0.00    +0.117 A 
ATOM     15  C   UNL A   1      40.949 -17.250 -37.014  0.00  0.00    -0.020 A 
ATOM     16  C   UNL A   1      42.327 -17.132 -37.199  0.00  0.00    -0.055 A 
BRANCH  14  17
ATOM     17  O   UNL A   1      38.763 -17.371 -37.887  0.00  0.00    -0.507 OA
ATOM     18  H   UNL A   1      38.456 -17.764 -37.095  0.00  0.00    +0.000 HD
ENDBRANCH  14  17
ENDBRANCH  10  11
ENDBRANCH   6  10
ENDBRANCH   2   6
ENDBRANCH   1   4
BRANCH   1  19
ATOM     19  C   UNL A   1      45.568 -19.902 -34.762  0.00  0.00    -0.022 C 
BRANCH  19  20
ATOM     20  C   UNL A   1      44.057 -19.690 -34.828  0.00  0.00    +0.011 C 
BRANCH  20  21
ATOM     21  N   UNL A   1      43.420 -20.940 -35.232  0.00  0.00    -0.343 N 
ATOM     22  H   UNL A   1      43.918 -21.789 -35.230  0.00  0.00    +0.000 HD
BRANCH  21  23
ATOM     23  C   UNL A   1      42.061 -20.887 -35.626  0.00  0.00    +0.041 A 
ATOM     24  C   UNL A   1      40.991 -21.002 -34.715  0.00  0.00    -0.005 A 
ATOM     25  C   UNL A   1      39.691 -20.967 -35.235  0.00  0.00    +0.047 A 
ATOM     26  N   UNL A   1      39.419 -20.896 -36.560  0.00  0.00    -0.251 NA
ATOM     27  C   UNL A   1      40.436 -20.859 -37.428  0.00  0.00    +0.073 A 
ATOM     28  C   UNL A   1      40.141 -20.831 -38.786  0.00  0.00    -0.036 A 
ATOM     29  C   UNL A   1      41.141 -20.805 -39.760  0.00  0.00    -0.060 A 
ATOM     30  C   UNL A   1      42.473 -20.802 -39.373  0.00  0.00    -0.061 A 
ATOM     31  C   UNL A   1      42.791 -20.825 -38.016  0.00  0.00    -0.051 A 
ATOM     32  C   UNL A   1      41.783 -20.858 -37.021  0.00  0.00    +0.021 A 
ATOM     33  C   UNL A   1      38.471 -21.092 -34.356  0.00  0.00    -0.010 C 
ATOM     34  C   UNL A   1      38.749 -20.821 -32.884  0.00  0.00    -0.047 C 
ATOM     35  C   UNL A   1      39.979 -21.600 -32.447  0.00  0.00    -0.049 C 
ATOM     36  C   UNL A   1      41.205 -21.128 -33.226  0.00  0.00    -0.024 C 
ENDBRANCH  21  23
ENDBRANCH  20  21
ENDBRANCH  19  20
ENDBRANCH   1  19
TORSDOF 10
ENDMDL
