REMARK  Name = cpd341.pdb
REMARK  11 active torsions:
REMARK  status: ('A' for Active; 'I' for Inactive)
REMARK    1  A    between atoms: C_1  and  C_2
REMARK    2  A    between atoms: C_2  and  C_4
REMARK    3  A    between atoms: C_4  and  C_5
REMARK    4  A    between atoms: C_4  and  C_13
REMARK    5  A    between atoms: C_5  and  C_6
REMARK    6  A    between atoms: C_9  and  O_10
REMARK    7  A    between atoms: N_15  and  C_16
REMARK    8  A    between atoms: C_16  and  C_17
REMARK    9  A    between atoms: C_17  and  C_18
REMARK   10  A    between atoms: C_18  and  N_19
REMARK   11  A    between atoms: N_19  and  C_20
REMARK                            x       y       z     vdW  Elec       q    Type
REMARK                         _______ _______ _______ _____ _____    ______ ____
ROOT
ATOM      1  C   UNL A   1      -2.976   2.056   0.684  0.00  0.00    +0.013 C 
ENDROOT
BRANCH   1   4
ATOM      2  C   UNL A   1      -5.134   2.658  -0.354  0.00  0.00    +0.224 C 
ATOM      3  O   UNL A   1      -4.638   2.743  -1.476  0.00  0.00    -0.275 OA
ATOM      4  N   UNL A   1      -4.388   2.375   0.766  0.00  0.00    -0.315 N 
ATOM      5  H   UNL A   1      -4.825   2.389   1.648  0.00  0.00    +0.000 HD
BRANCH   2   6
ATOM      6  C   UNL A   1      -6.604   2.962  -0.130  0.00  0.00    +0.097 C 
BRANCH   6   8
ATOM      7  C   UNL A   1      -6.617   5.466  -0.748  0.00  0.00    -0.005 C 
ATOM      8  C   UNL A   1      -6.765   4.404   0.312  0.00  0.00    +0.142 C 
ATOM      9  O   UNL A   1      -6.955   4.706   1.492  0.00  0.00    -0.297 OA
ENDBRANCH   6   8
BRANCH   6  10
ATOM     10  C   UNL A   1      -7.316   2.010   0.843  0.00  0.00    -0.010 C 
BRANCH  10  11
ATOM     11  C   UNL A   1      -7.266   0.558   0.427  0.00  0.00    -0.046 A 
ATOM     12  C   UNL A   1      -6.497  -0.363   1.154  0.00  0.00    -0.055 A 
ATOM     13  C   UNL A   1      -6.436  -1.704   0.767  0.00  0.00    -0.020 A 
ATOM     14  C   UNL A   1      -7.152  -2.126  -0.347  0.00  0.00    +0.117 A 
ATOM     15  C   UNL A   1      -7.925  -1.231  -1.076  0.00  0.00    -0.020 A 
ATOM     16  C   UNL A   1      -7.984   0.109  -0.691  0.00  0.00    -0.055 A 
BRANCH  14  17
ATOM     17  O   UNL A   1      -7.124  -3.425  -0.759  0.00  0.00    -0.507 OA
ATOM     18  H   UNL A   1      -6.613  -4.054  -0.290  0.00  0.00    +0.000 HD
ENDBRANCH  14  17
ENDBRANCH  10  11
ENDBRANCH   6  10
ENDBRANCH   2   6
ENDBRANCH   1   4
BRANCH   1  19
ATOM     19  C   UNL A   1      -2.730   0.670   0.093  0.00  0.00    -0.022 C 
BRANCH  19  20
ATOM     20  C   UNL A   1      -1.238   0.346   0.067  0.00  0.00    +0.011 C 
BRANCH  20  21
ATOM     21  N   UNL A   1      -1.033  -0.885  -0.691  0.00  0.00    -0.343 N 
ATOM     22  H   UNL A   1      -1.610  -1.115  -1.455  0.00  0.00    +0.000 HD
BRANCH  21  23
ATOM     23  C   UNL A   1       0.025  -1.736  -0.289  0.00  0.00    +0.041 A 
ATOM     24  C   UNL A   1       1.372  -1.321  -0.244  0.00  0.00    -0.005 A 
ATOM     25  C   UNL A   1       2.329  -2.269   0.140  0.00  0.00    +0.047 A 
ATOM     26  N   UNL A   1       2.033  -3.564   0.401  0.00  0.00    -0.251 NA
ATOM     27  C   UNL A   1       0.765  -3.974   0.289  0.00  0.00    +0.073 A 
ATOM     28  C   UNL A   1       0.484  -5.316   0.517  0.00  0.00    -0.036 A 
ATOM     29  C   UNL A   1      -0.809  -5.830   0.407  0.00  0.00    -0.060 A 
ATOM     30  C   UNL A   1      -1.855  -4.986   0.066  0.00  0.00    -0.061 A 
ATOM     31  C   UNL A   1      -1.596  -3.635  -0.162  0.00  0.00    -0.051 A 
ATOM     32  C   UNL A   1      -0.286  -3.106  -0.060  0.00  0.00    +0.021 A 
ATOM     33  C   UNL A   1       3.799  -1.940   0.213  0.00  0.00    -0.010 C 
ATOM     34  C   UNL A   1       4.089  -0.446   0.267  0.00  0.00    -0.047 C 
ATOM     35  C   UNL A   1       3.291   0.266  -0.813  0.00  0.00    -0.049 C 
ATOM     36  C   UNL A   1       1.794   0.093  -0.561  0.00  0.00    -0.024 C 
ENDBRANCH  21  23
ENDBRANCH  20  21
ENDBRANCH  19  20
ENDBRANCH   1  19
TORSDOF 10
