@<TRIPOS>MOLECULE
*****
 33 36 0 0 0
SMALL
GASTEIGER

@<TRIPOS>ATOM
      1 C          -4.3301    3.5000    0.0000 C.3     1  UNL1        0.0728
      2 C          -5.1962    3.0000    0.0000 C.2     1  UNL1        0.1597
      3 O          -6.0622    3.5000    0.0000 O.2     1  UNL1       -0.2955
      4 C          -5.1962    2.0000    0.0000 C.3     1  UNL1        0.1398
      5 C          -6.0622    1.5000    0.0000 C.3     1  UNL1        0.0429
      6 C          -6.0622    0.5000    0.0000 C.ar    1  UNL1       -0.0211
      7 C          -5.1962    0.0000    0.0000 C.ar    1  UNL1       -0.0010
      8 C          -5.1962   -1.0000    0.0000 C.ar    1  UNL1        0.0417
      9 C          -6.0622   -1.5000    0.0000 C.ar    1  UNL1        0.1957
     10 O          -6.0622   -2.5000    0.0000 O.3     1  UNL1       -0.2866
     11 C          -6.9282   -1.0000    0.0000 C.ar    1  UNL1        0.0417
     12 C          -6.9282    0.0000    0.0000 C.ar    1  UNL1       -0.0010
     13 C          -4.3301    1.5000    0.0000 C.2     1  UNL1        0.2483
     14 O          -4.3301    0.5000    0.0000 O.2     1  UNL1       -0.2729
     15 N          -3.4641    2.0000    0.0000 N.am    1  UNL1       -0.2050
     16 C          -2.5981    1.5000    0.0000 C.3     1  UNL1        0.1170
     17 C          -2.5981    0.5000    0.0000 C.3     1  UNL1        0.0467
     18 C          -1.7321    0.0000    0.0000 C.3     1  UNL1        0.1140
     19 N          -1.7321   -1.0000    0.0000 N.pl3   1  UNL1       -0.2378
     20 C          -0.8660   -1.5000    0.0000 C.ar    1  UNL1        0.0638
     21 C          -0.0000   -1.0000    0.0000 C.ar    1  UNL1        0.0062
     22 C           0.8660   -1.5000    0.0000 C.ar    1  UNL1        0.0562
     23 N           0.8660   -2.5000    0.0000 N.ar    1  UNL1       -0.2499
     24 C          -0.0000   -3.0000    0.0000 C.ar    1  UNL1        0.0821
     25 C          -0.0000   -4.0000    0.0000 C.ar    1  UNL1        0.0191
     26 C          -0.8660   -4.5000    0.0000 C.ar    1  UNL1        0.0015
     27 C          -1.7321   -4.0000    0.0000 C.ar    1  UNL1        0.0001
     28 C          -1.7321   -3.0000    0.0000 C.ar    1  UNL1        0.0028
     29 C          -0.8660   -2.5000    0.0000 C.ar    1  UNL1        0.0322
     30 C           1.7321   -1.0000    0.0000 C.3     1  UNL1        0.0455
     31 C           1.7321   -0.0000    0.0000 C.3     1  UNL1        0.0066
     32 C           0.8660    0.5000    0.0000 C.3     1  UNL1        0.0052
     33 C           0.0000   -0.0000    0.0000 C.3     1  UNL1        0.0289
@<TRIPOS>BOND
     1     1     2    1
     2     2     3    2
     3     2     4    1
     4     4     5    1
     5     5     6    1
     6     6     7   ar
     7     7     8   ar
     8     8     9   ar
     9     9    10    1
    10     9    11   ar
    11    11    12   ar
    12     6    12   ar
    13     4    13    1
    14    13    14    2
    15    13    15   am
    16    15    16    1
    17    16    17    1
    18    17    18    1
    19    18    19    1
    20    19    20    1
    21    20    21   ar
    22    21    22   ar
    23    22    23   ar
    24    23    24   ar
    25    24    25   ar
    26    25    26   ar
    27    26    27   ar
    28    27    28   ar
    29    28    29   ar
    30    20    29   ar
    31    24    29   ar
    32    22    30    1
    33    30    31    1
    34    31    32    1
    35    32    33    1
    36    21    33    1
