@<TRIPOS>MOLECULE
*****
 20 23 0 0 0
SMALL
GASTEIGER

@<TRIPOS>ATOM
      1 C          -0.7864    4.3685    0.0000 C.3     1  UNL1        0.2526
      2 O          -0.2498    3.6052    0.0000 O.3     1  UNL1       -0.4684
      3 C          -0.2643    2.6723    0.0000 C.ar    1  UNL1        0.1721
      4 C          -1.0794    2.2184    0.0000 C.ar    1  UNL1        0.0397
      5 C          -1.0939    1.2849    0.0000 C.ar    1  UNL1        0.0001
      6 C          -0.2933    0.8059    0.0000 C.ar    1  UNL1       -0.0053
      7 C           0.5223    1.2598    0.0000 C.ar    1  UNL1        0.0188
      8 C           0.5368    2.1933    0.0000 C.ar    1  UNL1        0.1682
      9 O           1.3519    2.6472    0.0000 O.3     1  UNL1       -0.4757
     10 C           2.1530    2.1682    0.0000 C.3     1  UNL1        0.1762
     11 C           2.9687    2.6221    0.0000 C.3     1  UNL1        0.0816
     12 C           3.7693    2.1430    0.0000 C.3     1  UNL1        0.1773
     13 O           4.5968    2.6038    0.0000 O.3     1  UNL1       -0.2182
     14 C           3.7548    1.2096    0.0000 C.2     1  UNL1        0.0021
     15 C           2.9396    0.7556    0.0000 C.2     1  UNL1       -0.0211
     16 C           2.1385    1.2347    0.0000 C.3     1  UNL1        0.0780
     17 C           2.1385    0.3771    0.0000 C.3     1  UNL1        0.0305
     18 C           1.5873   -0.2799    0.0000 C.3     1  UNL1        0.0899
     19 N           0.7427   -0.4288    0.0000 N.3     1  UNL1       -0.2133
     20 C           0.0000   -0.0000    0.0000 C.3     1  UNL1        0.1148
@<TRIPOS>BOND
     1     1     2    1
     2     2     3    1
     3     3     4   ar
     4     4     5   ar
     5     5     6   ar
     6     6     7   ar
     7     7     8   ar
     8     3     8   ar
     9     8     9    1
    10     9    10    1
    11    10    11    1
    12    11    12    1
    13    12    13    1
    14    12    14    1
    15    14    15    2
    16    15    16    1
    17     7    16    1
    18    10    16    1
    19    16    17    1
    20    17    18    1
    21    18    19    1
    22    19    20    1
    23     6    20    1
