MODEL 1
REMARK VINA RESULT:    -7.491      0.000      0.000
REMARK INTER + INTRA:          -8.247
REMARK INTER:                  -8.148
REMARK INTRA:                  -0.099
REMARK UNBOUND:                -0.099
REMARK  Name = cpd307.pdb
REMARK  3 active torsions:
REMARK  status: ('A' for Active; 'I' for Inactive)
REMARK    1  A    between atoms: C_1  and  O_2
REMARK    2  A    between atoms: O_2  and  C_3
REMARK    3  A    between atoms: C_12  and  O_13
REMARK                            x       y       z     vdW  Elec       q    Type
REMARK                         _______ _______ _______ _____ _____    ______ ____
ROOT
ATOM      1  C   UNL     1      39.292 -36.049 -31.173  0.00  0.00    +0.162 A 
ATOM      2  C   UNL     1      39.967 -36.957 -30.358  0.00  0.00    -0.016 A 
ATOM      3  C   UNL     1      39.255 -37.788 -29.473  0.00  0.00    -0.053 A 
ATOM      4  C   UNL     1      37.858 -37.700 -29.355  0.00  0.00    -0.026 A 
ATOM      5  C   UNL     1      37.207 -36.717 -30.097  0.00  0.00    +0.016 A 
ATOM      6  C   UNL     1      37.911 -35.965 -31.029  0.00  0.00    +0.167 A 
ATOM      7  O   UNL     1      37.111 -35.213 -31.852  0.00  0.00    -0.484 OA
ATOM      8  C   UNL     1      35.778 -35.312 -31.293  0.00  0.00    +0.116 C 
ATOM      9  C   UNL     1      35.432 -33.897 -30.813  0.00  0.00    +0.015 C 
ATOM     10  C   UNL     1      34.202 -33.871 -29.924  0.00  0.00    +0.077 C 
ATOM     11  C   UNL     1      34.373 -34.826 -28.794  0.00  0.00    -0.059 C 
ATOM     12  C   UNL     1      35.103 -35.947 -28.898  0.00  0.00    -0.071 C 
ATOM     13  C   UNL     1      35.740 -36.432 -30.191  0.00  0.00    +0.056 C 
ATOM     14  C   UNL     1      35.016 -37.696 -30.714  0.00  0.00    -0.024 C 
ATOM     15  C   UNL     1      34.941 -38.883 -29.735  0.00  0.00    -0.003 C 
ATOM     16  N   UNL     1      36.208 -39.526 -29.389  0.00  0.00    -0.312 N 
ATOM     17  C   UNL     1      37.092 -38.715 -28.550  0.00  0.00    +0.022 C 
ATOM     18  H   UNL     1      36.701 -39.744 -30.254  0.00  0.00    +0.000 HD
ATOM     19  H   UNL     1      35.971 -40.356 -28.843  0.00  0.00    +0.000 HD
ENDROOT
BRANCH   1  21
ATOM     20  C   UNL     1      40.506 -34.063 -31.655  0.00  0.00    +0.079 C 
ATOM     21  O   UNL     1      39.860 -35.241 -32.116  0.00  0.00    -0.491 OA
ENDBRANCH   1  21
BRANCH  10  22
ATOM     22  O   UNL     1      34.043 -32.574 -29.366  0.00  0.00    -0.388 OA
ATOM     23  H   UNL     1      34.290 -31.906 -30.025  0.00  0.00    +0.000 HD
ENDBRANCH  10  22
TORSDOF 2
ENDMDL
MODEL 2
REMARK VINA RESULT:    -6.666     20.484     22.127
REMARK INTER + INTRA:          -7.349
REMARK INTER:                  -7.264
REMARK INTRA:                  -0.085
REMARK UNBOUND:                -0.099
REMARK  Name = cpd307.pdb
REMARK  3 active torsions:
REMARK  status: ('A' for Active; 'I' for Inactive)
REMARK    1  A    between atoms: C_1  and  O_2
REMARK    2  A    between atoms: O_2  and  C_3
REMARK    3  A    between atoms: C_12  and  O_13
REMARK                            x       y       z     vdW  Elec       q    Type
REMARK                         _______ _______ _______ _____ _____    ______ ____
ROOT
ATOM      1  C   UNL     1      47.307 -18.713 -36.880  0.00  0.00    +0.162 A 
ATOM      2  C   UNL     1      47.349 -17.323 -36.998  0.00  0.00    -0.016 A 
ATOM      3  C   UNL     1      47.029 -16.701 -38.218  0.00  0.00    -0.053 A 
ATOM      4  C   UNL     1      46.699 -17.455 -39.357  0.00  0.00    -0.026 A 
ATOM      5  C   UNL     1      46.763 -18.842 -39.254  0.00  0.00    +0.016 A 
ATOM      6  C   UNL     1      46.996 -19.441 -38.023  0.00  0.00    +0.167 A 
ATOM      7  O   UNL     1      46.792 -20.799 -38.020  0.00  0.00    -0.484 OA
ATOM      8  C   UNL     1      46.609 -21.165 -39.410  0.00  0.00    +0.116 C 
ATOM      9  C   UNL     1      47.816 -22.044 -39.761  0.00  0.00    +0.015 C 
ATOM     10  C   UNL     1      47.954 -22.269 -41.256  0.00  0.00    +0.077 C 
ATOM     11  C   UNL     1      47.981 -20.958 -41.965  0.00  0.00    -0.059 C 
ATOM     12  C   UNL     1      47.340 -19.873 -41.504  0.00  0.00    -0.071 C 
ATOM     13  C   UNL     1      46.429 -19.874 -40.287  0.00  0.00    +0.056 C 
ATOM     14  C   UNL     1      44.951 -19.698 -40.713  0.00  0.00    -0.024 C 
ATOM     15  C   UNL     1      44.637 -18.445 -41.553  0.00  0.00    -0.003 C 
ATOM     16  N   UNL     1      44.792 -17.154 -40.885  0.00  0.00    -0.312 N 
ATOM     17  C   UNL     1      46.178 -16.780 -40.598  0.00  0.00    +0.022 C 
ATOM     18  H   UNL     1      44.283 -17.189 -40.002  0.00  0.00    +0.000 HD
ATOM     19  H   UNL     1      44.429 -16.450 -41.528  0.00  0.00    +0.000 HD
ENDROOT
BRANCH   1  21
ATOM     20  C   UNL     1      48.583 -18.990 -34.894  0.00  0.00    +0.079 C 
ATOM     21  O   UNL     1      47.528 -19.428 -35.738  0.00  0.00    -0.491 OA
ENDBRANCH   1  21
BRANCH  10  22
ATOM     22  O   UNL     1      49.184 -22.927 -41.529  0.00  0.00    -0.388 OA
ATOM     23  H   UNL     1      49.215 -23.767 -41.045  0.00  0.00    +0.000 HD
ENDBRANCH  10  22
TORSDOF 2
ENDMDL
MODEL 3
REMARK VINA RESULT:    -6.647      1.793      4.548
REMARK INTER + INTRA:          -7.329
REMARK INTER:                  -7.247
REMARK INTRA:                  -0.082
REMARK UNBOUND:                -0.099
REMARK  Name = cpd307.pdb
REMARK  3 active torsions:
REMARK  status: ('A' for Active; 'I' for Inactive)
REMARK    1  A    between atoms: C_1  and  O_2
REMARK    2  A    between atoms: O_2  and  C_3
REMARK    3  A    between atoms: C_12  and  O_13
REMARK                            x       y       z     vdW  Elec       q    Type
REMARK                         _______ _______ _______ _____ _____    ______ ____
ROOT
ATOM      1  C   UNL     1      33.946 -37.255 -32.068  0.00  0.00    +0.162 A 
ATOM      2  C   UNL     1      33.631 -38.608 -31.934  0.00  0.00    -0.016 A 
ATOM      3  C   UNL     1      34.428 -39.450 -31.138  0.00  0.00    -0.053 A 
ATOM      4  C   UNL     1      35.579 -38.968 -30.492  0.00  0.00    -0.026 A 
ATOM      5  C   UNL     1      35.940 -37.642 -30.718  0.00  0.00    +0.016 A 
ATOM      6  C   UNL     1      35.098 -36.802 -31.435  0.00  0.00    +0.167 A 
ATOM      7  O   UNL     1      35.453 -35.478 -31.374  0.00  0.00    -0.484 OA
ATOM      8  C   UNL     1      36.755 -35.456 -30.737  0.00  0.00    +0.116 C 
ATOM      9  C   UNL     1      37.726 -34.953 -31.813  0.00  0.00    +0.015 C 
ATOM     10  C   UNL     1      39.179 -35.157 -31.422  0.00  0.00    +0.077 C 
ATOM     11  C   UNL     1      39.414 -36.585 -31.068  0.00  0.00    -0.059 C 
ATOM     12  C   UNL     1      38.459 -37.366 -30.538  0.00  0.00    -0.071 C 
ATOM     13  C   UNL     1      37.081 -36.869 -30.132  0.00  0.00    +0.056 C 
ATOM     14  C   UNL     1      36.939 -36.855 -28.590  0.00  0.00    -0.024 C 
ATOM     15  C   UNL     1      37.201 -38.197 -27.879  0.00  0.00    -0.003 C 
ATOM     16  N   UNL     1      36.249 -39.274 -28.142  0.00  0.00    -0.312 N 
ATOM     17  C   UNL     1      36.314 -39.826 -29.497  0.00  0.00    +0.022 C 
ATOM     18  H   UNL     1      35.308 -38.912 -27.992  0.00  0.00    +0.000 HD
ATOM     19  H   UNL     1      36.490 -40.036 -27.507  0.00  0.00    +0.000 HD
ENDROOT
BRANCH   1  21
ATOM     20  C   UNL     1      32.391 -36.800 -33.807  0.00  0.00    +0.079 C 
ATOM     21  O   UNL     1      33.216 -36.326 -32.753  0.00  0.00    -0.491 OA
ENDBRANCH   1  21
BRANCH  10  22
ATOM     22  O   UNL     1      40.019 -34.847 -32.526  0.00  0.00    -0.388 OA
ATOM     23  H   UNL     1      39.582 -34.189 -33.090  0.00  0.00    +0.000 HD
ENDBRANCH  10  22
TORSDOF 2
ENDMDL
MODEL 4
REMARK VINA RESULT:    -6.591      1.473      1.769
REMARK INTER + INTRA:          -7.268
REMARK INTER:                  -7.169
REMARK INTRA:                  -0.099
REMARK UNBOUND:                -0.099
REMARK  Name = cpd307.pdb
REMARK  3 active torsions:
REMARK  status: ('A' for Active; 'I' for Inactive)
REMARK    1  A    between atoms: C_1  and  O_2
REMARK    2  A    between atoms: O_2  and  C_3
REMARK    3  A    between atoms: C_12  and  O_13
REMARK                            x       y       z     vdW  Elec       q    Type
REMARK                         _______ _______ _______ _____ _____    ______ ____
ROOT
ATOM      1  C   UNL     1      37.914 -36.142 -30.905  0.00  0.00    +0.162 A 
ATOM      2  C   UNL     1      38.444 -36.844 -29.822  0.00  0.00    -0.016 A 
ATOM      3  C   UNL     1      37.632 -37.185 -28.726  0.00  0.00    -0.053 A 
ATOM      4  C   UNL     1      36.284 -36.795 -28.669  0.00  0.00    -0.026 A 
ATOM      5  C   UNL     1      35.794 -36.005 -29.706  0.00  0.00    +0.016 A 
ATOM      6  C   UNL     1      36.582 -35.750 -30.821  0.00  0.00    +0.167 A 
ATOM      7  O   UNL     1      35.900 -35.171 -31.861  0.00  0.00    -0.484 OA
ATOM      8  C   UNL     1      34.600 -34.822 -31.324  0.00  0.00    +0.116 C 
ATOM      9  C   UNL     1      34.549 -33.289 -31.347  0.00  0.00    +0.015 C 
ATOM     10  C   UNL     1      33.389 -32.736 -30.539  0.00  0.00    +0.077 C 
ATOM     11  C   UNL     1      33.431 -33.282 -29.153  0.00  0.00    -0.059 C 
ATOM     12  C   UNL     1      33.932 -34.493 -28.867  0.00  0.00    -0.071 C 
ATOM     13  C   UNL     1      34.405 -35.489 -29.915  0.00  0.00    +0.056 C 
ATOM     14  C   UNL     1      33.431 -36.690 -30.003  0.00  0.00    -0.024 C 
ATOM     15  C   UNL     1      33.182 -37.452 -28.687  0.00  0.00    -0.003 C 
ATOM     16  N   UNL     1      34.320 -38.177 -28.125  0.00  0.00    -0.312 N 
ATOM     17  C   UNL     1      35.380 -37.322 -27.586  0.00  0.00    +0.022 C 
ATOM     18  H   UNL     1      34.722 -38.757 -28.860  0.00  0.00    +0.000 HD
ATOM     19  H   UNL     1      33.958 -38.719 -27.340  0.00  0.00    +0.000 HD
ENDROOT
BRANCH   1  21
ATOM     20  C   UNL     1      39.462 -34.703 -31.993  0.00  0.00    +0.079 C 
ATOM     21  O   UNL     1      38.579 -35.814 -32.052  0.00  0.00    -0.491 OA
ENDBRANCH   1  21
BRANCH  10  22
ATOM     22  O   UNL     1      33.503 -31.323 -30.444  0.00  0.00    -0.388 OA
ATOM     23  H   UNL     1      33.973 -30.984 -31.223  0.00  0.00    +0.000 HD
ENDBRANCH  10  22
TORSDOF 2
ENDMDL
MODEL 5
REMARK VINA RESULT:    -6.268     35.938     37.926
REMARK INTER + INTRA:          -6.916
REMARK INTER:                  -6.819
REMARK INTRA:                  -0.097
REMARK UNBOUND:                -0.099
REMARK  Name = cpd307.pdb
REMARK  3 active torsions:
REMARK  status: ('A' for Active; 'I' for Inactive)
REMARK    1  A    between atoms: C_1  and  O_2
REMARK    2  A    between atoms: O_2  and  C_3
REMARK    3  A    between atoms: C_12  and  O_13
REMARK                            x       y       z     vdW  Elec       q    Type
REMARK                         _______ _______ _______ _____ _____    ______ ____
ROOT
ATOM      1  C   UNL     1      62.816 -19.982  -7.037  0.00  0.00    +0.162 A 
ATOM      2  C   UNL     1      62.454 -19.653  -5.730  0.00  0.00    -0.016 A 
ATOM      3  C   UNL     1      62.486 -20.625  -4.714  0.00  0.00    -0.053 A 
ATOM      4  C   UNL     1      62.843 -21.956  -4.990  0.00  0.00    -0.026 A 
ATOM      5  C   UNL     1      63.101 -22.295  -6.316  0.00  0.00    +0.016 A 
ATOM      6  C   UNL     1      63.148 -21.308  -7.292  0.00  0.00    +0.167 A 
ATOM      7  O   UNL     1      63.646 -21.741  -8.495  0.00  0.00    -0.484 OA
ATOM      8  C   UNL     1      63.747 -23.182  -8.375  0.00  0.00    +0.116 C 
ATOM      9  C   UNL     1      62.732 -23.745  -9.379  0.00  0.00    +0.015 C 
ATOM     10  C   UNL     1      62.477 -25.228  -9.176  0.00  0.00    +0.077 C 
ATOM     11  C   UNL     1      62.079 -25.485  -7.763  0.00  0.00    -0.059 C 
ATOM     12  C   UNL     1      62.512 -24.730  -6.740  0.00  0.00    -0.071 C 
ATOM     13  C   UNL     1      63.534 -23.613  -6.879  0.00  0.00    +0.056 C 
ATOM     14  C   UNL     1      64.878 -24.019  -6.227  0.00  0.00    -0.024 C 
ATOM     15  C   UNL     1      64.808 -24.432  -4.744  0.00  0.00    -0.003 C 
ATOM     16  N   UNL     1      64.448 -23.385  -3.789  0.00  0.00    -0.312 N 
ATOM     17  C   UNL     1      63.056 -22.940  -3.871  0.00  0.00    +0.022 C 
ATOM     18  H   UNL     1      65.050 -22.579  -3.959  0.00  0.00    +0.000 HD
ATOM     19  H   UNL     1      64.570 -23.786  -2.859  0.00  0.00    +0.000 HD
ENDROOT
BRANCH   1  21
ATOM     20  C   UNL     1      63.961 -18.183  -8.086  0.00  0.00    +0.079 C 
ATOM     21  O   UNL     1      62.890 -19.116  -8.090  0.00  0.00    -0.491 OA
ENDBRANCH   1  21
BRANCH  10  22
ATOM     22  O   UNL     1      61.401 -25.646 -10.004  0.00  0.00    -0.388 OA
ATOM     23  H   UNL     1      61.649 -26.461 -10.468  0.00  0.00    +0.000 HD
ENDBRANCH  10  22
TORSDOF 2
ENDMDL
MODEL 6
REMARK VINA RESULT:    -6.173     17.552     20.903
REMARK INTER + INTRA:          -6.813
REMARK INTER:                  -6.719
REMARK INTRA:                  -0.094
REMARK UNBOUND:                -0.099
REMARK  Name = cpd307.pdb
REMARK  3 active torsions:
REMARK  status: ('A' for Active; 'I' for Inactive)
REMARK    1  A    between atoms: C_1  and  O_2
REMARK    2  A    between atoms: O_2  and  C_3
REMARK    3  A    between atoms: C_12  and  O_13
REMARK                            x       y       z     vdW  Elec       q    Type
REMARK                         _______ _______ _______ _____ _____    ______ ____
ROOT
ATOM      1  C   UNL     1      42.560 -21.089 -39.449  0.00  0.00    +0.162 A 
ATOM      2  C   UNL     1      42.027 -21.563 -40.648  0.00  0.00    -0.016 A 
ATOM      3  C   UNL     1      42.834 -21.667 -41.796  0.00  0.00    -0.053 A 
ATOM      4  C   UNL     1      44.179 -21.261 -41.780  0.00  0.00    -0.026 A 
ATOM      5  C   UNL     1      44.670 -20.693 -40.608  0.00  0.00    +0.016 A 
ATOM      6  C   UNL     1      43.888 -20.677 -39.459  0.00  0.00    +0.167 A 
ATOM      7  O   UNL     1      44.574 -20.314 -38.327  0.00  0.00    -0.484 OA
ATOM      8  C   UNL     1      45.867 -19.852 -38.790  0.00  0.00    +0.116 C 
ATOM      9  C   UNL     1      45.906 -18.355 -38.457  0.00  0.00    +0.015 C 
ATOM     10  C   UNL     1      47.056 -17.639 -39.143  0.00  0.00    +0.077 C 
ATOM     11  C   UNL     1      47.008 -17.893 -40.611  0.00  0.00    -0.059 C 
ATOM     12  C   UNL     1      46.514 -19.026 -41.134  0.00  0.00    -0.071 C 
ATOM     13  C   UNL     1      46.057 -20.217 -40.306  0.00  0.00    +0.056 C 
ATOM     14  C   UNL     1      47.041 -21.402 -40.469  0.00  0.00    -0.024 C 
ATOM     15  C   UNL     1      47.286 -21.879 -41.913  0.00  0.00    -0.003 C 
ATOM     16  N   UNL     1      46.150 -22.486 -42.605  0.00  0.00    -0.312 N 
ATOM     17  C   UNL     1      45.079 -21.550 -42.952  0.00  0.00    +0.022 C 
ATOM     18  H   UNL     1      45.757 -23.207 -42.000  0.00  0.00    +0.000 HD
ATOM     19  H   UNL     1      46.510 -22.855 -43.485  0.00  0.00    +0.000 HD
ENDROOT
BRANCH   1  21
ATOM     20  C   UNL     1      41.342 -22.206 -37.741  0.00  0.00    +0.079 C 
ATOM     21  O   UNL     1      41.902 -21.007 -38.255  0.00  0.00    -0.491 OA
ENDBRANCH   1  21
BRANCH  10  22
ATOM     22  O   UNL     1      46.930 -16.237 -38.949  0.00  0.00    -0.388 OA
ATOM     23  H   UNL     1      46.048 -16.037 -38.596  0.00  0.00    +0.000 HD
ENDBRANCH  10  22
TORSDOF 2
ENDMDL
MODEL 7
REMARK VINA RESULT:    -6.172     17.770     20.129
REMARK INTER + INTRA:          -6.812
REMARK INTER:                  -6.728
REMARK INTRA:                  -0.084
REMARK UNBOUND:                -0.099
REMARK  Name = cpd307.pdb
REMARK  3 active torsions:
REMARK  status: ('A' for Active; 'I' for Inactive)
REMARK    1  A    between atoms: C_1  and  O_2
REMARK    2  A    between atoms: O_2  and  C_3
REMARK    3  A    between atoms: C_12  and  O_13
REMARK                            x       y       z     vdW  Elec       q    Type
REMARK                         _______ _______ _______ _____ _____    ______ ____
ROOT
ATOM      1  C   UNL     1      42.329 -20.814 -38.615  0.00  0.00    +0.162 A 
ATOM      2  C   UNL     1      42.324 -20.633 -37.231  0.00  0.00    -0.016 A 
ATOM      3  C   UNL     1      43.521 -20.365 -36.542  0.00  0.00    -0.053 A 
ATOM      4  C   UNL     1      44.753 -20.313 -37.215  0.00  0.00    -0.026 A 
ATOM      5  C   UNL     1      44.759 -20.599 -38.578  0.00  0.00    +0.016 A 
ATOM      6  C   UNL     1      43.561 -20.776 -39.259  0.00  0.00    +0.167 A 
ATOM      7  O   UNL     1      43.699 -20.809 -40.624  0.00  0.00    -0.484 OA
ATOM      8  C   UNL     1      45.127 -20.865 -40.867  0.00  0.00    +0.116 C 
ATOM      9  C   UNL     1      45.378 -22.239 -41.501  0.00  0.00    +0.015 C 
ATOM     10  C   UNL     1      46.852 -22.598 -41.542  0.00  0.00    +0.077 C 
ATOM     11  C   UNL     1      47.439 -22.489 -40.177  0.00  0.00    -0.059 C 
ATOM     12  C   UNL     1      46.984 -21.619 -39.261  0.00  0.00    -0.071 C 
ATOM     13  C   UNL     1      45.910 -20.578 -39.535  0.00  0.00    +0.056 C 
ATOM     14  C   UNL     1      46.522 -19.156 -39.552  0.00  0.00    -0.024 C 
ATOM     15  C   UNL     1      47.291 -18.739 -38.283  0.00  0.00    -0.003 C 
ATOM     16  N   UNL     1      46.503 -18.587 -37.061  0.00  0.00    -0.312 N 
ATOM     17  C   UNL     1      45.994 -19.842 -36.505  0.00  0.00    +0.022 C 
ATOM     18  H   UNL     1      45.706 -17.986 -37.269  0.00  0.00    +0.000 HD
ATOM     19  H   UNL     1      47.129 -18.192 -36.359  0.00  0.00    +0.000 HD
ENDROOT
BRANCH   1  21
ATOM     20  C   UNL     1      40.159 -21.755 -38.842  0.00  0.00    +0.079 C 
ATOM     21  O   UNL     1      41.231 -21.011 -39.402  0.00  0.00    -0.491 OA
ENDBRANCH   1  21
BRANCH  10  22
ATOM     22  O   UNL     1      47.005 -23.946 -41.965  0.00  0.00    -0.388 OA
ATOM     23  H   UNL     1      47.690 -23.995 -42.650  0.00  0.00    +0.000 HD
ENDBRANCH  10  22
TORSDOF 2
ENDMDL
MODEL 8
REMARK VINA RESULT:    -6.160     30.570     31.569
REMARK INTER + INTRA:          -6.799
REMARK INTER:                  -6.702
REMARK INTRA:                  -0.097
REMARK UNBOUND:                -0.099
REMARK  Name = cpd307.pdb
REMARK  3 active torsions:
REMARK  status: ('A' for Active; 'I' for Inactive)
REMARK    1  A    between atoms: C_1  and  O_2
REMARK    2  A    between atoms: O_2  and  C_3
REMARK    3  A    between atoms: C_12  and  O_13
REMARK                            x       y       z     vdW  Elec       q    Type
REMARK                         _______ _______ _______ _____ _____    ______ ____
ROOT
ATOM      1  C   UNL     1      54.781 -15.259 -16.280  0.00  0.00    +0.162 A 
ATOM      2  C   UNL     1      53.499 -14.839 -15.923  0.00  0.00    -0.016 A 
ATOM      3  C   UNL     1      52.965 -15.169 -14.665  0.00  0.00    -0.053 A 
ATOM      4  C   UNL     1      53.684 -15.958 -13.752  0.00  0.00    -0.026 A 
ATOM      5  C   UNL     1      54.918 -16.458 -14.161  0.00  0.00    +0.016 A 
ATOM      6  C   UNL     1      55.469 -16.054 -15.370  0.00  0.00    +0.167 A 
ATOM      7  O   UNL     1      56.780 -16.426 -15.534  0.00  0.00    -0.484 OA
ATOM      8  C   UNL     1      57.065 -17.328 -14.437  0.00  0.00    +0.116 C 
ATOM      9  C   UNL     1      57.317 -18.694 -15.089  0.00  0.00    +0.015 C 
ATOM     10  C   UNL     1      57.330 -19.826 -14.077  0.00  0.00    +0.077 C 
ATOM     11  C   UNL     1      56.073 -19.803 -13.276  0.00  0.00    -0.059 C 
ATOM     12  C   UNL     1      55.405 -18.670 -13.009  0.00  0.00    -0.071 C 
ATOM     13  C   UNL     1      55.899 -17.282 -13.385  0.00  0.00    +0.056 C 
ATOM     14  C   UNL     1      56.327 -16.495 -12.122  0.00  0.00    -0.024 C 
ATOM     15  C   UNL     1      55.254 -16.349 -11.025  0.00  0.00    -0.003 C 
ATOM     16  N   UNL     1      54.083 -15.540 -11.358  0.00  0.00    -0.312 N 
ATOM     17  C   UNL     1      53.186 -16.147 -12.344  0.00  0.00    +0.022 C 
ATOM     18  H   UNL     1      54.407 -14.648 -11.731  0.00  0.00    +0.000 HD
ATOM     19  H   UNL     1      53.544 -15.442 -10.497  0.00  0.00    +0.000 HD
ENDROOT
BRANCH   1  21
ATOM     20  C   UNL     1      55.802 -13.589 -17.629  0.00  0.00    +0.079 C 
ATOM     21  O   UNL     1      55.433 -14.947 -17.439  0.00  0.00    -0.491 OA
ENDBRANCH   1  21
BRANCH  10  22
ATOM     22  O   UNL     1      57.380 -21.073 -14.756  0.00  0.00    -0.388 OA
ATOM     23  H   UNL     1      58.144 -21.085 -15.355  0.00  0.00    +0.000 HD
ENDBRANCH  10  22
TORSDOF 2
ENDMDL
MODEL 9
REMARK VINA RESULT:    -6.149     36.502     38.486
REMARK INTER + INTRA:          -6.787
REMARK INTER:                  -6.689
REMARK INTRA:                  -0.098
REMARK UNBOUND:                -0.099
REMARK  Name = cpd307.pdb
REMARK  3 active torsions:
REMARK  status: ('A' for Active; 'I' for Inactive)
REMARK    1  A    between atoms: C_1  and  O_2
REMARK    2  A    between atoms: O_2  and  C_3
REMARK    3  A    between atoms: C_12  and  O_13
REMARK                            x       y       z     vdW  Elec       q    Type
REMARK                         _______ _______ _______ _____ _____    ______ ____
ROOT
ATOM      1  C   UNL     1      64.051 -25.230  -7.469  0.00  0.00    +0.162 A 
ATOM      2  C   UNL     1      63.406 -25.140  -8.703  0.00  0.00    -0.016 A 
ATOM      3  C   UNL     1      62.930 -23.902  -9.170  0.00  0.00    -0.053 A 
ATOM      4  C   UNL     1      63.052 -22.735  -8.397  0.00  0.00    -0.026 A 
ATOM      5  C   UNL     1      63.604 -22.857  -7.124  0.00  0.00    +0.016 A 
ATOM      6  C   UNL     1      64.146 -24.068  -6.711  0.00  0.00    +0.167 A 
ATOM      7  O   UNL     1      64.865 -23.985  -5.545  0.00  0.00    -0.484 OA
ATOM      8  C   UNL     1      64.610 -22.655  -5.028  0.00  0.00    +0.116 C 
ATOM      9  C   UNL     1      63.832 -22.869  -3.723  0.00  0.00    +0.015 C 
ATOM     10  C   UNL     1      63.213 -21.585  -3.200  0.00  0.00    +0.077 C 
ATOM     11  C   UNL     1      62.377 -20.957  -4.261  0.00  0.00    -0.059 C 
ATOM     12  C   UNL     1      62.648 -21.089  -5.569  0.00  0.00    -0.071 C 
ATOM     13  C   UNL     1      63.884 -21.785  -6.117  0.00  0.00    +0.056 C 
ATOM     14  C   UNL     1      64.859 -20.755  -6.739  0.00  0.00    -0.024 C 
ATOM     15  C   UNL     1      64.274 -19.860  -7.849  0.00  0.00    -0.003 C 
ATOM     16  N   UNL     1      63.890 -20.526  -9.092  0.00  0.00    -0.312 N 
ATOM     17  C   UNL     1      62.713 -21.390  -8.981  0.00  0.00    +0.022 C 
ATOM     18  H   UNL     1      64.675 -21.097  -9.403  0.00  0.00    +0.000 HD
ATOM     19  H   UNL     1      63.646 -19.788  -9.753  0.00  0.00    +0.000 HD
ENDROOT
BRANCH   1  21
ATOM     20  C   UNL     1      63.741 -27.282  -6.310  0.00  0.00    +0.079 C 
ATOM     21  O   UNL     1      64.614 -26.356  -6.939  0.00  0.00    -0.491 OA
ENDBRANCH   1  21
BRANCH  10  22
ATOM     22  O   UNL     1      62.360 -21.879  -2.102  0.00  0.00    -0.388 OA
ATOM     23  H   UNL     1      62.870 -22.320  -1.405  0.00  0.00    +0.000 HD
ENDBRANCH  10  22
TORSDOF 2
ENDMDL
MODEL 10
REMARK VINA RESULT:    -6.070     36.529     38.534
REMARK INTER + INTRA:          -6.701
REMARK INTER:                  -6.610
REMARK INTRA:                  -0.091
REMARK UNBOUND:                -0.099
REMARK  Name = cpd307.pdb
REMARK  3 active torsions:
REMARK  status: ('A' for Active; 'I' for Inactive)
REMARK    1  A    between atoms: C_1  and  O_2
REMARK    2  A    between atoms: O_2  and  C_3
REMARK    3  A    between atoms: C_12  and  O_13
REMARK                            x       y       z     vdW  Elec       q    Type
REMARK                         _______ _______ _______ _____ _____    ______ ____
ROOT
ATOM      1  C   UNL     1      63.163 -22.591  -9.389  0.00  0.00    +0.162 A 
ATOM      2  C   UNL     1      63.657 -23.734 -10.017  0.00  0.00    -0.016 A 
ATOM      3  C   UNL     1      64.385 -24.691  -9.287  0.00  0.00    -0.053 A 
ATOM      4  C   UNL     1      64.669 -24.507  -7.924  0.00  0.00    -0.026 A 
ATOM      5  C   UNL     1      64.260 -23.314  -7.334  0.00  0.00    +0.016 A 
ATOM      6  C   UNL     1      63.469 -22.419  -8.043  0.00  0.00    +0.167 A 
ATOM      7  O   UNL     1      62.943 -21.413  -7.273  0.00  0.00    -0.484 OA
ATOM      8  C   UNL     1      63.600 -21.527  -5.986  0.00  0.00    +0.116 C 
ATOM      9  C   UNL     1      64.443 -20.252  -5.847  0.00  0.00    +0.015 C 
ATOM     10  C   UNL     1      65.438 -20.338  -4.703  0.00  0.00    +0.077 C 
ATOM     11  C   UNL     1      66.278 -21.559  -4.852  0.00  0.00    -0.059 C 
ATOM     12  C   UNL     1      65.828 -22.680  -5.437  0.00  0.00    -0.071 C 
ATOM     13  C   UNL     1      64.396 -22.880  -5.907  0.00  0.00    +0.056 C 
ATOM     14  C   UNL     1      63.662 -23.898  -5.001  0.00  0.00    -0.024 C 
ATOM     15  C   UNL     1      64.327 -25.282  -4.868  0.00  0.00    -0.003 C 
ATOM     16  N   UNL     1      64.370 -26.106  -6.075  0.00  0.00    -0.312 N 
ATOM     17  C   UNL     1      65.281 -25.618  -7.112  0.00  0.00    +0.022 C 
ATOM     18  H   UNL     1      63.430 -26.143  -6.469  0.00  0.00    +0.000 HD
ATOM     19  H   UNL     1      64.720 -27.021  -5.789  0.00  0.00    +0.000 HD
ENDROOT
BRANCH   1  21
ATOM     20  C   UNL     1      63.060 -20.603 -10.688  0.00  0.00    +0.079 C 
ATOM     21  O   UNL     1      62.388 -21.628  -9.969  0.00  0.00    -0.491 OA
ENDBRANCH   1  21
BRANCH  10  22
ATOM     22  O   UNL     1      66.307 -19.214  -4.741  0.00  0.00    -0.388 OA
ATOM     23  H   UNL     1      67.175 -19.489  -5.079  0.00  0.00    +0.000 HD
ENDBRANCH  10  22
TORSDOF 2
ENDMDL
MODEL 11
REMARK VINA RESULT:    -6.045     25.279     27.530
REMARK INTER + INTRA:          -6.674
REMARK INTER:                  -6.576
REMARK INTRA:                  -0.097
REMARK UNBOUND:                -0.099
REMARK  Name = cpd307.pdb
REMARK  3 active torsions:
REMARK  status: ('A' for Active; 'I' for Inactive)
REMARK    1  A    between atoms: C_1  and  O_2
REMARK    2  A    between atoms: O_2  and  C_3
REMARK    3  A    between atoms: C_12  and  O_13
REMARK                            x       y       z     vdW  Elec       q    Type
REMARK                         _______ _______ _______ _____ _____    ______ ____
ROOT
ATOM      1  C   UNL     1      45.168 -33.068 -57.978  0.00  0.00    +0.162 A 
ATOM      2  C   UNL     1      45.784 -33.658 -59.082  0.00  0.00    -0.016 A 
ATOM      3  C   UNL     1      46.196 -35.002 -59.035  0.00  0.00    -0.053 A 
ATOM      4  C   UNL     1      46.037 -35.773 -57.872  0.00  0.00    -0.026 A 
ATOM      5  C   UNL     1      45.516 -35.143 -56.745  0.00  0.00    +0.016 A 
ATOM      6  C   UNL     1      45.035 -33.843 -56.831  0.00  0.00    +0.167 A 
ATOM      7  O   UNL     1      44.336 -33.435 -55.722  0.00  0.00    -0.484 OA
ATOM      8  C   UNL     1      44.542 -34.474 -54.732  0.00  0.00    +0.116 C 
ATOM      9  C   UNL     1      45.353 -33.811 -53.611  0.00  0.00    +0.015 C 
ATOM     10  C   UNL     1      45.924 -34.823 -52.634  0.00  0.00    +0.077 C 
ATOM     11  C   UNL     1      46.712 -35.851 -53.371  0.00  0.00    -0.059 C 
ATOM     12  C   UNL     1      46.421 -36.221 -54.629  0.00  0.00    -0.071 C 
ATOM     13  C   UNL     1      45.207 -35.730 -55.402  0.00  0.00    +0.056 C 
ATOM     14  C   UNL     1      44.176 -36.872 -55.578  0.00  0.00    -0.024 C 
ATOM     15  C   UNL     1      44.700 -38.152 -56.257  0.00  0.00    -0.003 C 
ATOM     16  N   UNL     1      45.089 -38.036 -57.661  0.00  0.00    -0.312 N 
ATOM     17  C   UNL     1      46.305 -37.254 -57.893  0.00  0.00    +0.022 C 
ATOM     18  H   UNL     1      44.324 -37.592 -58.168  0.00  0.00    +0.000 HD
ATOM     19  H   UNL     1      45.287 -38.983 -57.986  0.00  0.00    +0.000 HD
ENDROOT
BRANCH   1  21
ATOM     20  C   UNL     1      45.589 -30.746 -57.692  0.00  0.00    +0.079 C 
ATOM     21  O   UNL     1      44.665 -31.799 -57.923  0.00  0.00    -0.491 OA
ENDBRANCH   1  21
BRANCH  10  22
ATOM     22  O   UNL     1      46.811 -34.171 -51.735  0.00  0.00    -0.388 OA
ATOM     23  H   UNL     1      46.563 -33.236 -51.657  0.00  0.00    +0.000 HD
ENDBRANCH  10  22
TORSDOF 2
ENDMDL
MODEL 12
REMARK VINA RESULT:    -5.996     35.728     37.787
REMARK INTER + INTRA:          -6.621
REMARK INTER:                  -6.522
REMARK INTRA:                  -0.099
REMARK UNBOUND:                -0.099
REMARK  Name = cpd307.pdb
REMARK  3 active torsions:
REMARK  status: ('A' for Active; 'I' for Inactive)
REMARK    1  A    between atoms: C_1  and  O_2
REMARK    2  A    between atoms: O_2  and  C_3
REMARK    3  A    between atoms: C_12  and  O_13
REMARK                            x       y       z     vdW  Elec       q    Type
REMARK                         _______ _______ _______ _____ _____    ______ ____
ROOT
ATOM      1  C   UNL     1      62.805 -20.197  -8.613  0.00  0.00    +0.162 A 
ATOM      2  C   UNL     1      62.945 -20.470  -9.974  0.00  0.00    -0.016 A 
ATOM      3  C   UNL     1      63.164 -21.785 -10.420  0.00  0.00    -0.053 A 
ATOM      4  C   UNL     1      63.288 -22.851  -9.513  0.00  0.00    -0.026 A 
ATOM      5  C   UNL     1      63.251 -22.551  -8.154  0.00  0.00    +0.016 A 
ATOM      6  C   UNL     1      62.949 -21.263  -7.731  0.00  0.00    +0.167 A 
ATOM      7  O   UNL     1      62.709 -21.164  -6.383  0.00  0.00    -0.484 OA
ATOM      8  C   UNL     1      63.082 -22.449  -5.829  0.00  0.00    +0.116 C 
ATOM      9  C   UNL     1      64.295 -22.167  -4.931  0.00  0.00    +0.015 C 
ATOM     10  C   UNL     1      65.010 -23.438  -4.509  0.00  0.00    +0.077 C 
ATOM     11  C   UNL     1      65.370 -24.241  -5.711  0.00  0.00    -0.059 C 
ATOM     12  C   UNL     1      64.640 -24.223  -6.838  0.00  0.00    -0.071 C 
ATOM     13  C   UNL     1      63.319 -23.485  -6.986  0.00  0.00    +0.056 C 
ATOM     14  C   UNL     1      62.142 -24.488  -7.077  0.00  0.00    -0.024 C 
ATOM     15  C   UNL     1      62.240 -25.540  -8.199  0.00  0.00    -0.003 C 
ATOM     16  N   UNL     1      62.164 -25.041  -9.571  0.00  0.00    -0.312 N 
ATOM     17  C   UNL     1      63.333 -24.273 -10.004  0.00  0.00    +0.022 C 
ATOM     18  H   UNL     1      61.344 -24.441  -9.647  0.00  0.00    +0.000 HD
ATOM     19  H   UNL     1      62.116 -25.862 -10.175  0.00  0.00    +0.000 HD
ENDROOT
BRANCH   1  21
ATOM     20  C   UNL     1      63.590 -18.047  -7.973  0.00  0.00    +0.079 C 
ATOM     21  O   UNL     1      62.523 -18.979  -8.063  0.00  0.00    -0.491 OA
ENDBRANCH   1  21
BRANCH  10  22
ATOM     22  O   UNL     1      66.220 -23.106  -3.841  0.00  0.00    -0.388 OA
ATOM     23  H   UNL     1      66.526 -23.869  -3.327  0.00  0.00    +0.000 HD
ENDBRANCH  10  22
TORSDOF 2
ENDMDL
MODEL 13
REMARK VINA RESULT:    -5.975     25.541     27.008
REMARK INTER + INTRA:          -6.598
REMARK INTER:                  -6.503
REMARK INTRA:                  -0.095
REMARK UNBOUND:                -0.099
REMARK  Name = cpd307.pdb
REMARK  3 active torsions:
REMARK  status: ('A' for Active; 'I' for Inactive)
REMARK    1  A    between atoms: C_1  and  O_2
REMARK    2  A    between atoms: O_2  and  C_3
REMARK    3  A    between atoms: C_12  and  O_13
REMARK                            x       y       z     vdW  Elec       q    Type
REMARK                         _______ _______ _______ _____ _____    ______ ____
ROOT
ATOM      1  C   UNL     1      48.821 -31.494 -53.935  0.00  0.00    +0.162 A 
ATOM      2  C   UNL     1      48.656 -30.667 -55.047  0.00  0.00    -0.016 A 
ATOM      3  C   UNL     1      47.714 -30.988 -56.041  0.00  0.00    -0.053 A 
ATOM      4  C   UNL     1      46.946 -32.162 -55.965  0.00  0.00    -0.026 A 
ATOM      5  C   UNL     1      47.194 -33.030 -54.905  0.00  0.00    +0.016 A 
ATOM      6  C   UNL     1      48.064 -32.659 -53.888  0.00  0.00    +0.167 A 
ATOM      7  O   UNL     1      48.030 -33.492 -52.798  0.00  0.00    -0.484 OA
ATOM      8  C   UNL     1      47.223 -34.626 -53.203  0.00  0.00    +0.116 C 
ATOM      9  C   UNL     1      48.184 -35.822 -53.219  0.00  0.00    +0.015 C 
ATOM     10  C   UNL     1      47.589 -37.034 -53.915  0.00  0.00    +0.077 C 
ATOM     11  C   UNL     1      47.128 -36.658 -55.281  0.00  0.00    -0.059 C 
ATOM     12  C   UNL     1      46.689 -35.426 -55.584  0.00  0.00    -0.071 C 
ATOM     13  C   UNL     1      46.503 -34.314 -54.564  0.00  0.00    +0.056 C 
ATOM     14  C   UNL     1      44.998 -34.029 -54.338  0.00  0.00    -0.024 C 
ATOM     15  C   UNL     1      44.183 -33.675 -55.598  0.00  0.00    -0.003 C 
ATOM     16  N   UNL     1      44.514 -32.413 -56.257  0.00  0.00    -0.312 N 
ATOM     17  C   UNL     1      45.814 -32.400 -56.929  0.00  0.00    +0.022 C 
ATOM     18  H   UNL     1      44.513 -31.676 -55.552  0.00  0.00    +0.000 HD
ATOM     19  H   UNL     1      43.810 -32.273 -56.983  0.00  0.00    +0.000 HD
ENDROOT
BRANCH   1  21
ATOM     20  C   UNL     1      51.043 -31.205 -53.142  0.00  0.00    +0.079 C 
ATOM     21  O   UNL     1      49.649 -31.256 -52.876  0.00  0.00    -0.491 OA
ENDBRANCH   1  21
BRANCH  10  22
ATOM     22  O   UNL     1      48.584 -38.037 -54.061  0.00  0.00    -0.388 OA
ATOM     23  H   UNL     1      48.314 -38.662 -54.753  0.00  0.00    +0.000 HD
ENDBRANCH  10  22
TORSDOF 2
ENDMDL
MODEL 14
REMARK VINA RESULT:    -5.944      3.223      5.968
REMARK INTER + INTRA:          -6.564
REMARK INTER:                  -6.478
REMARK INTRA:                  -0.086
REMARK UNBOUND:                -0.099
REMARK  Name = cpd307.pdb
REMARK  3 active torsions:
REMARK  status: ('A' for Active; 'I' for Inactive)
REMARK    1  A    between atoms: C_1  and  O_2
REMARK    2  A    between atoms: O_2  and  C_3
REMARK    3  A    between atoms: C_12  and  O_13
REMARK                            x       y       z     vdW  Elec       q    Type
REMARK                         _______ _______ _______ _____ _____    ______ ____
ROOT
ATOM      1  C   UNL     1      34.247 -38.069 -26.255  0.00  0.00    +0.162 A 
ATOM      2  C   UNL     1      33.405 -36.964 -26.124  0.00  0.00    -0.016 A 
ATOM      3  C   UNL     1      33.343 -35.991 -27.137  0.00  0.00    -0.053 A 
ATOM      4  C   UNL     1      34.150 -36.079 -28.283  0.00  0.00    -0.026 A 
ATOM      5  C   UNL     1      35.062 -37.130 -28.353  0.00  0.00    +0.016 A 
ATOM      6  C   UNL     1      35.051 -38.129 -27.388  0.00  0.00    +0.167 A 
ATOM      7  O   UNL     1      35.825 -39.216 -27.706  0.00  0.00    -0.484 OA
ATOM      8  C   UNL     1      36.576 -38.824 -28.882  0.00  0.00    +0.116 C 
ATOM      9  C   UNL     1      38.042 -38.782 -28.432  0.00  0.00    +0.015 C 
ATOM     10  C   UNL     1      38.940 -38.095 -29.447  0.00  0.00    +0.077 C 
ATOM     11  C   UNL     1      38.404 -36.741 -29.763  0.00  0.00    -0.059 C 
ATOM     12  C   UNL     1      37.094 -36.453 -29.721  0.00  0.00    -0.071 C 
ATOM     13  C   UNL     1      36.003 -37.481 -29.463  0.00  0.00    +0.056 C 
ATOM     14  C   UNL     1      35.186 -37.742 -30.752  0.00  0.00    -0.024 C 
ATOM     15  C   UNL     1      34.541 -36.503 -31.402  0.00  0.00    -0.003 C 
ATOM     16  N   UNL     1      33.481 -35.842 -30.641  0.00  0.00    -0.312 N 
ATOM     17  C   UNL     1      33.942 -35.140 -29.441  0.00  0.00    +0.022 C 
ATOM     18  H   UNL     1      32.805 -36.549 -30.356  0.00  0.00    +0.000 HD
ATOM     19  H   UNL     1      33.083 -35.132 -31.257  0.00  0.00    +0.000 HD
ENDROOT
BRANCH   1  21
ATOM     20  C   UNL     1      33.142 -39.567 -24.777  0.00  0.00    +0.079 C 
ATOM     21  O   UNL     1      34.345 -39.111 -25.377  0.00  0.00    -0.491 OA
ENDBRANCH   1  21
BRANCH  10  22
ATOM     22  O   UNL     1      40.238 -37.921 -28.896  0.00  0.00    -0.388 OA
ATOM     23  H   UNL     1      40.880 -38.434 -29.412  0.00  0.00    +0.000 HD
ENDBRANCH  10  22
TORSDOF 2
ENDMDL
MODEL 15
REMARK VINA RESULT:    -5.931      3.337      5.407
REMARK INTER + INTRA:          -6.550
REMARK INTER:                  -6.456
REMARK INTRA:                  -0.094
REMARK UNBOUND:                -0.099
REMARK  Name = cpd307.pdb
REMARK  3 active torsions:
REMARK  status: ('A' for Active; 'I' for Inactive)
REMARK    1  A    between atoms: C_1  and  O_2
REMARK    2  A    between atoms: O_2  and  C_3
REMARK    3  A    between atoms: C_12  and  O_13
REMARK                            x       y       z     vdW  Elec       q    Type
REMARK                         _______ _______ _______ _____ _____    ______ ____
ROOT
ATOM      1  C   UNL     1      33.093 -32.580 -29.858  0.00  0.00    +0.162 A 
ATOM      2  C   UNL     1      34.177 -32.036 -30.547  0.00  0.00    -0.016 A 
ATOM      3  C   UNL     1      35.286 -32.835 -30.879  0.00  0.00    -0.053 A 
ATOM      4  C   UNL     1      35.353 -34.184 -30.495  0.00  0.00    -0.026 A 
ATOM      5  C   UNL     1      34.313 -34.688 -29.718  0.00  0.00    +0.016 A 
ATOM      6  C   UNL     1      33.187 -33.913 -29.472  0.00  0.00    +0.167 A 
ATOM      7  O   UNL     1      32.148 -34.609 -28.906  0.00  0.00    -0.484 OA
ATOM      8  C   UNL     1      32.695 -35.905 -28.557  0.00  0.00    +0.116 C 
ATOM      9  C   UNL     1      32.657 -35.962 -27.025  0.00  0.00    +0.015 C 
ATOM     10  C   UNL     1      33.471 -37.117 -26.468  0.00  0.00    +0.077 C 
ATOM     11  C   UNL     1      34.862 -37.058 -26.999  0.00  0.00    -0.059 C 
ATOM     12  C   UNL     1      35.156 -36.548 -28.205  0.00  0.00    -0.071 C 
ATOM     13  C   UNL     1      34.113 -36.082 -29.210  0.00  0.00    +0.056 C 
ATOM     14  C   UNL     1      34.048 -37.051 -30.416  0.00  0.00    -0.024 C 
ATOM     15  C   UNL     1      35.375 -37.284 -31.165  0.00  0.00    -0.003 C 
ATOM     16  N   UNL     1      35.933 -36.136 -31.879  0.00  0.00    -0.312 N 
ATOM     17  C   UNL     1      36.450 -35.075 -31.014  0.00  0.00    +0.022 C 
ATOM     18  H   UNL     1      35.199 -35.739 -32.466  0.00  0.00    +0.000 HD
ATOM     19  H   UNL     1      36.727 -36.487 -32.415  0.00  0.00    +0.000 HD
ENDROOT
BRANCH   1  21
ATOM     20  C   UNL     1      31.212 -31.337 -30.608  0.00  0.00    +0.079 C 
ATOM     21  O   UNL     1      31.936 -31.929 -29.540  0.00  0.00    -0.491 OA
ENDBRANCH   1  21
BRANCH  10  22
ATOM     22  O   UNL     1      33.550 -37.007 -25.053  0.00  0.00    -0.388 OA
ATOM     23  H   UNL     1      32.844 -37.537 -24.649  0.00  0.00    +0.000 HD
ENDBRANCH  10  22
TORSDOF 2
ENDMDL
MODEL 16
REMARK VINA RESULT:    -5.737      2.371      3.906
REMARK INTER + INTRA:          -6.339
REMARK INTER:                  -6.240
REMARK INTRA:                  -0.099
REMARK UNBOUND:                -0.099
REMARK  Name = cpd307.pdb
REMARK  3 active torsions:
REMARK  status: ('A' for Active; 'I' for Inactive)
REMARK    1  A    between atoms: C_1  and  O_2
REMARK    2  A    between atoms: O_2  and  C_3
REMARK    3  A    between atoms: C_12  and  O_13
REMARK                            x       y       z     vdW  Elec       q    Type
REMARK                         _______ _______ _______ _____ _____    ______ ____
ROOT
ATOM      1  C   UNL     1      35.096 -34.716 -30.572  0.00  0.00    +0.162 A 
ATOM      2  C   UNL     1      36.462 -34.920 -30.773  0.00  0.00    -0.016 A 
ATOM      3  C   UNL     1      37.134 -35.958 -30.103  0.00  0.00    -0.053 A 
ATOM      4  C   UNL     1      36.465 -36.788 -29.188  0.00  0.00    -0.026 A 
ATOM      5  C   UNL     1      35.128 -36.508 -28.918  0.00  0.00    +0.016 A 
ATOM      6  C   UNL     1      34.457 -35.536 -29.649  0.00  0.00    +0.167 A 
ATOM      7  O   UNL     1      33.099 -35.532 -29.450  0.00  0.00    -0.484 OA
ATOM      8  C   UNL     1      32.868 -36.436 -28.342  0.00  0.00    +0.116 C 
ATOM      9  C   UNL     1      32.341 -35.555 -27.202  0.00  0.00    +0.015 C 
ATOM     10  C   UNL     1      32.335 -36.278 -25.866  0.00  0.00    +0.077 C 
ATOM     11  C   UNL     1      33.691 -36.825 -25.580  0.00  0.00    -0.059 C 
ATOM     12  C   UNL     1      34.535 -37.211 -26.549  0.00  0.00    -0.071 C 
ATOM     13  C   UNL     1      34.177 -37.245 -28.027  0.00  0.00    +0.056 C 
ATOM     14  C   UNL     1      34.055 -38.707 -28.523  0.00  0.00    -0.024 C 
ATOM     15  C   UNL     1      35.293 -39.598 -28.302  0.00  0.00    -0.003 C 
ATOM     16  N   UNL     1      36.496 -39.247 -29.055  0.00  0.00    -0.312 N 
ATOM     17  C   UNL     1      37.144 -38.007 -28.622  0.00  0.00    +0.022 C 
ATOM     18  H   UNL     1      36.238 -39.145 -30.037  0.00  0.00    +0.000 HD
ATOM     19  H   UNL     1      37.168 -39.997 -28.893  0.00  0.00    +0.000 HD
ENDROOT
BRANCH   1  21
ATOM     20  C   UNL     1      34.441 -32.441 -30.787  0.00  0.00    +0.079 C 
ATOM     21  O   UNL     1      34.321 -33.791 -31.211  0.00  0.00    -0.491 OA
ENDBRANCH   1  21
BRANCH  10  22
ATOM     22  O   UNL     1      32.017 -35.361 -24.828  0.00  0.00    -0.388 OA
ATOM     23  H   UNL     1      32.814 -34.866 -24.579  0.00  0.00    +0.000 HD
ENDBRANCH  10  22
TORSDOF 2
ENDMDL
MODEL 17
REMARK VINA RESULT:    -5.486     14.557     17.179
REMARK INTER + INTRA:          -6.066
REMARK INTER:                  -5.979
REMARK INTRA:                  -0.086
REMARK UNBOUND:                -0.099
REMARK  Name = cpd307.pdb
REMARK  3 active torsions:
REMARK  status: ('A' for Active; 'I' for Inactive)
REMARK    1  A    between atoms: C_1  and  O_2
REMARK    2  A    between atoms: O_2  and  C_3
REMARK    3  A    between atoms: C_12  and  O_13
REMARK                            x       y       z     vdW  Elec       q    Type
REMARK                         _______ _______ _______ _____ _____    ______ ____
ROOT
ATOM      1  C   UNL     1      44.270 -19.749 -35.382  0.00  0.00    +0.162 A 
ATOM      2  C   UNL     1      44.661 -20.075 -36.682  0.00  0.00    -0.016 A 
ATOM      3  C   UNL     1      43.777 -20.747 -37.545  0.00  0.00    -0.053 A 
ATOM      4  C   UNL     1      42.499 -21.143 -37.116  0.00  0.00    -0.026 A 
ATOM      5  C   UNL     1      42.160 -20.904 -35.787  0.00  0.00    +0.016 A 
ATOM      6  C   UNL     1      43.008 -20.165 -34.972  0.00  0.00    +0.167 A 
ATOM      7  O   UNL     1      42.448 -19.802 -33.773  0.00  0.00    -0.484 OA
ATOM      8  C   UNL     1      41.198 -20.532 -33.694  0.00  0.00    +0.116 C 
ATOM      9  C   UNL     1      41.373 -21.511 -32.526  0.00  0.00    +0.015 C 
ATOM     10  C   UNL     1      40.284 -22.569 -32.489  0.00  0.00    +0.077 C 
ATOM     11  C   UNL     1      40.207 -23.263 -33.805  0.00  0.00    -0.059 C 
ATOM     12  C   UNL     1      40.517 -22.658 -34.962  0.00  0.00    -0.071 C 
ATOM     13  C   UNL     1      40.868 -21.183 -35.085  0.00  0.00    +0.056 C 
ATOM     14  C   UNL     1      39.732 -20.411 -35.799  0.00  0.00    -0.024 C 
ATOM     15  C   UNL     1      39.336 -20.934 -37.194  0.00  0.00    -0.003 C 
ATOM     16  N   UNL     1      40.339 -20.806 -38.250  0.00  0.00    -0.312 N 
ATOM     17  C   UNL     1      41.497 -21.689 -38.098  0.00  0.00    +0.022 C 
ATOM     18  H   UNL     1      40.673 -19.843 -38.257  0.00  0.00    +0.000 HD
ATOM     19  H   UNL     1      39.880 -21.077 -39.120  0.00  0.00    +0.000 HD
ENDROOT
BRANCH   1  21
ATOM     20  C   UNL     1      45.746 -17.932 -34.968  0.00  0.00    +0.079 C 
ATOM     21  O   UNL     1      45.008 -19.042 -34.477  0.00  0.00    -0.491 OA
ENDBRANCH   1  21
BRANCH  10  22
ATOM     22  O   UNL     1      40.602 -23.547 -31.508  0.00  0.00    -0.388 OA
ATOM     23  H   UNL     1      41.313 -23.214 -30.938  0.00  0.00    +0.000 HD
ENDBRANCH  10  22
TORSDOF 2
ENDMDL
MODEL 18
REMARK VINA RESULT:    -5.409     20.591     21.919
REMARK INTER + INTRA:          -5.982
REMARK INTER:                  -5.885
REMARK INTRA:                  -0.097
REMARK UNBOUND:                -0.099
REMARK  Name = cpd307.pdb
REMARK  3 active torsions:
REMARK  status: ('A' for Active; 'I' for Inactive)
REMARK    1  A    between atoms: C_1  and  O_2
REMARK    2  A    between atoms: O_2  and  C_3
REMARK    3  A    between atoms: C_12  and  O_13
REMARK                            x       y       z     vdW  Elec       q    Type
REMARK                         _______ _______ _______ _____ _____    ______ ____
ROOT
ATOM      1  C   UNL     1      45.716 -21.080 -40.903  0.00  0.00    +0.162 A 
ATOM      2  C   UNL     1      44.768 -20.628 -41.822  0.00  0.00    -0.016 A 
ATOM      3  C   UNL     1      44.324 -19.294 -41.791  0.00  0.00    -0.053 A 
ATOM      4  C   UNL     1      44.787 -18.394 -40.817  0.00  0.00    -0.026 A 
ATOM      5  C   UNL     1      45.652 -18.885 -39.842  0.00  0.00    +0.016 A 
ATOM      6  C   UNL     1      46.148 -20.179 -39.936  0.00  0.00    +0.167 A 
ATOM      7  O   UNL     1      47.167 -20.448 -39.057  0.00  0.00    -0.484 OA
ATOM      8  C   UNL     1      47.217 -19.307 -38.163  0.00  0.00    +0.116 C 
ATOM      9  C   UNL     1      46.813 -19.852 -36.787  0.00  0.00    +0.015 C 
ATOM     10  C   UNL     1      46.512 -18.746 -35.791  0.00  0.00    +0.077 C 
ATOM     11  C   UNL     1      45.491 -17.820 -36.357  0.00  0.00    -0.059 C 
ATOM     12  C   UNL     1      45.372 -17.590 -37.673  0.00  0.00    -0.071 C 
ATOM     13  C   UNL     1      46.320 -18.146 -38.724  0.00  0.00    +0.056 C 
ATOM     14  C   UNL     1      47.193 -17.015 -39.322  0.00  0.00    -0.024 C 
ATOM     15  C   UNL     1      46.428 -15.827 -39.937  0.00  0.00    -0.003 C 
ATOM     16  N   UNL     1      45.642 -16.107 -41.137  0.00  0.00    -0.312 N 
ATOM     17  C   UNL     1      44.452 -16.929 -40.907  0.00  0.00    +0.022 C 
ATOM     18  H   UNL     1      46.240 -16.594 -41.804  0.00  0.00    +0.000 HD
ATOM     19  H   UNL     1      45.309 -15.206 -41.482  0.00  0.00    +0.000 HD
ENDROOT
BRANCH   1  21
ATOM     20  C   UNL     1      47.151 -22.668 -41.936  0.00  0.00    +0.079 C 
ATOM     21  O   UNL     1      46.274 -22.326 -40.873  0.00  0.00    -0.491 OA
ENDBRANCH   1  21
BRANCH  10  22
ATOM     22  O   UNL     1      45.969 -19.306 -34.604  0.00  0.00    -0.388 OA
ATOM     23  H   UNL     1      45.183 -18.803 -34.339  0.00  0.00    +0.000 HD
ENDBRANCH  10  22
TORSDOF 2
ENDMDL
MODEL 19
REMARK VINA RESULT:    -5.408     15.070     16.952
REMARK INTER + INTRA:          -5.981
REMARK INTER:                  -5.898
REMARK INTRA:                  -0.083
REMARK UNBOUND:                -0.099
REMARK  Name = cpd307.pdb
REMARK  3 active torsions:
REMARK  status: ('A' for Active; 'I' for Inactive)
REMARK    1  A    between atoms: C_1  and  O_2
REMARK    2  A    between atoms: O_2  and  C_3
REMARK    3  A    between atoms: C_12  and  O_13
REMARK                            x       y       z     vdW  Elec       q    Type
REMARK                         _______ _______ _______ _____ _____    ______ ____
ROOT
ATOM      1  C   UNL     1      41.141 -21.707 -37.279  0.00  0.00    +0.162 A 
ATOM      2  C   UNL     1      41.761 -20.598 -37.854  0.00  0.00    -0.016 A 
ATOM      3  C   UNL     1      42.009 -19.443 -37.090  0.00  0.00    -0.053 A 
ATOM      4  C   UNL     1      41.605 -19.358 -35.747  0.00  0.00    -0.026 A 
ATOM      5  C   UNL     1      40.894 -20.431 -35.216  0.00  0.00    +0.016 A 
ATOM      6  C   UNL     1      40.733 -21.596 -35.955  0.00  0.00    +0.167 A 
ATOM      7  O   UNL     1      40.231 -22.647 -35.229  0.00  0.00    -0.484 OA
ATOM      8  C   UNL     1      39.831 -22.082 -33.956  0.00  0.00    +0.116 C 
ATOM      9  C   UNL     1      38.304 -22.222 -33.912  0.00  0.00    +0.015 C 
ATOM     10  C   UNL     1      37.680 -21.409 -32.791  0.00  0.00    +0.077 C 
ATOM     11  C   UNL     1      38.117 -19.988 -32.892  0.00  0.00    -0.059 C 
ATOM     12  C   UNL     1      39.307 -19.631 -33.400  0.00  0.00    -0.071 C 
ATOM     13  C   UNL     1      40.384 -20.618 -33.820  0.00  0.00    +0.056 C 
ATOM     14  C   UNL     1      41.581 -20.569 -32.839  0.00  0.00    -0.024 C 
ATOM     15  C   UNL     1      42.236 -19.188 -32.644  0.00  0.00    -0.003 C 
ATOM     16  N   UNL     1      42.925 -18.622 -33.803  0.00  0.00    -0.312 N 
ATOM     17  C   UNL     1      42.039 -18.199 -34.890  0.00  0.00    +0.022 C 
ATOM     18  H   UNL     1      43.564 -19.327 -34.169  0.00  0.00    +0.000 HD
ATOM     19  H   UNL     1      43.402 -17.782 -33.474  0.00  0.00    +0.000 HD
ENDROOT
BRANCH   1  21
ATOM     20  C   UNL     1      40.618 -22.873 -39.284  0.00  0.00    +0.079 C 
ATOM     21  O   UNL     1      40.908 -22.905 -37.894  0.00  0.00    -0.491 OA
ENDBRANCH   1  21
BRANCH  10  22
ATOM     22  O   UNL     1      36.265 -21.430 -32.916  0.00  0.00    -0.388 OA
ATOM     23  H   UNL     1      35.891 -22.038 -32.258  0.00  0.00    +0.000 HD
ENDBRANCH  10  22
TORSDOF 2
ENDMDL
MODEL 20
REMARK VINA RESULT:    -5.286     19.472     22.125
REMARK INTER + INTRA:          -5.848
REMARK INTER:                  -5.751
REMARK INTRA:                  -0.097
REMARK UNBOUND:                -0.099
REMARK  Name = cpd307.pdb
REMARK  3 active torsions:
REMARK  status: ('A' for Active; 'I' for Inactive)
REMARK    1  A    between atoms: C_1  and  O_2
REMARK    2  A    between atoms: O_2  and  C_3
REMARK    3  A    between atoms: C_12  and  O_13
REMARK                            x       y       z     vdW  Elec       q    Type
REMARK                         _______ _______ _______ _____ _____    ______ ____
ROOT
ATOM      1  C   UNL     1      46.118 -16.512 -40.739  0.00  0.00    +0.162 A 
ATOM      2  C   UNL     1      44.889 -15.851 -40.717  0.00  0.00    -0.016 A 
ATOM      3  C   UNL     1      43.710 -16.547 -40.395  0.00  0.00    -0.053 A 
ATOM      4  C   UNL     1      43.728 -17.926 -40.127  0.00  0.00    -0.026 A 
ATOM      5  C   UNL     1      44.943 -18.594 -40.254  0.00  0.00    +0.016 A 
ATOM      6  C   UNL     1      46.111 -17.879 -40.488  0.00  0.00    +0.167 A 
ATOM      7  O   UNL     1      47.254 -18.626 -40.350  0.00  0.00    -0.484 OA
ATOM      8  C   UNL     1      46.806 -19.998 -40.215  0.00  0.00    +0.116 C 
ATOM      9  C   UNL     1      47.316 -20.717 -41.471  0.00  0.00    +0.015 C 
ATOM     10  C   UNL     1      46.683 -22.085 -41.653  0.00  0.00    +0.077 C 
ATOM     11  C   UNL     1      45.198 -21.962 -41.633  0.00  0.00    -0.059 C 
ATOM     12  C   UNL     1      44.559 -21.013 -40.931  0.00  0.00    -0.071 C 
ATOM     13  C   UNL     1      45.251 -20.036 -39.994  0.00  0.00    +0.056 C 
ATOM     14  C   UNL     1      44.913 -20.362 -38.519  0.00  0.00    -0.024 C 
ATOM     15  C   UNL     1      43.413 -20.396 -38.164  0.00  0.00    -0.003 C 
ATOM     16  N   UNL     1      42.694 -19.126 -38.242  0.00  0.00    -0.312 N 
ATOM     17  C   UNL     1      42.499 -18.620 -39.602  0.00  0.00    +0.022 C 
ATOM     18  H   UNL     1      43.220 -18.429 -37.716  0.00  0.00    +0.000 HD
ATOM     19  H   UNL     1      41.763 -19.297 -37.860  0.00  0.00    +0.000 HD
ENDROOT
BRANCH   1  21
ATOM     20  C   UNL     1      47.817 -15.030 -39.988  0.00  0.00    +0.079 C 
ATOM     21  O   UNL     1      47.334 -15.936 -40.969  0.00  0.00    -0.491 OA
ENDBRANCH   1  21
BRANCH  10  22
ATOM     22  O   UNL     1      47.050 -22.617 -42.918  0.00  0.00    -0.388 OA
ATOM     23  H   UNL     1      47.464 -21.921 -43.454  0.00  0.00    +0.000 HD
ENDBRANCH  10  22
TORSDOF 2
ENDMDL
