REMARK  Name = cpd307.pdb
REMARK  3 active torsions:
REMARK  status: ('A' for Active; 'I' for Inactive)
REMARK    1  A    between atoms: C_1  and  O_2
REMARK    2  A    between atoms: O_2  and  C_3
REMARK    3  A    between atoms: C_12  and  O_13
REMARK                            x       y       z     vdW  Elec       q    Type
REMARK                         _______ _______ _______ _____ _____    ______ ____
ROOT
ATOM      1  C   UNL     1      -0.667   3.415   0.062  0.00  0.00    +0.162 A 
ATOM      2  C   UNL     1      -1.693   2.681  -0.534  0.00  0.00    -0.016 A 
ATOM      3  C   UNL     1      -1.511   1.321  -0.843  0.00  0.00    -0.053 A 
ATOM      4  C   UNL     1      -0.287   0.676  -0.600  0.00  0.00    -0.026 A 
ATOM      5  C   UNL     1       0.762   1.445  -0.102  0.00  0.00    +0.016 A 
ATOM      6  C   UNL     1       0.542   2.763   0.278  0.00  0.00    +0.167 A 
ATOM      7  O   UNL     1       1.587   3.322   0.970  0.00  0.00    -0.484 OA
ATOM      8  C   UNL     1       2.674   2.369   0.865  0.00  0.00    +0.116 C 
ATOM      9  C   UNL     1       3.753   3.074   0.033  0.00  0.00    +0.015 C 
ATOM     10  C   UNL     1       4.836   2.120  -0.439  0.00  0.00    +0.077 C 
ATOM     11  C   UNL     1       4.220   0.973  -1.164  0.00  0.00    -0.059 C 
ATOM     12  C   UNL     1       2.994   0.509  -0.876  0.00  0.00    -0.071 C 
ATOM     13  C   UNL     1       2.143   1.011   0.280  0.00  0.00    +0.056 C 
ATOM     14  C   UNL     1       2.042  -0.065   1.389  0.00  0.00    -0.024 C 
ATOM     15  C   UNL     1       1.500  -1.438   0.947  0.00  0.00    -0.003 C 
ATOM     16  N   UNL     1       0.103  -1.483   0.518  0.00  0.00    -0.312 N 
ATOM     17  C   UNL     1      -0.163  -0.816  -0.758  0.00  0.00    +0.022 C 
ATOM     18  H   UNL     1      -0.465  -1.034   1.236  0.00  0.00    +0.000 HD
ATOM     19  H   UNL     1      -0.127  -2.468   0.384  0.00  0.00    +0.000 HD
ENDROOT
BRANCH   1  21
ATOM     20  C   UNL     1      -1.964   5.400   0.225  0.00  0.00    +0.079 C 
ATOM     21  O   UNL     1      -0.744   4.716   0.470  0.00  0.00    -0.491 OA
ENDBRANCH   1  21
BRANCH  10  22
ATOM     22  O   UNL     1       5.697   2.788  -1.351  0.00  0.00    -0.388 OA
ATOM     23  H   UNL     1       5.184   3.091  -2.117  0.00  0.00    +0.000 HD
ENDBRANCH  10  22
TORSDOF 2
