REMARK  Name = cpd276.pdb
REMARK  12 active torsions:
REMARK  status: ('A' for Active; 'I' for Inactive)
REMARK    1  A    between atoms: C_2  and  C_3
REMARK    2  A    between atoms: C_2  and  C_4
REMARK    3  A    between atoms: C_7  and  C_8
REMARK    4  A    between atoms: C_14  and  C_15
REMARK    5  A    between atoms: C_18  and  O_19
REMARK    6  A    between atoms: O_19  and  S_20
REMARK    7  A    between atoms: C_24  and  C_25
REMARK    8  A    between atoms: C_24  and  C_26
REMARK    9  A    between atoms: C_30  and  C_31
REMARK   10  A    between atoms: C_32  and  C_33
REMARK   11  A    between atoms: C_35  and  O_36
REMARK   12  A    between atoms: O_36  and  S_37
REMARK                            x       y       z     vdW  Elec       q    Type
REMARK                         _______ _______ _______ _____ _____    ______ ____
ROOT
ATOM      1  C   UNL     1      -1.683   5.079   0.707  0.00  0.00    -0.017 C 
ATOM      2  C   UNL     1      -0.198   5.520   0.774  0.00  0.00    -0.046 C 
ATOM      3  C   UNL     1       0.635   4.346   0.227  0.00  0.00    -0.044 C 
ATOM      4  C   UNL     1      -0.280   3.108   0.364  0.00  0.00    +0.000 C 
ATOM      5  C   UNL     1      -0.232   2.665   1.850  0.00  0.00    -0.057 C 
ATOM      6  C   UNL     1      -1.624   3.754  -0.075  0.00  0.00    -0.023 C 
ATOM      7  C   UNL     1      -2.734   2.708   0.055  0.00  0.00    -0.031 C 
ATOM      8  C   UNL     1      -4.168   3.194   0.254  0.00  0.00    -0.049 C 
ATOM      9  C   UNL     1      -5.102   2.008   0.559  0.00  0.00    -0.049 C 
ATOM     10  C   UNL     1      -5.001   0.850  -0.461  0.00  0.00    -0.029 C 
ATOM     11  C   UNL     1      -6.082  -0.336  -0.293  0.00  0.00    -0.025 C 
ATOM     12  C   UNL     1      -7.112  -0.108  -1.434  0.00  0.00    -0.059 C 
ATOM     13  C   UNL     1      -6.838  -0.266   1.058  0.00  0.00    -0.045 C 
ATOM     14  C   UNL     1      -7.811  -1.426   1.294  0.00  0.00    -0.023 C 
ATOM     15  C   UNL     1      -7.129  -2.797   1.217  0.00  0.00    +0.095 C 
ATOM     16  C   UNL     1      -6.317  -3.014  -0.109  0.00  0.00    -0.003 C 
ATOM     17  C   UNL     1      -7.246  -3.400  -1.277  0.00  0.00    -0.057 C 
ATOM     18  C   UNL     1      -5.396  -4.254   0.109  0.00  0.00    -0.057 C 
ATOM     19  C   UNL     1      -5.408  -1.748  -0.379  0.00  0.00    -0.028 C 
ATOM     20  C   UNL     1      -4.474  -1.876  -1.599  0.00  0.00    -0.049 C 
ATOM     21  C   UNL     1      -3.612  -0.638  -1.896  0.00  0.00    -0.047 C 
ATOM     22  C   UNL     1      -3.512   0.393  -0.735  0.00  0.00    -0.023 C 
ATOM     23  C   UNL     1      -2.867  -0.291   0.511  0.00  0.00    -0.059 C 
ATOM     24  C   UNL     1      -2.618   1.685  -1.127  0.00  0.00    -0.021 C 
ATOM     25  C   UNL     1      -3.129   2.330  -2.463  0.00  0.00    -0.059 C 
ATOM     26  C   UNL     1      -1.115   1.307  -1.424  0.00  0.00    -0.018 C 
ATOM     27  C   UNL     1       0.093   1.938  -0.603  0.00  0.00    +0.096 C 
ENDROOT
BRANCH   1  29
ATOM     28  C   UNL     1      -3.436   6.840   0.926  0.00  0.00    -0.099 C 
ATOM     29  C   UNL     1      -2.588   6.161   0.135  0.00  0.00    -0.076 C 
ATOM     30  C   UNL     1      -2.510   6.464  -1.337  0.00  0.00    -0.044 C 
ENDBRANCH   1  29
BRANCH  15  31
ATOM     31  O   UNL     1      -7.923  -3.949   1.487  0.00  0.00    -0.210 OA
BRANCH  31  32
ATOM     32  S   UNL     1      -9.540  -3.953   1.652  0.00  0.00    +0.239 S 
ATOM     33  O   UNL     1      -9.784  -3.154   2.849  0.00  0.00    -0.116 OA
ATOM     34  O   UNL     1      -9.854  -5.371   1.811  0.00  0.00    -0.116 OA
ATOM     35  O   UNL     1     -10.043  -3.371   0.411  0.00  0.00    -0.022 OA
ENDBRANCH  31  32
ENDBRANCH  15  31
BRANCH  27  36
ATOM     36  O   UNL     1       0.954   0.954   0.000  0.00  0.00    -0.210 OA
BRANCH  36  37
ATOM     37  S   UNL     1       0.954   0.000   0.000  0.00  0.00    +0.239 S 
ATOM     38  O   UNL     1       1.955   0.146  -1.092  0.00  0.00    -0.116 OA
ATOM     39  O   UNL     1       0.954  -0.954   0.000  0.00  0.00    -0.116 OA
ATOM     40  O   UNL     1       1.408   0.152   1.404  0.00  0.00    -0.022 OA
ENDBRANCH  36  37
ENDBRANCH  27  36
TORSDOF 5
