@<TRIPOS>MOLECULE
*****
 40 44 0 0 0
SMALL
GASTEIGER

@<TRIPOS>ATOM
      1 C          -0.9498    5.5229    0.0000 C.2     1  UNL1       -0.0091
      2 C          -1.3827    4.6733    0.0000 C.2     1  UNL1       -0.0442
      3 C          -2.3349    4.6234    0.0000 C.3     1  UNL1        0.0263
      4 C          -0.8633    3.8736    0.0000 C.3     1  UNL1        0.0184
      5 C           0.0694    3.6754    0.0000 C.3     1  UNL1        0.0041
      6 C           0.3645    2.7691    0.0000 C.3     1  UNL1        0.0027
      7 C          -0.2740    2.0600    0.0000 C.3     1  UNL1        0.0276
      8 C           0.6853    1.8561    0.0000 C.3     1  UNL1        0.0025
      9 C          -1.2067    2.2582    0.0000 C.3     1  UNL1        0.0061
     10 C          -1.8451    1.5491    0.0000 C.3     1  UNL1        0.0005
     11 C          -2.7784    1.7475    0.0000 C.3     1  UNL1        0.0000
     12 C          -3.4168    1.0384    0.0000 C.3     1  UNL1        0.0000
     13 C          -3.1220    0.1310    0.0000 C.3     1  UNL1        0.0000
     14 C          -3.7603   -0.5775    0.0000 C.3     1  UNL1        0.0002
     15 C          -4.0636    0.3551    0.0000 C.3     1  UNL1        0.0000
     16 C          -4.6932   -0.3795    0.0000 C.3     1  UNL1        0.0026
     17 C          -5.3311   -1.0884    0.0000 C.3     1  UNL1        0.0320
     18 C          -5.0361   -1.9953    0.0000 C.3     1  UNL1        0.1431
     19 O          -5.6975   -2.7303    0.0000 O.3     1  UNL1       -0.2438
     20 S          -6.6648   -2.5250    0.0000 S.3     1  UNL1       -0.0002
     21 O          -6.4595   -1.5578    0.0000 O.2     1  UNL1       -0.3452
     22 O          -7.6320   -2.3197    0.0000 O.2     1  UNL1       -0.3452
     23 O          -6.8701   -3.4922    0.0000 O.co2   1  UNL1       -0.2682
     24 C          -4.1033   -2.1933    0.0000 C.3     1  UNL1        0.0273
     25 C          -4.3086   -3.1605    0.0000 C.3     1  UNL1        0.0025
     26 C          -3.3683   -2.8547    0.0000 C.3     1  UNL1        0.0025
     27 C          -3.4654   -1.4844    0.0000 C.3     1  UNL1        0.0023
     28 C          -2.5321   -1.6828    0.0000 C.3     1  UNL1        0.0001
     29 C          -1.8938   -0.9743    0.0000 C.3     1  UNL1        0.0000
     30 C          -2.1887   -0.0674    0.0000 C.3     1  UNL1        0.0001
     31 C          -0.2701   -0.4752    0.0000 C.3     1  UNL1        0.0000
     32 C          -1.5503    0.6417    0.0000 C.3     1  UNL1        0.0024
     33 C          -1.2472   -0.2910    0.0000 C.3     1  UNL1        0.0001
     34 C          -0.6176    0.4434    0.0000 C.3     1  UNL1        0.0320
     35 C           0.0209    1.1525    0.0000 C.3     1  UNL1        0.1431
     36 O           0.9541    0.9541    0.0000 O.3     1  UNL1       -0.2438
     37 S           0.9541   -0.0000    0.0000 S.3     1  UNL1       -0.0002
     38 O           1.9083   -0.0000    0.0000 O.2     1  UNL1       -0.3452
     39 O           0.9541   -0.9541    0.0000 O.2     1  UNL1       -0.3452
     40 O           0.0000    0.0000    0.0000 O.co2   1  UNL1       -0.2682
@<TRIPOS>UNITY_ATOM_ATTR
23 1
charge -1
40 1
charge -1
@<TRIPOS>BOND
     1     1     2    2
     2     2     3    1
     3     2     4    1
     4     4     5    1
     5     5     6    1
     6     6     7    1
     7     7     8    1
     8     7     9    1
     9     4     9    1
    10     9    10    1
    11    10    11    1
    12    11    12    1
    13    12    13    1
    14    13    14    1
    15    14    15    1
    16    14    16    1
    17    16    17    1
    18    17    18    1
    19    18    19    1
    20    19    20    1
    21    20    21    2
    22    20    22    2
    23    20    23    1
    24    18    24    1
    25    24    25    1
    26    24    26    1
    27    24    27    1
    28    14    27    1
    29    27    28    1
    30    28    29    1
    31    29    30    1
    32    13    30    1
    33    30    31    1
    34    30    32    1
    35    10    32    1
    36    32    33    1
    37    32    34    1
    38    34    35    1
    39     7    35    1
    40    35    36    1
    41    36    37    1
    42    37    38    2
    43    37    39    2
    44    37    40    1
