MODEL 1
REMARK VINA RESULT:   -10.750      0.000      0.000
REMARK INTER + INTRA:         -15.113
REMARK INTER:                 -14.521
REMARK INTRA:                  -0.592
REMARK UNBOUND:                -0.592
REMARK  Name = cpd329.pdb
REMARK  7 active torsions:
REMARK  status: ('A' for Active; 'I' for Inactive)
REMARK    1  A    between atoms: C_1  and  O_2
REMARK    2  A    between atoms: O_2  and  C_3
REMARK    3  A    between atoms: C_9  and  C_10
REMARK    4  A    between atoms: C_10  and  C_12
REMARK    5  A    between atoms: C_13  and  C_14
REMARK    6  A    between atoms: N_18  and  C_19
REMARK    7  A    between atoms: C_19  and  C_20
REMARK                            x       y       z     vdW  Elec       q    Type
REMARK                         _______ _______ _______ _____ _____    ______ ____
ROOT
ATOM      1  C   UNL A   1      44.748 -39.695 -29.274  0.00  0.00    -0.011 C 
ATOM      2  C   UNL A   1      43.623 -39.989 -29.944  0.00  0.00    -0.049 C 
ENDROOT
BRANCH   2   3
ATOM      3  C   UNL A   1      42.498 -39.055 -30.099  0.00  0.00    -0.009 A 
ATOM      4  C   UNL A   1      42.435 -38.249 -31.234  0.00  0.00    -0.052 A 
ATOM      5  C   UNL A   1      41.400 -37.329 -31.376  0.00  0.00    -0.045 A 
ATOM      6  C   UNL A   1      40.446 -37.214 -30.373  0.00  0.00    +0.005 A 
ATOM      7  N   UNL A   1      40.521 -37.983 -29.263  0.00  0.00    -0.348 N 
ATOM      8  C   UNL A   1      41.521 -38.887 -29.112  0.00  0.00    +0.012 A 
BRANCH   7   9
ATOM      9  C   UNL A   1      39.495 -37.845 -28.197  0.00  0.00    +0.048 C 
BRANCH   9  10
ATOM     10  C   UNL A   1      38.107 -38.029 -28.752  0.00  0.00    -0.028 A 
ATOM     11  C   UNL A   1      37.355 -36.916 -29.161  0.00  0.00    -0.057 A 
ATOM     12  C   UNL A   1      36.075 -37.084 -29.688  0.00  0.00    -0.061 A 
ATOM     13  C   UNL A   1      35.530 -38.360 -29.811  0.00  0.00    -0.062 A 
ATOM     14  C   UNL A   1      36.263 -39.471 -29.401  0.00  0.00    -0.061 A 
ATOM     15  C   UNL A   1      37.544 -39.310 -28.872  0.00  0.00    -0.057 A 
ENDBRANCH   9  10
ENDBRANCH   7   9
ENDBRANCH   2   3
BRANCH   1  16
ATOM     16  C   UNL A   1      45.942 -40.592 -29.191  0.00  0.00    +0.221 C 
ATOM     17  O   UNL A   1      45.705 -41.753 -28.851  0.00  0.00    -0.284 OA
BRANCH  16  24
ATOM     18  C   UNL A   1      50.092 -38.238 -28.378  0.00  0.00    +0.163 A 
ATOM     19  C   UNL A   1      51.273 -37.994 -29.093  0.00  0.00    -0.016 A 
ATOM     20  C   UNL A   1      51.461 -38.489 -30.390  0.00  0.00    -0.058 A 
ATOM     21  C   UNL A   1      50.471 -39.246 -31.029  0.00  0.00    -0.051 A 
ATOM     22  C   UNL A   1      49.274 -39.500 -30.338  0.00  0.00    +0.025 A 
ATOM     23  C   UNL A   1      48.072 -40.200 -30.626  0.00  0.00    -0.005 A 
ATOM     24  C   UNL A   1      47.260 -40.089 -29.510  0.00  0.00    +0.176 A 
ATOM     25  O   UNL A   1      47.911 -39.364 -28.551  0.00  0.00    -0.448 OA
ATOM     26  C   UNL A   1      49.127 -38.998 -29.052  0.00  0.00    +0.177 A 
BRANCH  18  28
ATOM     27  C   UNL A   1      50.356 -38.541 -26.037  0.00  0.00    +0.079 C 
ATOM     28  O   UNL A   1      49.808 -37.799 -27.117  0.00  0.00    -0.491 OA
ENDBRANCH  18  28
ENDBRANCH  16  24
ENDBRANCH   1  16
TORSDOF 6
ENDMDL
MODEL 2
REMARK VINA RESULT:    -7.695     18.385     21.599
REMARK INTER + INTRA:         -10.987
REMARK INTER:                 -10.601
REMARK INTRA:                  -0.385
REMARK UNBOUND:                -0.592
REMARK  Name = cpd329.pdb
REMARK  7 active torsions:
REMARK  status: ('A' for Active; 'I' for Inactive)
REMARK    1  A    between atoms: C_1  and  O_2
REMARK    2  A    between atoms: O_2  and  C_3
REMARK    3  A    between atoms: C_9  and  C_10
REMARK    4  A    between atoms: C_10  and  C_12
REMARK    5  A    between atoms: C_13  and  C_14
REMARK    6  A    between atoms: N_18  and  C_19
REMARK    7  A    between atoms: C_19  and  C_20
REMARK                            x       y       z     vdW  Elec       q    Type
REMARK                         _______ _______ _______ _____ _____    ______ ____
ROOT
ATOM      1  C   UNL A   1      41.924 -21.432 -38.167  0.00  0.00    -0.011 C 
ATOM      2  C   UNL A   1      42.082 -20.511 -39.131  0.00  0.00    -0.049 C 
ENDROOT
BRANCH   2   3
ATOM      3  C   UNL A   1      43.354 -19.826 -39.402  0.00  0.00    -0.009 A 
ATOM      4  C   UNL A   1      43.334 -18.497 -39.822  0.00  0.00    -0.052 A 
ATOM      5  C   UNL A   1      44.527 -17.846 -40.123  0.00  0.00    -0.045 A 
ATOM      6  C   UNL A   1      45.727 -18.536 -40.016  0.00  0.00    +0.005 A 
ATOM      7  N   UNL A   1      45.742 -19.831 -39.628  0.00  0.00    -0.348 N 
ATOM      8  C   UNL A   1      44.589 -20.478 -39.326  0.00  0.00    +0.012 A 
BRANCH   7   9
ATOM      9  C   UNL A   1      47.035 -20.557 -39.522  0.00  0.00    +0.048 C 
BRANCH   9  10
ATOM     10  C   UNL A   1      47.154 -21.612 -40.591  0.00  0.00    -0.028 A 
ATOM     11  C   UNL A   1      48.274 -22.458 -40.628  0.00  0.00    -0.057 A 
ATOM     12  C   UNL A   1      48.381 -23.445 -41.608  0.00  0.00    -0.061 A 
ATOM     13  C   UNL A   1      47.376 -23.596 -42.561  0.00  0.00    -0.062 A 
ATOM     14  C   UNL A   1      46.266 -22.757 -42.540  0.00  0.00    -0.061 A 
ATOM     15  C   UNL A   1      46.153 -21.767 -41.563  0.00  0.00    -0.057 A 
ENDBRANCH   9  10
ENDBRANCH   7   9
ENDBRANCH   2   3
BRANCH   1  16
ATOM     16  C   UNL A   1      40.668 -22.213 -37.941  0.00  0.00    +0.221 C 
ATOM     17  O   UNL A   1      40.489 -23.156 -38.713  0.00  0.00    -0.284 OA
BRANCH  16  24
ATOM     18  C   UNL A   1      38.157 -22.890 -33.858  0.00  0.00    +0.163 A 
ATOM     19  C   UNL A   1      37.289 -22.125 -33.066  0.00  0.00    -0.016 A 
ATOM     20  C   UNL A   1      36.960 -20.805 -33.403  0.00  0.00    -0.058 A 
ATOM     21  C   UNL A   1      37.482 -20.197 -34.551  0.00  0.00    -0.051 A 
ATOM     22  C   UNL A   1      38.350 -20.943 -35.366  0.00  0.00    +0.025 A 
ATOM     23  C   UNL A   1      39.065 -20.697 -36.570  0.00  0.00    -0.005 A 
ATOM     24  C   UNL A   1      39.765 -21.853 -36.870  0.00  0.00    +0.176 A 
ATOM     25  O   UNL A   1      39.520 -22.789 -35.904  0.00  0.00    -0.448 OA
ATOM     26  C   UNL A   1      38.658 -22.246 -34.997  0.00  0.00    +0.177 A 
BRANCH  18  28
ATOM     27  C   UNL A   1      37.599 -25.198 -33.946  0.00  0.00    +0.079 C 
ATOM     28  O   UNL A   1      38.537 -24.180 -33.624  0.00  0.00    -0.491 OA
ENDBRANCH  18  28
ENDBRANCH  16  24
ENDBRANCH   1  16
TORSDOF 6
ENDMDL
MODEL 3
REMARK VINA RESULT:    -7.679      7.549     13.205
REMARK INTER + INTRA:         -10.965
REMARK INTER:                 -10.169
REMARK INTRA:                  -0.797
REMARK UNBOUND:                -0.592
REMARK  Name = cpd329.pdb
REMARK  7 active torsions:
REMARK  status: ('A' for Active; 'I' for Inactive)
REMARK    1  A    between atoms: C_1  and  O_2
REMARK    2  A    between atoms: O_2  and  C_3
REMARK    3  A    between atoms: C_9  and  C_10
REMARK    4  A    between atoms: C_10  and  C_12
REMARK    5  A    between atoms: C_13  and  C_14
REMARK    6  A    between atoms: N_18  and  C_19
REMARK    7  A    between atoms: C_19  and  C_20
REMARK                            x       y       z     vdW  Elec       q    Type
REMARK                         _______ _______ _______ _____ _____    ______ ____
ROOT
ATOM      1  C   UNL A   1      35.103 -41.297 -32.601  0.00  0.00    -0.011 C 
ATOM      2  C   UNL A   1      34.839 -40.328 -31.710  0.00  0.00    -0.049 C 
ENDROOT
BRANCH   2   3
ATOM      3  C   UNL A   1      35.802 -39.867 -30.699  0.00  0.00    -0.009 A 
ATOM      4  C   UNL A   1      36.161 -40.726 -29.661  0.00  0.00    -0.052 A 
ATOM      5  C   UNL A   1      37.038 -40.291 -28.672  0.00  0.00    -0.045 A 
ATOM      6  C   UNL A   1      37.537 -38.996 -28.723  0.00  0.00    +0.005 A 
ATOM      7  N   UNL A   1      37.172 -38.159 -29.719  0.00  0.00    -0.348 N 
ATOM      8  C   UNL A   1      36.321 -38.568 -30.693  0.00  0.00    +0.012 A 
BRANCH   7   9
ATOM      9  C   UNL A   1      37.711 -36.774 -29.757  0.00  0.00    +0.048 C 
BRANCH   9  10
ATOM     10  C   UNL A   1      38.855 -36.664 -30.730  0.00  0.00    -0.028 A 
ATOM     11  C   UNL A   1      38.700 -35.943 -31.926  0.00  0.00    -0.057 A 
ATOM     12  C   UNL A   1      39.762 -35.828 -32.823  0.00  0.00    -0.061 A 
ATOM     13  C   UNL A   1      40.986 -36.431 -32.541  0.00  0.00    -0.062 A 
ATOM     14  C   UNL A   1      41.148 -37.156 -31.363  0.00  0.00    -0.061 A 
ATOM     15  C   UNL A   1      40.090 -37.276 -30.462  0.00  0.00    -0.057 A 
ENDBRANCH   9  10
ENDBRANCH   7   9
ENDBRANCH   2   3
BRANCH   1  16
ATOM     16  C   UNL A   1      34.176 -41.709 -33.700  0.00  0.00    +0.221 C 
ATOM     17  O   UNL A   1      34.170 -40.972 -34.687  0.00  0.00    -0.284 OA
BRANCH  16  24
ATOM     18  C   UNL A   1      32.718 -46.196 -34.784  0.00  0.00    +0.163 A 
ATOM     19  C   UNL A   1      31.758 -47.093 -34.294  0.00  0.00    -0.016 A 
ATOM     20  C   UNL A   1      30.924 -46.761 -33.219  0.00  0.00    -0.058 A 
ATOM     21  C   UNL A   1      31.012 -45.512 -32.590  0.00  0.00    -0.051 A 
ATOM     22  C   UNL A   1      31.962 -44.591 -33.064  0.00  0.00    +0.025 A 
ATOM     23  C   UNL A   1      32.351 -43.271 -32.711  0.00  0.00    -0.005 A 
ATOM     24  C   UNL A   1      33.372 -42.905 -33.571  0.00  0.00    +0.176 A 
ATOM     25  O   UNL A   1      33.632 -43.940 -34.426  0.00  0.00    -0.448 OA
ATOM     26  C   UNL A   1      32.775 -44.959 -34.128  0.00  0.00    +0.177 A 
BRANCH  18  28
ATOM     27  C   UNL A   1      34.585 -47.396 -35.631  0.00  0.00    +0.079 C 
ATOM     28  O   UNL A   1      33.573 -46.418 -35.825  0.00  0.00    -0.491 OA
ENDBRANCH  18  28
ENDBRANCH  16  24
ENDBRANCH   1  16
TORSDOF 6
ENDMDL
MODEL 4
REMARK VINA RESULT:    -7.664     28.236     32.260
REMARK INTER + INTRA:         -10.945
REMARK INTER:                 -10.108
REMARK INTRA:                  -0.836
REMARK UNBOUND:                -0.592
REMARK  Name = cpd329.pdb
REMARK  7 active torsions:
REMARK  status: ('A' for Active; 'I' for Inactive)
REMARK    1  A    between atoms: C_1  and  O_2
REMARK    2  A    between atoms: O_2  and  C_3
REMARK    3  A    between atoms: C_9  and  C_10
REMARK    4  A    between atoms: C_10  and  C_12
REMARK    5  A    between atoms: C_13  and  C_14
REMARK    6  A    between atoms: N_18  and  C_19
REMARK    7  A    between atoms: C_19  and  C_20
REMARK                            x       y       z     vdW  Elec       q    Type
REMARK                         _______ _______ _______ _____ _____    ______ ____
ROOT
ATOM      1  C   UNL A   1      62.417 -21.219  -9.833  0.00  0.00    -0.011 C 
ATOM      2  C   UNL A   1      62.851 -20.124 -10.476  0.00  0.00    -0.049 C 
ENDROOT
BRANCH   2   3
ATOM      3  C   UNL A   1      61.996 -18.970 -10.789  0.00  0.00    -0.009 A 
ATOM      4  C   UNL A   1      62.588 -17.731 -11.034  0.00  0.00    -0.052 A 
ATOM      5  C   UNL A   1      61.791 -16.620 -11.290  0.00  0.00    -0.045 A 
ATOM      6  C   UNL A   1      60.409 -16.754 -11.284  0.00  0.00    +0.005 A 
ATOM      7  N   UNL A   1      59.837 -17.952 -11.026  0.00  0.00    -0.348 N 
ATOM      8  C   UNL A   1      60.600 -19.046 -10.779  0.00  0.00    +0.012 A 
BRANCH   7   9
ATOM      9  C   UNL A   1      58.356 -18.078 -11.019  0.00  0.00    +0.048 C 
BRANCH   9  10
ATOM     10  C   UNL A   1      57.865 -18.776 -12.260  0.00  0.00    -0.028 A 
ATOM     11  C   UNL A   1      57.909 -18.123 -13.503  0.00  0.00    -0.057 A 
ATOM     12  C   UNL A   1      57.468 -18.772 -14.657  0.00  0.00    -0.061 A 
ATOM     13  C   UNL A   1      56.977 -20.073 -14.584  0.00  0.00    -0.062 A 
ATOM     14  C   UNL A   1      56.920 -20.727 -13.356  0.00  0.00    -0.061 A 
ATOM     15  C   UNL A   1      57.359 -20.084 -12.198  0.00  0.00    -0.057 A 
ENDBRANCH   9  10
ENDBRANCH   7   9
ENDBRANCH   2   3
BRANCH   1  16
ATOM     16  C   UNL A   1      63.292 -22.358  -9.417  0.00  0.00    +0.221 C 
ATOM     17  O   UNL A   1      63.855 -22.953 -10.338  0.00  0.00    -0.284 OA
BRANCH  16  24
ATOM     18  C   UNL A   1      64.276 -25.214  -5.634  0.00  0.00    +0.163 A 
ATOM     19  C   UNL A   1      64.310 -25.069  -4.240  0.00  0.00    -0.016 A 
ATOM     20  C   UNL A   1      64.008 -23.849  -3.621  0.00  0.00    -0.058 A 
ATOM     21  C   UNL A   1      63.654 -22.722  -4.373  0.00  0.00    -0.051 A 
ATOM     22  C   UNL A   1      63.606 -22.840  -5.772  0.00  0.00    +0.025 A 
ATOM     23  C   UNL A   1      63.304 -21.964  -6.849  0.00  0.00    -0.005 A 
ATOM     24  C   UNL A   1      63.445 -22.693  -8.018  0.00  0.00    +0.176 A 
ATOM     25  O   UNL A   1      63.827 -23.968  -7.708  0.00  0.00    -0.448 OA
ATOM     26  C   UNL A   1      63.917 -24.064  -6.350  0.00  0.00    +0.177 A 
BRANCH  18  28
ATOM     27  C   UNL A   1      63.499 -27.309  -6.440  0.00  0.00    +0.079 C 
ATOM     28  O   UNL A   1      64.546 -26.355  -6.334  0.00  0.00    -0.491 OA
ENDBRANCH  18  28
ENDBRANCH  16  24
ENDBRANCH   1  16
TORSDOF 6
ENDMDL
MODEL 5
REMARK VINA RESULT:    -7.465     18.396     20.244
REMARK INTER + INTRA:         -10.676
REMARK INTER:                  -9.839
REMARK INTRA:                  -0.837
REMARK UNBOUND:                -0.592
REMARK  Name = cpd329.pdb
REMARK  7 active torsions:
REMARK  status: ('A' for Active; 'I' for Inactive)
REMARK    1  A    between atoms: C_1  and  O_2
REMARK    2  A    between atoms: O_2  and  C_3
REMARK    3  A    between atoms: C_9  and  C_10
REMARK    4  A    between atoms: C_10  and  C_12
REMARK    5  A    between atoms: C_13  and  C_14
REMARK    6  A    between atoms: N_18  and  C_19
REMARK    7  A    between atoms: C_19  and  C_20
REMARK                            x       y       z     vdW  Elec       q    Type
REMARK                         _______ _______ _______ _____ _____    ______ ____
ROOT
ATOM      1  C   UNL A   1      43.181 -20.261 -36.184  0.00  0.00    -0.011 C 
ATOM      2  C   UNL A   1      42.407 -21.201 -36.747  0.00  0.00    -0.049 C 
ENDROOT
BRANCH   2   3
ATOM      3  C   UNL A   1      41.237 -21.796 -36.085  0.00  0.00    -0.009 A 
ATOM      4  C   UNL A   1      40.398 -22.638 -36.814  0.00  0.00    -0.052 A 
ATOM      5  C   UNL A   1      39.263 -23.176 -36.215  0.00  0.00    -0.045 A 
ATOM      6  C   UNL A   1      38.969 -22.854 -34.896  0.00  0.00    +0.005 A 
ATOM      7  N   UNL A   1      39.773 -22.021 -34.198  0.00  0.00    -0.348 N 
ATOM      8  C   UNL A   1      40.885 -21.492 -34.766  0.00  0.00    +0.012 A 
BRANCH   7   9
ATOM      9  C   UNL A   1      39.442 -21.682 -32.788  0.00  0.00    +0.048 C 
BRANCH   9  10
ATOM     10  C   UNL A   1      38.409 -20.588 -32.722  0.00  0.00    -0.028 A 
ATOM     11  C   UNL A   1      38.806 -19.249 -32.567  0.00  0.00    -0.057 A 
ATOM     12  C   UNL A   1      37.853 -18.232 -32.518  0.00  0.00    -0.061 A 
ATOM     13  C   UNL A   1      36.498 -18.538 -32.619  0.00  0.00    -0.062 A 
ATOM     14  C   UNL A   1      36.092 -19.862 -32.763  0.00  0.00    -0.061 A 
ATOM     15  C   UNL A   1      37.040 -20.884 -32.812  0.00  0.00    -0.057 A 
ENDBRANCH   9  10
ENDBRANCH   7   9
ENDBRANCH   2   3
BRANCH   1  16
ATOM     16  C   UNL A   1      44.314 -19.572 -36.877  0.00  0.00    +0.221 C 
ATOM     17  O   UNL A   1      45.073 -18.937 -36.143  0.00  0.00    -0.284 OA
BRANCH  16  24
ATOM     18  C   UNL A   1      45.998 -21.446 -41.010  0.00  0.00    +0.163 A 
ATOM     19  C   UNL A   1      45.834 -21.189 -42.378  0.00  0.00    -0.016 A 
ATOM     20  C   UNL A   1      45.001 -20.159 -42.836  0.00  0.00    -0.058 A 
ATOM     21  C   UNL A   1      44.302 -19.339 -41.942  0.00  0.00    -0.051 A 
ATOM     22  C   UNL A   1      44.454 -19.570 -40.564  0.00  0.00    +0.025 A 
ATOM     23  C   UNL A   1      43.935 -18.983 -39.379  0.00  0.00    -0.005 A 
ATOM     24  C   UNL A   1      44.471 -19.682 -38.311  0.00  0.00    +0.176 A 
ATOM     25  O   UNL A   1      45.283 -20.674 -38.786  0.00  0.00    -0.448 OA
ATOM     26  C   UNL A   1      45.282 -20.604 -40.149  0.00  0.00    +0.177 A 
BRANCH  18  28
ATOM     27  C   UNL A   1      47.185 -23.482 -41.313  0.00  0.00    +0.079 C 
ATOM     28  O   UNL A   1      46.786 -22.417 -40.461  0.00  0.00    -0.491 OA
ENDBRANCH  18  28
ENDBRANCH  16  24
ENDBRANCH   1  16
TORSDOF 6
ENDMDL
MODEL 6
REMARK VINA RESULT:    -7.425     28.303     32.353
REMARK INTER + INTRA:         -10.622
REMARK INTER:                  -9.745
REMARK INTRA:                  -0.877
REMARK UNBOUND:                -0.592
REMARK  Name = cpd329.pdb
REMARK  7 active torsions:
REMARK  status: ('A' for Active; 'I' for Inactive)
REMARK    1  A    between atoms: C_1  and  O_2
REMARK    2  A    between atoms: O_2  and  C_3
REMARK    3  A    between atoms: C_9  and  C_10
REMARK    4  A    between atoms: C_10  and  C_12
REMARK    5  A    between atoms: C_13  and  C_14
REMARK    6  A    between atoms: N_18  and  C_19
REMARK    7  A    between atoms: C_19  and  C_20
REMARK                            x       y       z     vdW  Elec       q    Type
REMARK                         _______ _______ _______ _____ _____    ______ ____
ROOT
ATOM      1  C   UNL A   1      62.447 -21.495  -9.843  0.00  0.00    -0.011 C 
ATOM      2  C   UNL A   1      62.710 -20.374 -10.534  0.00  0.00    -0.049 C 
ENDROOT
BRANCH   2   3
ATOM      3  C   UNL A   1      61.838 -19.191 -10.529  0.00  0.00    -0.009 A 
ATOM      4  C   UNL A   1      62.402 -17.931 -10.334  0.00  0.00    -0.052 A 
ATOM      5  C   UNL A   1      61.586 -16.805 -10.285  0.00  0.00    -0.045 A 
ATOM      6  C   UNL A   1      60.211 -16.952 -10.417  0.00  0.00    +0.005 A 
ATOM      7  N   UNL A   1      59.665 -18.177 -10.586  0.00  0.00    -0.348 N 
ATOM      8  C   UNL A   1      60.447 -19.283 -10.640  0.00  0.00    +0.012 A 
BRANCH   7   9
ATOM      9  C   UNL A   1      58.191 -18.317 -10.720  0.00  0.00    +0.048 C 
BRANCH   9  10
ATOM     10  C   UNL A   1      57.823 -18.914 -12.053  0.00  0.00    -0.028 A 
ATOM     11  C   UNL A   1      57.276 -20.206 -12.123  0.00  0.00    -0.057 A 
ATOM     12  C   UNL A   1      56.921 -20.757 -13.355  0.00  0.00    -0.061 A 
ATOM     13  C   UNL A   1      57.111 -20.029 -14.527  0.00  0.00    -0.062 A 
ATOM     14  C   UNL A   1      57.661 -18.752 -14.472  0.00  0.00    -0.061 A 
ATOM     15  C   UNL A   1      58.019 -18.195 -13.243  0.00  0.00    -0.057 A 
ENDBRANCH   9  10
ENDBRANCH   7   9
ENDBRANCH   2   3
BRANCH   1  16
ATOM     16  C   UNL A   1      63.370 -22.670  -9.755  0.00  0.00    +0.221 C 
ATOM     17  O   UNL A   1      63.865 -23.031 -10.823  0.00  0.00    -0.284 OA
BRANCH  16  24
ATOM     18  C   UNL A   1      63.834 -22.876  -4.941  0.00  0.00    +0.163 A 
ATOM     19  C   UNL A   1      64.144 -23.865  -3.997  0.00  0.00    -0.016 A 
ATOM     20  C   UNL A   1      64.417 -25.185  -4.379  0.00  0.00    -0.058 A 
ATOM     21  C   UNL A   1      64.395 -25.570  -5.725  0.00  0.00    -0.051 A 
ATOM     22  C   UNL A   1      64.092 -24.598  -6.694  0.00  0.00    +0.025 A 
ATOM     23  C   UNL A   1      63.972 -24.587  -8.109  0.00  0.00    -0.005 A 
ATOM     24  C   UNL A   1      63.638 -23.296  -8.479  0.00  0.00    +0.176 A 
ATOM     25  O   UNL A   1      63.539 -22.519  -7.358  0.00  0.00    -0.448 OA
ATOM     26  C   UNL A   1      63.822 -23.302  -6.276  0.00  0.00    +0.177 A 
BRANCH  18  28
ATOM     27  C   UNL A   1      62.202 -21.230  -4.421  0.00  0.00    +0.079 C 
ATOM     28  O   UNL A   1      63.559 -21.565  -4.676  0.00  0.00    -0.491 OA
ENDBRANCH  18  28
ENDBRANCH  16  24
ENDBRANCH   1  16
TORSDOF 6
ENDMDL
MODEL 7
REMARK VINA RESULT:    -7.399      8.103     13.231
REMARK INTER + INTRA:         -10.587
REMARK INTER:                  -9.876
REMARK INTRA:                  -0.711
REMARK UNBOUND:                -0.592
REMARK  Name = cpd329.pdb
REMARK  7 active torsions:
REMARK  status: ('A' for Active; 'I' for Inactive)
REMARK    1  A    between atoms: C_1  and  O_2
REMARK    2  A    between atoms: O_2  and  C_3
REMARK    3  A    between atoms: C_9  and  C_10
REMARK    4  A    between atoms: C_10  and  C_12
REMARK    5  A    between atoms: C_13  and  C_14
REMARK    6  A    between atoms: N_18  and  C_19
REMARK    7  A    between atoms: C_19  and  C_20
REMARK                            x       y       z     vdW  Elec       q    Type
REMARK                         _______ _______ _______ _____ _____    ______ ____
ROOT
ATOM      1  C   UNL A   1      34.365 -39.833 -32.647  0.00  0.00    -0.011 C 
ATOM      2  C   UNL A   1      34.601 -40.506 -31.510  0.00  0.00    -0.049 C 
ENDROOT
BRANCH   2   3
ATOM      3  C   UNL A   1      35.623 -40.115 -30.530  0.00  0.00    -0.009 A 
ATOM      4  C   UNL A   1      36.168 -41.086 -29.690  0.00  0.00    -0.052 A 
ATOM      5  C   UNL A   1      37.106 -40.725 -28.728  0.00  0.00    -0.045 A 
ATOM      6  C   UNL A   1      37.480 -39.393 -28.605  0.00  0.00    +0.005 A 
ATOM      7  N   UNL A   1      36.936 -38.450 -29.406  0.00  0.00    -0.348 N 
ATOM      8  C   UNL A   1      36.024 -38.787 -30.351  0.00  0.00    +0.012 A 
BRANCH   7   9
ATOM      9  C   UNL A   1      37.344 -37.029 -29.258  0.00  0.00    +0.048 C 
BRANCH   9  10
ATOM     10  C   UNL A   1      38.344 -36.639 -30.315  0.00  0.00    -0.028 A 
ATOM     11  C   UNL A   1      37.976 -35.761 -31.348  0.00  0.00    -0.057 A 
ATOM     12  C   UNL A   1      38.903 -35.387 -32.320  0.00  0.00    -0.061 A 
ATOM     13  C   UNL A   1      40.203 -35.886 -32.276  0.00  0.00    -0.062 A 
ATOM     14  C   UNL A   1      40.577 -36.764 -31.263  0.00  0.00    -0.061 A 
ATOM     15  C   UNL A   1      39.654 -37.143 -30.287  0.00  0.00    -0.057 A 
ENDBRANCH   9  10
ENDBRANCH   7   9
ENDBRANCH   2   3
BRANCH   1  16
ATOM     16  C   UNL A   1      33.263 -40.155 -33.607  0.00  0.00    +0.221 C 
ATOM     17  O   UNL A   1      32.437 -39.259 -33.780  0.00  0.00    -0.284 OA
BRANCH  16  24
ATOM     18  C   UNL A   1      32.463 -43.218 -37.270  0.00  0.00    +0.163 A 
ATOM     19  C   UNL A   1      32.609 -44.595 -37.486  0.00  0.00    -0.016 A 
ATOM     20  C   UNL A   1      33.100 -45.447 -36.488  0.00  0.00    -0.058 A 
ATOM     21  C   UNL A   1      33.461 -44.955 -35.228  0.00  0.00    -0.051 A 
ATOM     22  C   UNL A   1      33.320 -43.579 -34.981  0.00  0.00    +0.025 A 
ATOM     23  C   UNL A   1      33.567 -42.721 -33.876  0.00  0.00    -0.005 A 
ATOM     24  C   UNL A   1      33.223 -41.440 -34.271  0.00  0.00    +0.176 A 
ATOM     25  O   UNL A   1      32.786 -41.472 -35.566  0.00  0.00    -0.448 OA
ATOM     26  C   UNL A   1      32.835 -42.766 -35.997  0.00  0.00    +0.177 A 
BRANCH  18  28
ATOM     27  C   UNL A   1      30.581 -42.166 -38.268  0.00  0.00    +0.079 C 
ATOM     28  O   UNL A   1      31.992 -42.305 -38.169  0.00  0.00    -0.491 OA
ENDBRANCH  18  28
ENDBRANCH  16  24
ENDBRANCH   1  16
TORSDOF 6
ENDMDL
MODEL 8
REMARK VINA RESULT:    -7.360      7.207     12.625
REMARK INTER + INTRA:         -10.534
REMARK INTER:                  -9.828
REMARK INTRA:                  -0.706
REMARK UNBOUND:                -0.592
REMARK  Name = cpd329.pdb
REMARK  7 active torsions:
REMARK  status: ('A' for Active; 'I' for Inactive)
REMARK    1  A    between atoms: C_1  and  O_2
REMARK    2  A    between atoms: O_2  and  C_3
REMARK    3  A    between atoms: C_9  and  C_10
REMARK    4  A    between atoms: C_10  and  C_12
REMARK    5  A    between atoms: C_13  and  C_14
REMARK    6  A    between atoms: N_18  and  C_19
REMARK    7  A    between atoms: C_19  and  C_20
REMARK                            x       y       z     vdW  Elec       q    Type
REMARK                         _______ _______ _______ _____ _____    ______ ____
ROOT
ATOM      1  C   UNL A   1      33.048 -37.194 -26.609  0.00  0.00    -0.011 C 
ATOM      2  C   UNL A   1      34.342 -37.030 -26.929  0.00  0.00    -0.049 C 
ENDROOT
BRANCH   2   3
ATOM      3  C   UNL A   1      34.898 -37.340 -28.253  0.00  0.00    -0.009 A 
ATOM      4  C   UNL A   1      34.516 -38.518 -28.893  0.00  0.00    -0.052 A 
ATOM      5  C   UNL A   1      35.065 -38.847 -30.129  0.00  0.00    -0.045 A 
ATOM      6  C   UNL A   1      36.004 -38.002 -30.706  0.00  0.00    +0.005 A 
ATOM      7  N   UNL A   1      36.388 -36.870 -30.074  0.00  0.00    -0.348 N 
ATOM      8  C   UNL A   1      35.859 -36.533 -28.872  0.00  0.00    +0.012 A 
BRANCH   7   9
ATOM      9  C   UNL A   1      37.397 -35.978 -30.703  0.00  0.00    +0.048 C 
BRANCH   9  10
ATOM     10  C   UNL A   1      38.782 -36.558 -30.586  0.00  0.00    -0.028 A 
ATOM     11  C   UNL A   1      39.733 -36.330 -31.595  0.00  0.00    -0.057 A 
ATOM     12  C   UNL A   1      41.021 -36.855 -31.483  0.00  0.00    -0.061 A 
ATOM     13  C   UNL A   1      41.373 -37.613 -30.370  0.00  0.00    -0.062 A 
ATOM     14  C   UNL A   1      40.437 -37.855 -29.368  0.00  0.00    -0.061 A 
ATOM     15  C   UNL A   1      39.146 -37.333 -29.473  0.00  0.00    -0.057 A 
ENDBRANCH   9  10
ENDBRANCH   7   9
ENDBRANCH   2   3
BRANCH   1  16
ATOM     16  C   UNL A   1      32.443 -36.791 -25.301  0.00  0.00    +0.221 C 
ATOM     17  O   UNL A   1      31.533 -35.964 -25.376  0.00  0.00    -0.284 OA
BRANCH  16  24
ATOM     18  C   UNL A   1      34.134 -40.293 -22.419  0.00  0.00    +0.163 A 
ATOM     19  C   UNL A   1      34.532 -40.395 -21.079  0.00  0.00    -0.016 A 
ATOM     20  C   UNL A   1      34.493 -39.292 -20.215  0.00  0.00    -0.058 A 
ATOM     21  C   UNL A   1      34.047 -38.040 -20.657  0.00  0.00    -0.051 A 
ATOM     22  C   UNL A   1      33.635 -37.911 -21.994  0.00  0.00    +0.025 A 
ATOM     23  C   UNL A   1      33.138 -36.851 -22.799  0.00  0.00    -0.005 A 
ATOM     24  C   UNL A   1      32.920 -37.369 -24.064  0.00  0.00    +0.176 A 
ATOM     25  O   UNL A   1      33.270 -38.690 -24.074  0.00  0.00    -0.448 OA
ATOM     26  C   UNL A   1      33.695 -39.025 -22.821  0.00  0.00    +0.177 A 
BRANCH  18  28
ATOM     27  C   UNL A   1      33.057 -42.232 -23.270  0.00  0.00    +0.079 C 
ATOM     28  O   UNL A   1      34.129 -41.302 -23.338  0.00  0.00    -0.491 OA
ENDBRANCH  18  28
ENDBRANCH  16  24
ENDBRANCH   1  16
TORSDOF 6
ENDMDL
MODEL 9
REMARK VINA RESULT:    -7.332      7.839     14.871
REMARK INTER + INTRA:         -10.496
REMARK INTER:                 -10.923
REMARK INTRA:                   0.427
REMARK UNBOUND:                -0.592
REMARK  Name = cpd329.pdb
REMARK  7 active torsions:
REMARK  status: ('A' for Active; 'I' for Inactive)
REMARK    1  A    between atoms: C_1  and  O_2
REMARK    2  A    between atoms: O_2  and  C_3
REMARK    3  A    between atoms: C_9  and  C_10
REMARK    4  A    between atoms: C_10  and  C_12
REMARK    5  A    between atoms: C_13  and  C_14
REMARK    6  A    between atoms: N_18  and  C_19
REMARK    7  A    between atoms: C_19  and  C_20
REMARK                            x       y       z     vdW  Elec       q    Type
REMARK                         _______ _______ _______ _____ _____    ______ ____
ROOT
ATOM      1  C   UNL A   1      34.067 -33.735 -30.235  0.00  0.00    -0.011 C 
ATOM      2  C   UNL A   1      35.257 -34.354 -30.270  0.00  0.00    -0.049 C 
ENDROOT
BRANCH   2   3
ATOM      3  C   UNL A   1      35.592 -35.523 -29.444  0.00  0.00    -0.009 A 
ATOM      4  C   UNL A   1      34.756 -35.868 -28.382  0.00  0.00    -0.052 A 
ATOM      5  C   UNL A   1      35.080 -36.946 -27.565  0.00  0.00    -0.045 A 
ATOM      6  C   UNL A   1      36.247 -37.660 -27.807  0.00  0.00    +0.005 A 
ATOM      7  N   UNL A   1      37.066 -37.312 -28.824  0.00  0.00    -0.348 N 
ATOM      8  C   UNL A   1      36.762 -36.266 -29.633  0.00  0.00    +0.012 A 
BRANCH   7   9
ATOM      9  C   UNL A   1      38.313 -38.084 -29.067  0.00  0.00    +0.048 C 
BRANCH   9  10
ATOM     10  C   UNL A   1      39.265 -37.313 -29.943  0.00  0.00    -0.028 A 
ATOM     11  C   UNL A   1      40.638 -37.288 -29.645  0.00  0.00    -0.057 A 
ATOM     12  C   UNL A   1      41.525 -36.587 -30.462  0.00  0.00    -0.061 A 
ATOM     13  C   UNL A   1      41.054 -35.901 -31.580  0.00  0.00    -0.062 A 
ATOM     14  C   UNL A   1      39.695 -35.911 -31.880  0.00  0.00    -0.061 A 
ATOM     15  C   UNL A   1      38.802 -36.610 -31.067  0.00  0.00    -0.057 A 
ENDBRANCH   9  10
ENDBRANCH   7   9
ENDBRANCH   2   3
BRANCH   1  16
ATOM     16  C   UNL A   1      33.673 -32.610 -31.139  0.00  0.00    +0.221 C 
ATOM     17  O   UNL A   1      34.485 -32.337 -32.024  0.00  0.00    -0.284 OA
BRANCH  16  24
ATOM     18  C   UNL A   1      28.881 -32.007 -31.471  0.00  0.00    +0.163 A 
ATOM     19  C   UNL A   1      27.953 -31.038 -31.065  0.00  0.00    -0.016 A 
ATOM     20  C   UNL A   1      28.351 -29.886 -30.372  0.00  0.00    -0.058 A 
ATOM     21  C   UNL A   1      29.697 -29.654 -30.063  0.00  0.00    -0.051 A 
ATOM     22  C   UNL A   1      30.649 -30.606 -30.464  0.00  0.00    +0.025 A 
ATOM     23  C   UNL A   1      32.059 -30.735 -30.345  0.00  0.00    -0.005 A 
ATOM     24  C   UNL A   1      32.410 -31.928 -30.952  0.00  0.00    +0.176 A 
ATOM     25  O   UNL A   1      31.284 -32.539 -31.428  0.00  0.00    -0.448 OA
ATOM     26  C   UNL A   1      30.216 -31.738 -31.142  0.00  0.00    +0.177 A 
BRANCH  18  28
ATOM     27  C   UNL A   1      28.117 -33.019 -33.481  0.00  0.00    +0.079 C 
ATOM     28  O   UNL A   1      28.601 -33.157 -32.152  0.00  0.00    -0.491 OA
ENDBRANCH  18  28
ENDBRANCH  16  24
ENDBRANCH   1  16
TORSDOF 6
ENDMDL
MODEL 10
REMARK VINA RESULT:    -7.286      5.541      8.749
REMARK INTER + INTRA:         -10.434
REMARK INTER:                  -9.711
REMARK INTRA:                  -0.723
REMARK UNBOUND:                -0.592
REMARK  Name = cpd329.pdb
REMARK  7 active torsions:
REMARK  status: ('A' for Active; 'I' for Inactive)
REMARK    1  A    between atoms: C_1  and  O_2
REMARK    2  A    between atoms: O_2  and  C_3
REMARK    3  A    between atoms: C_9  and  C_10
REMARK    4  A    between atoms: C_10  and  C_12
REMARK    5  A    between atoms: C_13  and  C_14
REMARK    6  A    between atoms: N_18  and  C_19
REMARK    7  A    between atoms: C_19  and  C_20
REMARK                            x       y       z     vdW  Elec       q    Type
REMARK                         _______ _______ _______ _____ _____    ______ ____
ROOT
ATOM      1  C   UNL A   1      36.049 -36.948 -29.662  0.00  0.00    -0.011 C 
ATOM      2  C   UNL A   1      35.507 -38.152 -29.902  0.00  0.00    -0.049 C 
ENDROOT
BRANCH   2   3
ATOM      3  C   UNL A   1      34.828 -38.959 -28.878  0.00  0.00    -0.009 A 
ATOM      4  C   UNL A   1      35.164 -40.304 -28.738  0.00  0.00    -0.052 A 
ATOM      5  C   UNL A   1      34.501 -41.092 -27.802  0.00  0.00    -0.045 A 
ATOM      6  C   UNL A   1      33.497 -40.530 -27.024  0.00  0.00    +0.005 A 
ATOM      7  N   UNL A   1      33.159 -39.230 -27.176  0.00  0.00    -0.348 N 
ATOM      8  C   UNL A   1      33.798 -38.448 -28.081  0.00  0.00    +0.012 A 
BRANCH   7   9
ATOM      9  C   UNL A   1      32.079 -38.644 -26.339  0.00  0.00    +0.048 C 
BRANCH   9  10
ATOM     10  C   UNL A   1      32.643 -38.004 -25.097  0.00  0.00    -0.028 A 
ATOM     11  C   UNL A   1      32.799 -36.610 -25.029  0.00  0.00    -0.057 A 
ATOM     12  C   UNL A   1      33.307 -36.012 -23.875  0.00  0.00    -0.061 A 
ATOM     13  C   UNL A   1      33.668 -36.796 -22.782  0.00  0.00    -0.062 A 
ATOM     14  C   UNL A   1      33.527 -38.180 -22.842  0.00  0.00    -0.061 A 
ATOM     15  C   UNL A   1      33.019 -38.784 -23.993  0.00  0.00    -0.057 A 
ENDBRANCH   9  10
ENDBRANCH   7   9
ENDBRANCH   2   3
BRANCH   1  16
ATOM     16  C   UNL A   1      36.654 -36.069 -30.711  0.00  0.00    +0.221 C 
ATOM     17  O   UNL A   1      35.863 -35.328 -31.296  0.00  0.00    -0.284 OA
BRANCH  16  24
ATOM     18  C   UNL A   1      41.180 -37.731 -30.279  0.00  0.00    +0.163 A 
ATOM     19  C   UNL A   1      42.429 -37.418 -30.833  0.00  0.00    -0.016 A 
ATOM     20  C   UNL A   1      42.579 -36.384 -31.767  0.00  0.00    -0.058 A 
ATOM     21  C   UNL A   1      41.484 -35.617 -32.183  0.00  0.00    -0.051 A 
ATOM     22  C   UNL A   1      40.221 -35.905 -31.640  0.00  0.00    +0.025 A 
ATOM     23  C   UNL A   1      38.911 -35.380 -31.798  0.00  0.00    -0.005 A 
ATOM     24  C   UNL A   1      38.076 -36.115 -30.973  0.00  0.00    +0.176 A 
ATOM     25  O   UNL A   1      38.810 -37.070 -30.327  0.00  0.00    -0.448 OA
ATOM     26  C   UNL A   1      40.111 -36.941 -30.721  0.00  0.00    +0.177 A 
BRANCH  18  28
ATOM     27  C   UNL A   1      40.771 -38.302 -28.010  0.00  0.00    +0.079 C 
ATOM     28  O   UNL A   1      40.927 -38.710 -29.362  0.00  0.00    -0.491 OA
ENDBRANCH  18  28
ENDBRANCH  16  24
ENDBRANCH   1  16
TORSDOF 6
ENDMDL
MODEL 11
REMARK VINA RESULT:    -7.259     18.723     20.522
REMARK INTER + INTRA:         -10.397
REMARK INTER:                  -9.486
REMARK INTRA:                  -0.911
REMARK UNBOUND:                -0.592
REMARK  Name = cpd329.pdb
REMARK  7 active torsions:
REMARK  status: ('A' for Active; 'I' for Inactive)
REMARK    1  A    between atoms: C_1  and  O_2
REMARK    2  A    between atoms: O_2  and  C_3
REMARK    3  A    between atoms: C_9  and  C_10
REMARK    4  A    between atoms: C_10  and  C_12
REMARK    5  A    between atoms: C_13  and  C_14
REMARK    6  A    between atoms: N_18  and  C_19
REMARK    7  A    between atoms: C_19  and  C_20
REMARK                            x       y       z     vdW  Elec       q    Type
REMARK                         _______ _______ _______ _____ _____    ______ ____
ROOT
ATOM      1  C   UNL A   1      45.244 -19.452 -36.041  0.00  0.00    -0.011 C 
ATOM      2  C   UNL A   1      44.121 -20.186 -36.092  0.00  0.00    -0.049 C 
ENDROOT
BRANCH   2   3
ATOM      3  C   UNL A   1      43.109 -20.201 -35.026  0.00  0.00    -0.009 A 
ATOM      4  C   UNL A   1      43.296 -19.401 -33.899  0.00  0.00    -0.052 A 
ATOM      5  C   UNL A   1      42.369 -19.434 -32.862  0.00  0.00    -0.045 A 
ATOM      6  C   UNL A   1      41.270 -20.280 -32.955  0.00  0.00    +0.005 A 
ATOM      7  N   UNL A   1      41.102 -21.070 -34.039  0.00  0.00    -0.348 N 
ATOM      8  C   UNL A   1      41.995 -21.045 -35.060  0.00  0.00    +0.012 A 
BRANCH   7   9
ATOM      9  C   UNL A   1      39.924 -21.972 -34.121  0.00  0.00    +0.048 C 
BRANCH   9  10
ATOM     10  C   UNL A   1      38.638 -21.194 -34.037  0.00  0.00    -0.028 A 
ATOM     11  C   UNL A   1      37.848 -21.254 -32.877  0.00  0.00    -0.057 A 
ATOM     12  C   UNL A   1      36.662 -20.524 -32.791  0.00  0.00    -0.061 A 
ATOM     13  C   UNL A   1      36.251 -19.730 -33.859  0.00  0.00    -0.062 A 
ATOM     14  C   UNL A   1      37.021 -19.669 -35.018  0.00  0.00    -0.061 A 
ATOM     15  C   UNL A   1      38.207 -20.398 -35.111  0.00  0.00    -0.057 A 
ENDBRANCH   9  10
ENDBRANCH   7   9
ENDBRANCH   2   3
BRANCH   1  16
ATOM     16  C   UNL A   1      46.235 -19.345 -37.157  0.00  0.00    +0.221 C 
ATOM     17  O   UNL A   1      47.393 -19.108 -36.810  0.00  0.00    -0.284 OA
BRANCH  16  24
ATOM     18  C   UNL A   1      45.547 -21.777 -41.285  0.00  0.00    +0.163 A 
ATOM     19  C   UNL A   1      45.002 -21.495 -42.546  0.00  0.00    -0.016 A 
ATOM     20  C   UNL A   1      44.478 -20.233 -42.853  0.00  0.00    -0.058 A 
ATOM     21  C   UNL A   1      44.483 -19.196 -41.912  0.00  0.00    -0.051 A 
ATOM     22  C   UNL A   1      45.029 -19.448 -40.642  0.00  0.00    +0.025 A 
ATOM     23  C   UNL A   1      45.213 -18.691 -39.454  0.00  0.00    -0.005 A 
ATOM     24  C   UNL A   1      45.816 -19.527 -38.529  0.00  0.00    +0.176 A 
ATOM     25  O   UNL A   1      46.000 -20.760 -39.090  0.00  0.00    -0.448 OA
ATOM     26  C   UNL A   1      45.533 -20.714 -40.372  0.00  0.00    +0.177 A 
BRANCH  18  28
ATOM     27  C   UNL A   1      47.429 -23.227 -41.270  0.00  0.00    +0.079 C 
ATOM     28  O   UNL A   1      46.086 -22.966 -40.887  0.00  0.00    -0.491 OA
ENDBRANCH  18  28
ENDBRANCH  16  24
ENDBRANCH   1  16
TORSDOF 6
ENDMDL
MODEL 12
REMARK VINA RESULT:    -7.254     18.551     21.587
REMARK INTER + INTRA:         -10.390
REMARK INTER:                  -9.654
REMARK INTRA:                  -0.736
REMARK UNBOUND:                -0.592
REMARK  Name = cpd329.pdb
REMARK  7 active torsions:
REMARK  status: ('A' for Active; 'I' for Inactive)
REMARK    1  A    between atoms: C_1  and  O_2
REMARK    2  A    between atoms: O_2  and  C_3
REMARK    3  A    between atoms: C_9  and  C_10
REMARK    4  A    between atoms: C_10  and  C_12
REMARK    5  A    between atoms: C_13  and  C_14
REMARK    6  A    between atoms: N_18  and  C_19
REMARK    7  A    between atoms: C_19  and  C_20
REMARK                            x       y       z     vdW  Elec       q    Type
REMARK                         _______ _______ _______ _____ _____    ______ ____
ROOT
ATOM      1  C   UNL A   1      42.151 -21.338 -38.225  0.00  0.00    -0.011 C 
ATOM      2  C   UNL A   1      43.098 -20.962 -37.352  0.00  0.00    -0.049 C 
ENDROOT
BRANCH   2   3
ATOM      3  C   UNL A   1      44.201 -20.051 -37.688  0.00  0.00    -0.009 A 
ATOM      4  C   UNL A   1      44.740 -19.238 -36.692  0.00  0.00    -0.052 A 
ATOM      5  C   UNL A   1      45.756 -18.339 -37.003  0.00  0.00    -0.045 A 
ATOM      6  C   UNL A   1      46.214 -18.252 -38.311  0.00  0.00    +0.005 A 
ATOM      7  N   UNL A   1      45.676 -19.026 -39.279  0.00  0.00    -0.348 N 
ATOM      8  C   UNL A   1      44.688 -19.910 -38.992  0.00  0.00    +0.012 A 
BRANCH   7   9
ATOM      9  C   UNL A   1      46.174 -18.917 -40.676  0.00  0.00    +0.048 C 
BRANCH   9  10
ATOM     10  C   UNL A   1      46.202 -20.265 -41.348  0.00  0.00    -0.028 A 
ATOM     11  C   UNL A   1      47.246 -21.166 -41.083  0.00  0.00    -0.057 A 
ATOM     12  C   UNL A   1      47.268 -22.421 -41.693  0.00  0.00    -0.061 A 
ATOM     13  C   UNL A   1      46.254 -22.787 -42.575  0.00  0.00    -0.062 A 
ATOM     14  C   UNL A   1      45.219 -21.899 -42.853  0.00  0.00    -0.061 A 
ATOM     15  C   UNL A   1      45.191 -20.642 -42.246  0.00  0.00    -0.057 A 
ENDBRANCH   9  10
ENDBRANCH   7   9
ENDBRANCH   2   3
BRANCH   1  16
ATOM     16  C   UNL A   1      40.966 -22.182 -37.877  0.00  0.00    +0.221 C 
ATOM     17  O   UNL A   1      40.858 -23.227 -38.520  0.00  0.00    -0.284 OA
BRANCH  16  24
ATOM     18  C   UNL A   1      38.741 -22.409 -33.584  0.00  0.00    +0.163 A 
ATOM     19  C   UNL A   1      37.778 -21.651 -32.903  0.00  0.00    -0.016 A 
ATOM     20  C   UNL A   1      37.213 -20.502 -33.471  0.00  0.00    -0.058 A 
ATOM     21  C   UNL A   1      37.585 -20.066 -34.748  0.00  0.00    -0.051 A 
ATOM     22  C   UNL A   1      38.543 -20.809 -35.456  0.00  0.00    +0.025 A 
ATOM     23  C   UNL A   1      39.166 -20.702 -36.729  0.00  0.00    -0.005 A 
ATOM     24  C   UNL A   1      40.048 -21.764 -36.841  0.00  0.00    +0.176 A 
ATOM     25  O   UNL A   1      40.001 -22.509 -35.695  0.00  0.00    -0.448 OA
ATOM     26  C   UNL A   1      39.086 -21.939 -34.858  0.00  0.00    +0.177 A 
BRANCH  18  28
ATOM     27  C   UNL A   1      40.612 -23.388 -32.496  0.00  0.00    +0.079 C 
ATOM     28  O   UNL A   1      39.348 -23.543 -33.125  0.00  0.00    -0.491 OA
ENDBRANCH  18  28
ENDBRANCH  16  24
ENDBRANCH   1  16
TORSDOF 6
ENDMDL
MODEL 13
REMARK VINA RESULT:    -7.195     23.211     26.661
REMARK INTER + INTRA:         -10.311
REMARK INTER:                  -9.510
REMARK INTRA:                  -0.801
REMARK UNBOUND:                -0.592
REMARK  Name = cpd329.pdb
REMARK  7 active torsions:
REMARK  status: ('A' for Active; 'I' for Inactive)
REMARK    1  A    between atoms: C_1  and  O_2
REMARK    2  A    between atoms: O_2  and  C_3
REMARK    3  A    between atoms: C_9  and  C_10
REMARK    4  A    between atoms: C_10  and  C_12
REMARK    5  A    between atoms: C_13  and  C_14
REMARK    6  A    between atoms: N_18  and  C_19
REMARK    7  A    between atoms: C_19  and  C_20
REMARK                            x       y       z     vdW  Elec       q    Type
REMARK                         _______ _______ _______ _____ _____    ______ ____
ROOT
ATOM      1  C   UNL A   1      51.029 -31.758 -53.617  0.00  0.00    -0.011 C 
ATOM      2  C   UNL A   1      52.073 -31.232 -52.958  0.00  0.00    -0.049 C 
ENDROOT
BRANCH   2   3
ATOM      3  C   UNL A   1      53.447 -31.744 -53.066  0.00  0.00    -0.009 A 
ATOM      4  C   UNL A   1      54.397 -31.000 -53.764  0.00  0.00    -0.052 A 
ATOM      5  C   UNL A   1      55.691 -31.490 -53.912  0.00  0.00    -0.045 A 
ATOM      6  C   UNL A   1      56.018 -32.728 -53.373  0.00  0.00    +0.005 A 
ATOM      7  N   UNL A   1      55.090 -33.457 -52.715  0.00  0.00    -0.348 N 
ATOM      8  C   UNL A   1      53.826 -32.991 -52.558  0.00  0.00    +0.012 A 
BRANCH   7   9
ATOM      9  C   UNL A   1      55.455 -34.782 -52.148  0.00  0.00    +0.048 C 
BRANCH   9  10
ATOM     10  C   UNL A   1      55.553 -34.720 -50.646  0.00  0.00    -0.028 A 
ATOM     11  C   UNL A   1      54.761 -35.565 -49.850  0.00  0.00    -0.057 A 
ATOM     12  C   UNL A   1      54.860 -35.520 -48.459  0.00  0.00    -0.061 A 
ATOM     13  C   UNL A   1      55.743 -34.633 -47.848  0.00  0.00    -0.062 A 
ATOM     14  C   UNL A   1      56.526 -33.785 -48.626  0.00  0.00    -0.061 A 
ATOM     15  C   UNL A   1      56.432 -33.824 -50.018  0.00  0.00    -0.057 A 
ENDBRANCH   9  10
ENDBRANCH   7   9
ENDBRANCH   2   3
BRANCH   1  16
ATOM     16  C   UNL A   1      49.645 -31.191 -53.599  0.00  0.00    +0.221 C 
ATOM     17  O   UNL A   1      49.581 -29.960 -53.613  0.00  0.00    -0.284 OA
BRANCH  16  24
ATOM     18  C   UNL A   1      47.302 -35.420 -53.833  0.00  0.00    +0.163 A 
ATOM     19  C   UNL A   1      45.971 -35.846 -53.721  0.00  0.00    -0.016 A 
ATOM     20  C   UNL A   1      44.929 -34.942 -53.479  0.00  0.00    -0.058 A 
ATOM     21  C   UNL A   1      45.175 -33.570 -53.345  0.00  0.00    -0.051 A 
ATOM     22  C   UNL A   1      46.499 -33.114 -53.459  0.00  0.00    +0.025 A 
ATOM     23  C   UNL A   1      47.141 -31.848 -53.386  0.00  0.00    -0.005 A 
ATOM     24  C   UNL A   1      48.494 -32.067 -53.578  0.00  0.00    +0.176 A 
ATOM     25  O   UNL A   1      48.712 -33.405 -53.755  0.00  0.00    -0.448 OA
ATOM     26  C   UNL A   1      47.506 -34.041 -53.692  0.00  0.00    +0.177 A 
BRANCH  18  28
ATOM     27  C   UNL A   1      48.160 -37.414 -54.799  0.00  0.00    +0.079 C 
ATOM     28  O   UNL A   1      48.386 -36.215 -54.072  0.00  0.00    -0.491 OA
ENDBRANCH  18  28
ENDBRANCH  16  24
ENDBRANCH   1  16
TORSDOF 6
ENDMDL
MODEL 14
REMARK VINA RESULT:    -7.172     18.793     21.760
REMARK INTER + INTRA:         -10.280
REMARK INTER:                  -9.390
REMARK INTRA:                  -0.890
REMARK UNBOUND:                -0.592
REMARK  Name = cpd329.pdb
REMARK  7 active torsions:
REMARK  status: ('A' for Active; 'I' for Inactive)
REMARK    1  A    between atoms: C_1  and  O_2
REMARK    2  A    between atoms: O_2  and  C_3
REMARK    3  A    between atoms: C_9  and  C_10
REMARK    4  A    between atoms: C_10  and  C_12
REMARK    5  A    between atoms: C_13  and  C_14
REMARK    6  A    between atoms: N_18  and  C_19
REMARK    7  A    between atoms: C_19  and  C_20
REMARK                            x       y       z     vdW  Elec       q    Type
REMARK                         _______ _______ _______ _____ _____    ______ ____
ROOT
ATOM      1  C   UNL A   1      42.274 -21.630 -38.700  0.00  0.00    -0.011 C 
ATOM      2  C   UNL A   1      42.504 -21.171 -39.940  0.00  0.00    -0.049 C 
ENDROOT
BRANCH   2   3
ATOM      3  C   UNL A   1      43.786 -20.595 -40.371  0.00  0.00    -0.009 A 
ATOM      4  C   UNL A   1      43.915 -20.118 -41.674  0.00  0.00    -0.052 A 
ATOM      5  C   UNL A   1      45.134 -19.608 -42.111  0.00  0.00    -0.045 A 
ATOM      6  C   UNL A   1      46.218 -19.594 -41.243  0.00  0.00    +0.005 A 
ATOM      7  N   UNL A   1      46.097 -20.076 -39.986  0.00  0.00    -0.348 N 
ATOM      8  C   UNL A   1      44.915 -20.572 -39.544  0.00  0.00    +0.012 A 
BRANCH   7   9
ATOM      9  C   UNL A   1      47.268 -20.059 -39.071  0.00  0.00    +0.048 C 
BRANCH   9  10
ATOM     10  C   UNL A   1      47.061 -19.082 -37.944  0.00  0.00    -0.028 A 
ATOM     11  C   UNL A   1      47.041 -19.531 -36.613  0.00  0.00    -0.057 A 
ATOM     12  C   UNL A   1      46.862 -18.627 -35.565  0.00  0.00    -0.061 A 
ATOM     13  C   UNL A   1      46.699 -17.270 -35.832  0.00  0.00    -0.062 A 
ATOM     14  C   UNL A   1      46.708 -16.814 -37.148  0.00  0.00    -0.061 A 
ATOM     15  C   UNL A   1      46.886 -17.713 -38.200  0.00  0.00    -0.057 A 
ENDBRANCH   9  10
ENDBRANCH   7   9
ENDBRANCH   2   3
BRANCH   1  16
ATOM     16  C   UNL A   1      41.012 -22.310 -38.271  0.00  0.00    +0.221 C 
ATOM     17  O   UNL A   1      40.670 -23.268 -38.965  0.00  0.00    -0.284 OA
BRANCH  16  24
ATOM     18  C   UNL A   1      38.828 -22.707 -33.970  0.00  0.00    +0.163 A 
ATOM     19  C   UNL A   1      38.178 -21.838 -33.082  0.00  0.00    -0.016 A 
ATOM     20  C   UNL A   1      38.040 -20.472 -33.361  0.00  0.00    -0.058 A 
ATOM     21  C   UNL A   1      38.543 -19.919 -34.545  0.00  0.00    -0.051 A 
ATOM     22  C   UNL A   1      39.193 -20.767 -35.456  0.00  0.00    +0.025 A 
ATOM     23  C   UNL A   1      39.820 -20.601 -36.720  0.00  0.00    -0.005 A 
ATOM     24  C   UNL A   1      40.288 -21.844 -37.109  0.00  0.00    +0.176 A 
ATOM     25  O   UNL A   1      39.987 -22.761 -36.140  0.00  0.00    -0.448 OA
ATOM     26  C   UNL A   1      39.317 -22.115 -35.142  0.00  0.00    +0.177 A 
BRANCH  18  28
ATOM     27  C   UNL A   1      37.845 -24.859 -33.754  0.00  0.00    +0.079 C 
ATOM     28  O   UNL A   1      39.011 -24.049 -33.797  0.00  0.00    -0.491 OA
ENDBRANCH  18  28
ENDBRANCH  16  24
ENDBRANCH   1  16
TORSDOF 6
ENDMDL
MODEL 15
REMARK VINA RESULT:    -7.146      7.029     11.113
REMARK INTER + INTRA:         -10.245
REMARK INTER:                  -9.518
REMARK INTRA:                  -0.727
REMARK UNBOUND:                -0.592
REMARK  Name = cpd329.pdb
REMARK  7 active torsions:
REMARK  status: ('A' for Active; 'I' for Inactive)
REMARK    1  A    between atoms: C_1  and  O_2
REMARK    2  A    between atoms: O_2  and  C_3
REMARK    3  A    between atoms: C_9  and  C_10
REMARK    4  A    between atoms: C_10  and  C_12
REMARK    5  A    between atoms: C_13  and  C_14
REMARK    6  A    between atoms: N_18  and  C_19
REMARK    7  A    between atoms: C_19  and  C_20
REMARK                            x       y       z     vdW  Elec       q    Type
REMARK                         _______ _______ _______ _____ _____    ______ ____
ROOT
ATOM      1  C   UNL A   1      34.402 -37.509 -26.709  0.00  0.00    -0.011 C 
ATOM      2  C   UNL A   1      33.990 -38.536 -25.949  0.00  0.00    -0.049 C 
ENDROOT
BRANCH   2   3
ATOM      3  C   UNL A   1      33.475 -38.380 -24.581  0.00  0.00    -0.009 A 
ATOM      4  C   UNL A   1      33.129 -37.109 -24.125  0.00  0.00    -0.052 A 
ATOM      5  C   UNL A   1      32.680 -36.938 -22.819  0.00  0.00    -0.045 A 
ATOM      6  C   UNL A   1      32.595 -38.039 -21.976  0.00  0.00    +0.005 A 
ATOM      7  N   UNL A   1      32.950 -39.267 -22.414  0.00  0.00    -0.348 N 
ATOM      8  C   UNL A   1      33.386 -39.451 -23.686  0.00  0.00    +0.012 A 
BRANCH   7   9
ATOM      9  C   UNL A   1      32.858 -40.434 -21.499  0.00  0.00    +0.048 C 
BRANCH   9  10
ATOM     10  C   UNL A   1      34.093 -40.553 -20.645  0.00  0.00    -0.028 A 
ATOM     11  C   UNL A   1      33.996 -40.475 -19.246  0.00  0.00    -0.057 A 
ATOM     12  C   UNL A   1      35.136 -40.598 -18.451  0.00  0.00    -0.061 A 
ATOM     13  C   UNL A   1      36.382 -40.796 -19.041  0.00  0.00    -0.062 A 
ATOM     14  C   UNL A   1      36.492 -40.865 -20.428  0.00  0.00    -0.061 A 
ATOM     15  C   UNL A   1      35.356 -40.742 -21.228  0.00  0.00    -0.057 A 
ENDBRANCH   9  10
ENDBRANCH   7   9
ENDBRANCH   2   3
BRANCH   1  16
ATOM     16  C   UNL A   1      34.834 -37.635 -28.136  0.00  0.00    +0.221 C 
ATOM     17  O   UNL A   1      33.919 -37.707 -28.958  0.00  0.00    -0.284 OA
BRANCH  16  24
ATOM     18  C   UNL A   1      38.777 -36.498 -30.703  0.00  0.00    +0.163 A 
ATOM     19  C   UNL A   1      40.147 -36.788 -30.634  0.00  0.00    -0.016 A 
ATOM     20  C   UNL A   1      40.674 -37.601 -29.622  0.00  0.00    -0.058 A 
ATOM     21  C   UNL A   1      39.851 -38.164 -28.640  0.00  0.00    -0.051 A 
ATOM     22  C   UNL A   1      38.473 -37.895 -28.688  0.00  0.00    +0.025 A 
ATOM     23  C   UNL A   1      37.344 -38.260 -27.905  0.00  0.00    -0.005 A 
ATOM     24  C   UNL A   1      36.239 -37.654 -28.478  0.00  0.00    +0.176 A 
ATOM     25  O   UNL A   1      36.638 -36.929 -29.566  0.00  0.00    -0.448 OA
ATOM     26  C   UNL A   1      37.987 -37.079 -29.702  0.00  0.00    +0.177 A 
BRANCH  18  28
ATOM     27  C   UNL A   1      38.596 -34.375 -31.756  0.00  0.00    +0.079 C 
ATOM     28  O   UNL A   1      38.163 -35.724 -31.646  0.00  0.00    -0.491 OA
ENDBRANCH  18  28
ENDBRANCH  16  24
ENDBRANCH   1  16
TORSDOF 6
ENDMDL
MODEL 16
REMARK VINA RESULT:    -7.137     19.046     21.762
REMARK INTER + INTRA:         -10.233
REMARK INTER:                  -9.204
REMARK INTRA:                  -1.029
REMARK UNBOUND:                -0.592
REMARK  Name = cpd329.pdb
REMARK  7 active torsions:
REMARK  status: ('A' for Active; 'I' for Inactive)
REMARK    1  A    between atoms: C_1  and  O_2
REMARK    2  A    between atoms: O_2  and  C_3
REMARK    3  A    between atoms: C_9  and  C_10
REMARK    4  A    between atoms: C_10  and  C_12
REMARK    5  A    between atoms: C_13  and  C_14
REMARK    6  A    between atoms: N_18  and  C_19
REMARK    7  A    between atoms: C_19  and  C_20
REMARK                            x       y       z     vdW  Elec       q    Type
REMARK                         _______ _______ _______ _____ _____    ______ ____
ROOT
ATOM      1  C   UNL A   1      41.542 -20.296 -39.283  0.00  0.00    -0.011 C 
ATOM      2  C   UNL A   1      42.094 -21.158 -40.152  0.00  0.00    -0.049 C 
ENDROOT
BRANCH   2   3
ATOM      3  C   UNL A   1      43.424 -20.972 -40.749  0.00  0.00    -0.009 A 
ATOM      4  C   UNL A   1      43.552 -20.966 -42.137  0.00  0.00    -0.052 A 
ATOM      5  C   UNL A   1      44.809 -20.833 -42.719  0.00  0.00    -0.045 A 
ATOM      6  C   UNL A   1      45.929 -20.722 -41.906  0.00  0.00    +0.005 A 
ATOM      7  N   UNL A   1      45.806 -20.749 -40.560  0.00  0.00    -0.348 N 
ATOM      8  C   UNL A   1      44.587 -20.873 -39.978  0.00  0.00    +0.012 A 
BRANCH   7   9
ATOM      9  C   UNL A   1      47.015 -20.634 -39.703  0.00  0.00    +0.048 C 
BRANCH   9  10
ATOM     10  C   UNL A   1      46.969 -19.384 -38.865  0.00  0.00    -0.028 A 
ATOM     11  C   UNL A   1      46.825 -18.127 -39.476  0.00  0.00    -0.057 A 
ATOM     12  C   UNL A   1      46.768 -16.968 -38.702  0.00  0.00    -0.061 A 
ATOM     13  C   UNL A   1      46.858 -17.048 -37.314  0.00  0.00    -0.062 A 
ATOM     14  C   UNL A   1      47.010 -18.288 -36.698  0.00  0.00    -0.061 A 
ATOM     15  C   UNL A   1      47.067 -19.451 -37.466  0.00  0.00    -0.057 A 
ENDBRANCH   9  10
ENDBRANCH   7   9
ENDBRANCH   2   3
BRANCH   1  16
ATOM     16  C   UNL A   1      40.236 -20.516 -38.588  0.00  0.00    +0.221 C 
ATOM     17  O   UNL A   1      39.243 -20.106 -39.191  0.00  0.00    -0.284 OA
BRANCH  16  24
ATOM     18  C   UNL A   1      41.493 -21.328 -33.984  0.00  0.00    +0.163 A 
ATOM     19  C   UNL A   1      41.103 -22.214 -32.971  0.00  0.00    -0.016 A 
ATOM     20  C   UNL A   1      40.105 -23.175 -33.181  0.00  0.00    -0.058 A 
ATOM     21  C   UNL A   1      39.458 -23.292 -34.417  0.00  0.00    -0.051 A 
ATOM     22  C   UNL A   1      39.834 -22.420 -35.453  0.00  0.00    +0.025 A 
ATOM     23  C   UNL A   1      39.433 -22.224 -36.802  0.00  0.00    -0.005 A 
ATOM     24  C   UNL A   1      40.192 -21.181 -37.304  0.00  0.00    +0.176 A 
ATOM     25  O   UNL A   1      41.030 -20.724 -36.325  0.00  0.00    -0.448 OA
ATOM     26  C   UNL A   1      40.823 -21.477 -35.206  0.00  0.00    +0.177 A 
BRANCH  18  28
ATOM     27  C   UNL A   1      42.274 -19.373 -32.882  0.00  0.00    +0.079 C 
ATOM     28  O   UNL A   1      42.454 -20.362 -33.886  0.00  0.00    -0.491 OA
ENDBRANCH  18  28
ENDBRANCH  16  24
ENDBRANCH   1  16
TORSDOF 6
ENDMDL
MODEL 17
REMARK VINA RESULT:    -6.997     18.976     21.941
REMARK INTER + INTRA:         -10.044
REMARK INTER:                  -9.696
REMARK INTRA:                  -0.347
REMARK UNBOUND:                -0.592
REMARK  Name = cpd329.pdb
REMARK  7 active torsions:
REMARK  status: ('A' for Active; 'I' for Inactive)
REMARK    1  A    between atoms: C_1  and  O_2
REMARK    2  A    between atoms: O_2  and  C_3
REMARK    3  A    between atoms: C_9  and  C_10
REMARK    4  A    between atoms: C_10  and  C_12
REMARK    5  A    between atoms: C_13  and  C_14
REMARK    6  A    between atoms: N_18  and  C_19
REMARK    7  A    between atoms: C_19  and  C_20
REMARK                            x       y       z     vdW  Elec       q    Type
REMARK                         _______ _______ _______ _____ _____    ______ ____
ROOT
ATOM      1  C   UNL A   1      41.945 -20.981 -38.178  0.00  0.00    -0.011 C 
ATOM      2  C   UNL A   1      42.563 -20.935 -39.369  0.00  0.00    -0.049 C 
ENDROOT
BRANCH   2   3
ATOM      3  C   UNL A   1      43.495 -19.870 -39.763  0.00  0.00    -0.009 A 
ATOM      4  C   UNL A   1      43.050 -18.549 -39.783  0.00  0.00    -0.052 A 
ATOM      5  C   UNL A   1      43.907 -17.533 -40.193  0.00  0.00    -0.045 A 
ATOM      6  C   UNL A   1      45.199 -17.849 -40.593  0.00  0.00    +0.005 A 
ATOM      7  N   UNL A   1      45.623 -19.133 -40.592  0.00  0.00    -0.348 N 
ATOM      8  C   UNL A   1      44.800 -20.134 -40.191  0.00  0.00    +0.012 A 
BRANCH   7   9
ATOM      9  C   UNL A   1      47.007 -19.456 -41.027  0.00  0.00    +0.048 C 
BRANCH   9  10
ATOM     10  C   UNL A   1      47.115 -20.891 -41.469  0.00  0.00    -0.028 A 
ATOM     11  C   UNL A   1      48.099 -21.729 -40.919  0.00  0.00    -0.057 A 
ATOM     12  C   UNL A   1      48.193 -23.063 -41.316  0.00  0.00    -0.061 A 
ATOM     13  C   UNL A   1      47.313 -23.574 -42.267  0.00  0.00    -0.062 A 
ATOM     14  C   UNL A   1      46.340 -22.751 -42.827  0.00  0.00    -0.061 A 
ATOM     15  C   UNL A   1      46.240 -21.415 -42.434  0.00  0.00    -0.057 A 
ENDBRANCH   9  10
ENDBRANCH   7   9
ENDBRANCH   2   3
BRANCH   1  16
ATOM     16  C   UNL A   1      41.073 -22.107 -37.721  0.00  0.00    +0.221 C 
ATOM     17  O   UNL A   1      41.109 -23.119 -38.424  0.00  0.00    -0.284 OA
BRANCH  16  24
ATOM     18  C   UNL A   1      39.468 -19.962 -33.690  0.00  0.00    +0.163 A 
ATOM     19  C   UNL A   1      38.516 -20.250 -32.702  0.00  0.00    -0.016 A 
ATOM     20  C   UNL A   1      37.745 -21.419 -32.744  0.00  0.00    -0.058 A 
ATOM     21  C   UNL A   1      37.899 -22.353 -33.775  0.00  0.00    -0.051 A 
ATOM     22  C   UNL A   1      38.850 -22.093 -34.776  0.00  0.00    +0.025 A 
ATOM     23  C   UNL A   1      39.291 -22.764 -35.949  0.00  0.00    -0.005 A 
ATOM     24  C   UNL A   1      40.270 -21.974 -36.525  0.00  0.00    +0.176 A 
ATOM     25  O   UNL A   1      40.442 -20.848 -35.769  0.00  0.00    -0.448 OA
ATOM     26  C   UNL A   1      39.591 -20.921 -34.704  0.00  0.00    +0.177 A 
BRANCH  18  28
ATOM     27  C   UNL A   1      41.285 -18.754 -32.750  0.00  0.00    +0.079 C 
ATOM     28  O   UNL A   1      40.271 -18.859 -33.740  0.00  0.00    -0.491 OA
ENDBRANCH  18  28
ENDBRANCH  16  24
ENDBRANCH   1  16
TORSDOF 6
ENDMDL
MODEL 18
REMARK VINA RESULT:    -6.904     19.308     22.096
REMARK INTER + INTRA:          -9.918
REMARK INTER:                  -9.100
REMARK INTRA:                  -0.818
REMARK UNBOUND:                -0.592
REMARK  Name = cpd329.pdb
REMARK  7 active torsions:
REMARK  status: ('A' for Active; 'I' for Inactive)
REMARK    1  A    between atoms: C_1  and  O_2
REMARK    2  A    between atoms: O_2  and  C_3
REMARK    3  A    between atoms: C_9  and  C_10
REMARK    4  A    between atoms: C_10  and  C_12
REMARK    5  A    between atoms: C_13  and  C_14
REMARK    6  A    between atoms: N_18  and  C_19
REMARK    7  A    between atoms: C_19  and  C_20
REMARK                            x       y       z     vdW  Elec       q    Type
REMARK                         _______ _______ _______ _____ _____    ______ ____
ROOT
ATOM      1  C   UNL A   1      44.593 -18.469 -35.642  0.00  0.00    -0.011 C 
ATOM      2  C   UNL A   1      44.831 -19.132 -36.785  0.00  0.00    -0.049 C 
ENDROOT
BRANCH   2   3
ATOM      3  C   UNL A   1      45.163 -18.471 -38.055  0.00  0.00    -0.009 A 
ATOM      4  C   UNL A   1      45.596 -17.146 -38.040  0.00  0.00    -0.052 A 
ATOM      5  C   UNL A   1      45.875 -16.493 -39.237  0.00  0.00    -0.045 A 
ATOM      6  C   UNL A   1      45.704 -17.167 -40.439  0.00  0.00    +0.005 A 
ATOM      7  N   UNL A   1      45.265 -18.446 -40.452  0.00  0.00    -0.348 N 
ATOM      8  C   UNL A   1      44.993 -19.098 -39.294  0.00  0.00    +0.012 A 
BRANCH   7   9
ATOM      9  C   UNL A   1      45.082 -19.152 -41.747  0.00  0.00    +0.048 C 
BRANCH   9  10
ATOM     10  C   UNL A   1      46.053 -20.296 -41.882  0.00  0.00    -0.028 A 
ATOM     11  C   UNL A   1      47.436 -20.064 -41.799  0.00  0.00    -0.057 A 
ATOM     12  C   UNL A   1      48.337 -21.123 -41.910  0.00  0.00    -0.061 A 
ATOM     13  C   UNL A   1      47.871 -22.420 -42.108  0.00  0.00    -0.062 A 
ATOM     14  C   UNL A   1      46.503 -22.661 -42.201  0.00  0.00    -0.061 A 
ATOM     15  C   UNL A   1      45.596 -21.607 -42.092  0.00  0.00    -0.057 A 
ENDBRANCH   9  10
ENDBRANCH   7   9
ENDBRANCH   2   3
BRANCH   1  16
ATOM     16  C   UNL A   1      44.353 -19.124 -34.319  0.00  0.00    +0.221 C 
ATOM     17  O   UNL A   1      45.276 -19.028 -33.509  0.00  0.00    -0.284 OA
BRANCH  16  24
ATOM     18  C   UNL A   1      40.720 -22.203 -35.187  0.00  0.00    +0.163 A 
ATOM     19  C   UNL A   1      39.545 -22.592 -34.528  0.00  0.00    -0.016 A 
ATOM     20  C   UNL A   1      39.182 -22.045 -33.290  0.00  0.00    -0.058 A 
ATOM     21  C   UNL A   1      39.979 -21.080 -32.662  0.00  0.00    -0.051 A 
ATOM     22  C   UNL A   1      41.159 -20.667 -33.302  0.00  0.00    +0.025 A 
ATOM     23  C   UNL A   1      42.201 -19.747 -33.005  0.00  0.00    -0.005 A 
ATOM     24  C   UNL A   1      43.103 -19.802 -34.053  0.00  0.00    +0.176 A 
ATOM     25  O   UNL A   1      42.669 -20.716 -34.972  0.00  0.00    -0.448 OA
ATOM     26  C   UNL A   1      41.489 -21.236 -34.525  0.00  0.00    +0.177 A 
BRANCH  18  28
ATOM     27  C   UNL A   1      40.517 -22.161 -37.554  0.00  0.00    +0.079 C 
ATOM     28  O   UNL A   1      41.160 -22.667 -36.393  0.00  0.00    -0.491 OA
ENDBRANCH  18  28
ENDBRANCH  16  24
ENDBRANCH   1  16
TORSDOF 6
ENDMDL
MODEL 19
REMARK VINA RESULT:    -6.796     19.693     22.385
REMARK INTER + INTRA:          -9.772
REMARK INTER:                  -8.907
REMARK INTRA:                  -0.865
REMARK UNBOUND:                -0.592
REMARK  Name = cpd329.pdb
REMARK  7 active torsions:
REMARK  status: ('A' for Active; 'I' for Inactive)
REMARK    1  A    between atoms: C_1  and  O_2
REMARK    2  A    between atoms: O_2  and  C_3
REMARK    3  A    between atoms: C_9  and  C_10
REMARK    4  A    between atoms: C_10  and  C_12
REMARK    5  A    between atoms: C_13  and  C_14
REMARK    6  A    between atoms: N_18  and  C_19
REMARK    7  A    between atoms: C_19  and  C_20
REMARK                            x       y       z     vdW  Elec       q    Type
REMARK                         _______ _______ _______ _____ _____    ______ ____
ROOT
ATOM      1  C   UNL A   1      44.953 -18.253 -33.881  0.00  0.00    -0.011 C 
ATOM      2  C   UNL A   1      44.577 -17.926 -35.128  0.00  0.00    -0.049 C 
ENDROOT
BRANCH   2   3
ATOM      3  C   UNL A   1      45.435 -18.098 -36.309  0.00  0.00    -0.009 A 
ATOM      4  C   UNL A   1      46.095 -16.990 -36.838  0.00  0.00    -0.052 A 
ATOM      5  C   UNL A   1      46.877 -17.127 -37.980  0.00  0.00    -0.045 A 
ATOM      6  C   UNL A   1      46.981 -18.370 -38.592  0.00  0.00    +0.005 A 
ATOM      7  N   UNL A   1      46.324 -19.439 -38.089  0.00  0.00    -0.348 N 
ATOM      8  C   UNL A   1      45.561 -19.322 -36.974  0.00  0.00    +0.012 A 
BRANCH   7   9
ATOM      9  C   UNL A   1      46.440 -20.761 -38.758  0.00  0.00    +0.048 C 
BRANCH   9  10
ATOM     10  C   UNL A   1      45.561 -20.831 -39.979  0.00  0.00    -0.028 A 
ATOM     11  C   UNL A   1      46.098 -20.585 -41.253  0.00  0.00    -0.057 A 
ATOM     12  C   UNL A   1      45.290 -20.662 -42.387  0.00  0.00    -0.061 A 
ATOM     13  C   UNL A   1      43.939 -20.980 -42.263  0.00  0.00    -0.062 A 
ATOM     14  C   UNL A   1      43.393 -21.217 -41.004  0.00  0.00    -0.061 A 
ATOM     15  C   UNL A   1      44.196 -21.141 -39.866  0.00  0.00    -0.057 A 
ENDBRANCH   9  10
ENDBRANCH   7   9
ENDBRANCH   2   3
BRANCH   1  16
ATOM     16  C   UNL A   1      44.061 -18.180 -32.682  0.00  0.00    +0.221 C 
ATOM     17  O   UNL A   1      44.511 -17.540 -31.730  0.00  0.00    -0.284 OA
BRANCH  16  24
ATOM     18  C   UNL A   1      39.251 -18.442 -32.211  0.00  0.00    +0.163 A 
ATOM     19  C   UNL A   1      38.272 -19.434 -32.363  0.00  0.00    -0.016 A 
ATOM     20  C   UNL A   1      38.605 -20.740 -32.746  0.00  0.00    -0.058 A 
ATOM     21  C   UNL A   1      39.934 -21.109 -32.988  0.00  0.00    -0.051 A 
ATOM     22  C   UNL A   1      40.937 -20.136 -32.837  0.00  0.00    +0.025 A 
ATOM     23  C   UNL A   1      42.350 -20.111 -32.984  0.00  0.00    -0.005 A 
ATOM     24  C   UNL A   1      42.765 -18.823 -32.693  0.00  0.00    +0.176 A 
ATOM     25  O   UNL A   1      41.675 -18.058 -32.385  0.00  0.00    -0.448 OA
ATOM     26  C   UNL A   1      40.567 -18.851 -32.462  0.00  0.00    +0.177 A 
BRANCH  18  28
ATOM     27  C   UNL A   1      38.511 -16.269 -32.826  0.00  0.00    +0.079 C 
ATOM     28  O   UNL A   1      39.035 -17.146 -31.838  0.00  0.00    -0.491 OA
ENDBRANCH  18  28
ENDBRANCH  16  24
ENDBRANCH   1  16
TORSDOF 6
ENDMDL
MODEL 20
REMARK VINA RESULT:    -6.502     19.292     22.146
REMARK INTER + INTRA:          -9.374
REMARK INTER:                  -8.566
REMARK INTRA:                  -0.809
REMARK UNBOUND:                -0.592
REMARK  Name = cpd329.pdb
REMARK  7 active torsions:
REMARK  status: ('A' for Active; 'I' for Inactive)
REMARK    1  A    between atoms: C_1  and  O_2
REMARK    2  A    between atoms: O_2  and  C_3
REMARK    3  A    between atoms: C_9  and  C_10
REMARK    4  A    between atoms: C_10  and  C_12
REMARK    5  A    between atoms: C_13  and  C_14
REMARK    6  A    between atoms: N_18  and  C_19
REMARK    7  A    between atoms: C_19  and  C_20
REMARK                            x       y       z     vdW  Elec       q    Type
REMARK                         _______ _______ _______ _____ _____    ______ ____
ROOT
ATOM      1  C   UNL A   1      43.707 -18.271 -34.123  0.00  0.00    -0.011 C 
ATOM      2  C   UNL A   1      44.558 -17.404 -34.695  0.00  0.00    -0.049 C 
ENDROOT
BRANCH   2   3
ATOM      3  C   UNL A   1      45.419 -17.742 -35.837  0.00  0.00    -0.009 A 
ATOM      4  C   UNL A   1      46.235 -16.755 -36.389  0.00  0.00    -0.052 A 
ATOM      5  C   UNL A   1      47.025 -17.047 -37.497  0.00  0.00    -0.045 A 
ATOM      6  C   UNL A   1      46.981 -18.319 -38.051  0.00  0.00    +0.005 A 
ATOM      7  N   UNL A   1      46.174 -19.269 -37.527  0.00  0.00    -0.348 N 
ATOM      8  C   UNL A   1      45.401 -19.002 -36.444  0.00  0.00    +0.012 A 
BRANCH   7   9
ATOM      9  C   UNL A   1      46.135 -20.625 -38.134  0.00  0.00    +0.048 C 
BRANCH   9  10
ATOM     10  C   UNL A   1      45.651 -20.566 -39.559  0.00  0.00    -0.028 A 
ATOM     11  C   UNL A   1      44.348 -20.125 -39.847  0.00  0.00    -0.057 A 
ATOM     12  C   UNL A   1      43.901 -20.057 -41.166  0.00  0.00    -0.061 A 
ATOM     13  C   UNL A   1      44.743 -20.430 -42.211  0.00  0.00    -0.062 A 
ATOM     14  C   UNL A   1      46.033 -20.878 -41.938  0.00  0.00    -0.061 A 
ATOM     15  C   UNL A   1      46.487 -20.949 -40.620  0.00  0.00    -0.057 A 
ENDBRANCH   9  10
ENDBRANCH   7   9
ENDBRANCH   2   3
BRANCH   1  16
ATOM     16  C   UNL A   1      42.751 -17.919 -33.027  0.00  0.00    +0.221 C 
ATOM     17  O   UNL A   1      43.157 -17.076 -32.226  0.00  0.00    -0.284 OA
BRANCH  16  24
ATOM     18  C   UNL A   1      39.595 -21.588 -33.149  0.00  0.00    +0.163 A 
ATOM     19  C   UNL A   1      38.210 -21.735 -32.993  0.00  0.00    -0.016 A 
ATOM     20  C   UNL A   1      37.380 -20.638 -32.729  0.00  0.00    -0.058 A 
ATOM     21  C   UNL A   1      37.903 -19.343 -32.616  0.00  0.00    -0.051 A 
ATOM     22  C   UNL A   1      39.288 -19.165 -32.774  0.00  0.00    +0.025 A 
ATOM     23  C   UNL A   1      40.174 -18.055 -32.733  0.00  0.00    -0.005 A 
ATOM     24  C   UNL A   1      41.448 -18.544 -32.963  0.00  0.00    +0.176 A 
ATOM     25  O   UNL A   1      41.386 -19.899 -33.134  0.00  0.00    -0.448 OA
ATOM     26  C   UNL A   1      40.079 -20.278 -33.028  0.00  0.00    +0.177 A 
BRANCH  18  28
ATOM     27  C   UNL A   1      40.297 -23.819 -32.732  0.00  0.00    +0.079 C 
ATOM     28  O   UNL A   1      40.488 -22.586 -33.412  0.00  0.00    -0.491 OA
ENDBRANCH  18  28
ENDBRANCH  16  24
ENDBRANCH   1  16
TORSDOF 6
ENDMDL
