MODEL 1
REMARK VINA RESULT:    -7.663      0.000      0.000
REMARK INTER + INTRA:         -13.117
REMARK INTER:                 -12.367
REMARK INTRA:                  -0.749
REMARK UNBOUND:                -0.749
REMARK  Name = cpd152.pdb
REMARK  11 active torsions:
REMARK  status: ('A' for Active; 'I' for Inactive)
REMARK    1  A    between atoms: C_2  and  C_3
REMARK    2  A    between atoms: C_3  and  S_4
REMARK    3  A    between atoms: S_4  and  C_5
REMARK    4  A    between atoms: C_5  and  C_6
REMARK    5  A    between atoms: C_6  and  N_7
REMARK    6  A    between atoms: C_6  and  C_8
REMARK    7  A    between atoms: N_10  and  C_11
REMARK    8  A    between atoms: C_11  and  C_12
REMARK    9  A    between atoms: C_12  and  C_13
REMARK   10  A    between atoms: C_13  and  N_14
REMARK   11  A    between atoms: N_14  and  C_15
REMARK                            x       y       z     vdW  Elec       q    Type
REMARK                         _______ _______ _______ _____ _____    ______ ____
ROOT
ATOM      1  C   UNL     1      36.607 -33.307 -31.540  0.00  0.00    +0.011 C 
ENDROOT
BRANCH   1   2
ATOM      2  N   UNL     1      36.505 -34.754 -31.512  0.00  0.00    -0.343 N 
ATOM      3  H   UNL     1      35.815 -35.148 -32.093  0.00  0.00    +0.000 HD
BRANCH   2   4
ATOM      4  C   UNL     1      37.266 -35.661 -30.761  0.00  0.00    +0.041 A 
ATOM      5  C   UNL     1      38.584 -36.083 -31.051  0.00  0.00    -0.005 A 
ATOM      6  C   UNL     1      39.197 -36.969 -30.147  0.00  0.00    +0.047 A 
ATOM      7  N   UNL     1      38.580 -37.478 -29.056  0.00  0.00    -0.251 NA
ATOM      8  C   UNL     1      37.333 -37.100 -28.783  0.00  0.00    +0.074 A 
ATOM      9  C   UNL     1      36.734 -37.640 -27.655  0.00  0.00    -0.017 A 
ATOM     10  C   UNL     1      35.442 -37.285 -27.281  0.00  0.00    +0.043 A 
ATOM     11 CL   UNL     1      34.732 -37.978 -25.875  0.00  0.00    -0.083 Cl
ATOM     12  C   UNL     1      34.726 -36.369 -28.034  0.00  0.00    -0.043 A 
ATOM     13  C   UNL     1      35.317 -35.821 -29.172  0.00  0.00    -0.049 A 
ATOM     14  C   UNL     1      36.625 -36.184 -29.586  0.00  0.00    +0.022 A 
ATOM     15  C   UNL     1      40.595 -37.496 -30.349  0.00  0.00    -0.010 C 
ATOM     16  C   UNL     1      41.429 -36.657 -31.303  0.00  0.00    -0.047 C 
ATOM     17  C   UNL     1      40.635 -36.423 -32.573  0.00  0.00    -0.049 C 
ATOM     18  C   UNL     1      39.360 -35.633 -32.268  0.00  0.00    -0.024 C 
ENDBRANCH   2   4
ENDBRANCH   1   2
BRANCH   1  19
ATOM     19  C   UNL     1      35.497 -32.711 -30.669  0.00  0.00    -0.022 C 
BRANCH  19  20
ATOM     20  C   UNL     1      34.140 -32.901 -31.337  0.00  0.00    +0.013 C 
BRANCH  20  23
ATOM     21  C   UNL     1      32.370 -32.245 -29.749  0.00  0.00    +0.231 C 
ATOM     22  O   UNL     1      32.616 -33.163 -28.971  0.00  0.00    -0.274 OA
ATOM     23  N   UNL     1      33.136 -31.976 -30.866  0.00  0.00    -0.314 N 
ATOM     24  H   UNL     1      32.994 -31.133 -31.354  0.00  0.00    +0.000 HD
BRANCH  21  25
ATOM     25  C   UNL     1      31.097 -31.393 -29.636  0.00  0.00    +0.091 C 
BRANCH  25  26
ATOM     26  N   UNL     1      31.381 -30.139 -28.895  0.00  0.00    -0.319 N 
ATOM     27  H   UNL     1      31.848 -30.361 -28.016  0.00  0.00    +0.000 HD
ATOM     28  H   UNL     1      30.506 -29.652 -28.702  0.00  0.00    +0.000 HD
ATOM     29  H   UNL     1      31.985 -29.540 -29.459  0.00  0.00    +0.000 HD
ENDBRANCH  25  26
BRANCH  25  30
ATOM     30  C   UNL     1      30.625 -31.109 -31.072  0.00  0.00    +0.018 C 
BRANCH  30  31
ATOM     31  S   UNL     1      28.875 -30.590 -31.145  0.00  0.00    -0.146 S 
BRANCH  31  32
ATOM     32  C   UNL     1      29.096 -28.838 -31.598  0.00  0.00    +0.055 C 
BRANCH  32  34
ATOM     33  C   UNL     1      27.936 -28.093 -33.883  0.00  0.00    -0.118 C 
ATOM     34  C   UNL     1      28.449 -28.445 -32.857  0.00  0.00    -0.095 C 
ENDBRANCH  32  34
ENDBRANCH  31  32
ENDBRANCH  30  31
ENDBRANCH  25  30
ENDBRANCH  21  25
ENDBRANCH  20  23
ENDBRANCH  19  20
ENDBRANCH   1  19
TORSDOF 11
ENDMDL
MODEL 2
REMARK VINA RESULT:    -7.662      1.874      3.877
REMARK INTER + INTRA:         -13.115
REMARK INTER:                 -12.363
REMARK INTRA:                  -0.751
REMARK UNBOUND:                -0.749
REMARK  Name = cpd152.pdb
REMARK  11 active torsions:
REMARK  status: ('A' for Active; 'I' for Inactive)
REMARK    1  A    between atoms: C_2  and  C_3
REMARK    2  A    between atoms: C_3  and  S_4
REMARK    3  A    between atoms: S_4  and  C_5
REMARK    4  A    between atoms: C_5  and  C_6
REMARK    5  A    between atoms: C_6  and  N_7
REMARK    6  A    between atoms: C_6  and  C_8
REMARK    7  A    between atoms: N_10  and  C_11
REMARK    8  A    between atoms: C_11  and  C_12
REMARK    9  A    between atoms: C_12  and  C_13
REMARK   10  A    between atoms: C_13  and  N_14
REMARK   11  A    between atoms: N_14  and  C_15
REMARK                            x       y       z     vdW  Elec       q    Type
REMARK                         _______ _______ _______ _____ _____    ______ ____
ROOT
ATOM      1  C   UNL     1      36.521 -33.386 -31.591  0.00  0.00    +0.011 C 
ENDROOT
BRANCH   1   2
ATOM      2  N   UNL     1      36.426 -34.834 -31.586  0.00  0.00    -0.343 N 
ATOM      3  H   UNL     1      35.860 -35.231 -32.287  0.00  0.00    +0.000 HD
BRANCH   2   4
ATOM      4  C   UNL     1      37.041 -35.738 -30.708  0.00  0.00    +0.041 A 
ATOM      5  C   UNL     1      36.460 -36.297 -29.547  0.00  0.00    -0.005 A 
ATOM      6  C   UNL     1      37.227 -37.224 -28.818  0.00  0.00    +0.047 A 
ATOM      7  N   UNL     1      38.498 -37.564 -29.133  0.00  0.00    -0.251 NA
ATOM      8  C   UNL     1      39.061 -37.028 -30.215  0.00  0.00    +0.074 A 
ATOM      9  C   UNL     1      40.364 -37.402 -30.509  0.00  0.00    -0.017 A 
ATOM     10  C   UNL     1      41.022 -36.911 -31.631  0.00  0.00    +0.043 A 
ATOM     11 CL   UNL     1      42.639 -37.396 -31.961  0.00  0.00    -0.083 Cl
ATOM     12  C   UNL     1      40.377 -36.036 -32.490  0.00  0.00    -0.043 A 
ATOM     13  C   UNL     1      39.067 -35.651 -32.204  0.00  0.00    -0.049 A 
ATOM     14  C   UNL     1      38.382 -36.122 -31.053  0.00  0.00    +0.022 A 
ATOM     15  C   UNL     1      36.722 -37.884 -27.560  0.00  0.00    -0.010 C 
ATOM     16  C   UNL     1      35.210 -37.841 -27.416  0.00  0.00    -0.047 C 
ATOM     17  C   UNL     1      34.737 -36.417 -27.636  0.00  0.00    -0.049 C 
ATOM     18  C   UNL     1      35.072 -35.956 -29.056  0.00  0.00    -0.024 C 
ENDBRANCH   2   4
ENDBRANCH   1   2
BRANCH   1  19
ATOM     19  C   UNL     1      35.474 -32.814 -30.630  0.00  0.00    -0.022 C 
BRANCH  19  20
ATOM     20  C   UNL     1      34.070 -33.047 -31.176  0.00  0.00    +0.013 C 
BRANCH  20  23
ATOM     21  C   UNL     1      32.332 -32.244 -29.620  0.00  0.00    +0.231 C 
ATOM     22  O   UNL     1      32.524 -33.149 -28.812  0.00  0.00    -0.274 OA
ATOM     23  N   UNL     1      33.116 -32.054 -30.741  0.00  0.00    -0.314 N 
ATOM     24  H   UNL     1      33.022 -31.220 -31.257  0.00  0.00    +0.000 HD
BRANCH  21  25
ATOM     25  C   UNL     1      31.106 -31.322 -29.543  0.00  0.00    +0.091 C 
BRANCH  25  26
ATOM     26  N   UNL     1      31.468 -30.039 -28.890  0.00  0.00    -0.319 N 
ATOM     27  H   UNL     1      32.055 -29.491 -29.519  0.00  0.00    +0.000 HD
ATOM     28  H   UNL     1      31.978 -30.228 -28.028  0.00  0.00    +0.000 HD
ATOM     29  H   UNL     1      30.619 -29.515 -28.675  0.00  0.00    +0.000 HD
ENDBRANCH  25  26
BRANCH  25  30
ATOM     30  C   UNL     1      30.621 -31.106 -30.987  0.00  0.00    +0.018 C 
BRANCH  30  31
ATOM     31  S   UNL     1      28.878 -30.567 -31.068  0.00  0.00    -0.146 S 
BRANCH  31  32
ATOM     32  C   UNL     1      29.116 -28.849 -31.630  0.00  0.00    +0.055 C 
BRANCH  32  34
ATOM     33  C   UNL     1      27.970 -28.315 -33.981  0.00  0.00    -0.118 C 
ATOM     34  C   UNL     1      28.492 -28.536 -32.923  0.00  0.00    -0.095 C 
ENDBRANCH  32  34
ENDBRANCH  31  32
ENDBRANCH  30  31
ENDBRANCH  25  30
ENDBRANCH  21  25
ENDBRANCH  20  23
ENDBRANCH  19  20
ENDBRANCH   1  19
TORSDOF 11
ENDMDL
MODEL 3
REMARK VINA RESULT:    -7.610      2.285      4.545
REMARK INTER + INTRA:         -13.030
REMARK INTER:                 -11.332
REMARK INTRA:                  -1.698
REMARK UNBOUND:                -0.749
REMARK  Name = cpd152.pdb
REMARK  11 active torsions:
REMARK  status: ('A' for Active; 'I' for Inactive)
REMARK    1  A    between atoms: C_2  and  C_3
REMARK    2  A    between atoms: C_3  and  S_4
REMARK    3  A    between atoms: S_4  and  C_5
REMARK    4  A    between atoms: C_5  and  C_6
REMARK    5  A    between atoms: C_6  and  N_7
REMARK    6  A    between atoms: C_6  and  C_8
REMARK    7  A    between atoms: N_10  and  C_11
REMARK    8  A    between atoms: C_11  and  C_12
REMARK    9  A    between atoms: C_12  and  C_13
REMARK   10  A    between atoms: C_13  and  N_14
REMARK   11  A    between atoms: N_14  and  C_15
REMARK                            x       y       z     vdW  Elec       q    Type
REMARK                         _______ _______ _______ _____ _____    ______ ____
ROOT
ATOM      1  C   UNL     1      34.042 -35.153 -31.919  0.00  0.00    +0.011 C 
ENDROOT
BRANCH   1   2
ATOM      2  N   UNL     1      35.026 -34.801 -30.915  0.00  0.00    -0.343 N 
ATOM      3  H   UNL     1      35.230 -33.841 -30.830  0.00  0.00    +0.000 HD
BRANCH   2   4
ATOM      4  C   UNL     1      35.724 -35.654 -30.049  0.00  0.00    +0.041 A 
ATOM      5  C   UNL     1      35.229 -36.210 -28.848  0.00  0.00    -0.005 A 
ATOM      6  C   UNL     1      36.072 -37.084 -28.139  0.00  0.00    +0.047 A 
ATOM      7  N   UNL     1      37.340 -37.375 -28.510  0.00  0.00    -0.251 NA
ATOM      8  C   UNL     1      37.822 -36.843 -29.632  0.00  0.00    +0.074 A 
ATOM      9  C   UNL     1      39.125 -37.165 -29.983  0.00  0.00    -0.017 A 
ATOM     10  C   UNL     1      39.703 -36.673 -31.149  0.00  0.00    +0.043 A 
ATOM     11 CL   UNL     1      41.322 -37.095 -31.550  0.00  0.00    -0.083 Cl
ATOM     12  C   UNL     1      38.977 -35.850 -31.992  0.00  0.00    -0.043 A 
ATOM     13  C   UNL     1      37.667 -35.516 -31.649  0.00  0.00    -0.049 A 
ATOM     14  C   UNL     1      37.062 -35.988 -30.454  0.00  0.00    +0.022 A 
ATOM     15  C   UNL     1      35.661 -37.735 -26.842  0.00  0.00    -0.010 C 
ATOM     16  C   UNL     1      34.157 -37.754 -26.621  0.00  0.00    -0.047 C 
ATOM     17  C   UNL     1      33.610 -36.359 -26.849  0.00  0.00    -0.049 C 
ATOM     18  C   UNL     1      33.852 -35.919 -28.294  0.00  0.00    -0.024 C 
ENDBRANCH   2   4
ENDBRANCH   1   2
BRANCH   1  19
ATOM     19  C   UNL     1      33.400 -33.873 -32.461  0.00  0.00    -0.022 C 
BRANCH  19  20
ATOM     20  C   UNL     1      34.050 -32.647 -31.831  0.00  0.00    +0.013 C 
BRANCH  20  23
ATOM     21  C   UNL     1      32.572 -31.981 -29.972  0.00  0.00    +0.231 C 
ATOM     22  O   UNL     1      33.009 -32.840 -29.211  0.00  0.00    -0.274 OA
ATOM     23  N   UNL     1      33.101 -31.742 -31.226  0.00  0.00    -0.314 N 
ATOM     24  H   UNL     1      32.824 -30.936 -31.718  0.00  0.00    +0.000 HD
BRANCH  21  25
ATOM     25  C   UNL     1      31.296 -31.182 -29.663  0.00  0.00    +0.091 C 
BRANCH  25  26
ATOM     26  N   UNL     1      31.632 -29.945 -28.915  0.00  0.00    -0.319 N 
ATOM     27  H   UNL     1      32.517 -29.570 -29.259  0.00  0.00    +0.000 HD
ATOM     28  H   UNL     1      31.717 -30.160 -27.922  0.00  0.00    +0.000 HD
ATOM     29  H   UNL     1      30.894 -29.254 -29.052  0.00  0.00    +0.000 HD
ENDBRANCH  25  26
BRANCH  25  30
ATOM     30  C   UNL     1      30.633 -30.866 -31.013  0.00  0.00    +0.018 C 
BRANCH  30  31
ATOM     31  S   UNL     1      29.077 -31.789 -31.264  0.00  0.00    -0.146 S 
BRANCH  31  32
ATOM     32  C   UNL     1      29.732 -33.267 -32.106  0.00  0.00    +0.055 C 
BRANCH  32  34
ATOM     33  C   UNL     1      30.427 -35.262 -30.475  0.00  0.00    -0.118 C 
ATOM     34  C   UNL     1      30.096 -34.372 -31.208  0.00  0.00    -0.095 C 
ENDBRANCH  32  34
ENDBRANCH  31  32
ENDBRANCH  30  31
ENDBRANCH  25  30
ENDBRANCH  21  25
ENDBRANCH  20  23
ENDBRANCH  19  20
ENDBRANCH   1  19
TORSDOF 11
ENDMDL
MODEL 4
REMARK VINA RESULT:    -7.565      6.008     11.367
REMARK INTER + INTRA:         -12.958
REMARK INTER:                 -12.278
REMARK INTRA:                  -0.680
REMARK UNBOUND:                -0.749
REMARK  Name = cpd152.pdb
REMARK  11 active torsions:
REMARK  status: ('A' for Active; 'I' for Inactive)
REMARK    1  A    between atoms: C_2  and  C_3
REMARK    2  A    between atoms: C_3  and  S_4
REMARK    3  A    between atoms: S_4  and  C_5
REMARK    4  A    between atoms: C_5  and  C_6
REMARK    5  A    between atoms: C_6  and  N_7
REMARK    6  A    between atoms: C_6  and  C_8
REMARK    7  A    between atoms: N_10  and  C_11
REMARK    8  A    between atoms: C_11  and  C_12
REMARK    9  A    between atoms: C_12  and  C_13
REMARK   10  A    between atoms: C_13  and  N_14
REMARK   11  A    between atoms: N_14  and  C_15
REMARK                            x       y       z     vdW  Elec       q    Type
REMARK                         _______ _______ _______ _____ _____    ______ ____
ROOT
ATOM      1  C   UNL     1      39.461 -37.004 -30.575  0.00  0.00    +0.011 C 
ENDROOT
BRANCH   1   2
ATOM      2  N   UNL     1      38.393 -37.039 -29.595  0.00  0.00    -0.343 N 
ATOM      3  H   UNL     1      38.657 -36.862 -28.663  0.00  0.00    +0.000 HD
BRANCH   2   4
ATOM      4  C   UNL     1      37.030 -37.292 -29.808  0.00  0.00    +0.041 A 
ATOM      5  C   UNL     1      36.091 -36.387 -30.354  0.00  0.00    -0.005 A 
ATOM      6  C   UNL     1      34.773 -36.847 -30.531  0.00  0.00    +0.047 A 
ATOM      7  N   UNL     1      34.347 -38.075 -30.158  0.00  0.00    -0.251 NA
ATOM      8  C   UNL     1      35.220 -38.928 -29.626  0.00  0.00    +0.074 A 
ATOM      9  C   UNL     1      34.748 -40.179 -29.258  0.00  0.00    -0.017 A 
ATOM     10  C   UNL     1      35.594 -41.142 -28.716  0.00  0.00    +0.043 A 
ATOM     11 CL   UNL     1      34.971 -42.682 -28.270  0.00  0.00    -0.083 Cl
ATOM     12  C   UNL     1      36.939 -40.865 -28.540  0.00  0.00    -0.043 A 
ATOM     13  C   UNL     1      37.426 -39.610 -28.903  0.00  0.00    -0.049 A 
ATOM     14  C   UNL     1      36.578 -38.605 -29.438  0.00  0.00    +0.022 A 
ATOM     15  C   UNL     1      33.680 -35.976 -31.098  0.00  0.00    -0.010 C 
ATOM     16  C   UNL     1      34.198 -34.779 -31.877  0.00  0.00    -0.047 C 
ATOM     17  C   UNL     1      35.232 -34.056 -31.037  0.00  0.00    -0.049 C 
ATOM     18  C   UNL     1      36.427 -34.970 -30.757  0.00  0.00    -0.024 C 
ENDBRANCH   2   4
ENDBRANCH   1   2
BRANCH   1  19
ATOM     19  C   UNL     1      40.771 -37.423 -29.901  0.00  0.00    -0.022 C 
BRANCH  19  20
ATOM     20  C   UNL     1      41.690 -38.106 -30.906  0.00  0.00    +0.013 C 
BRANCH  20  23
ATOM     21  C   UNL     1      44.045 -38.455 -30.258  0.00  0.00    +0.231 C 
ATOM     22  O   UNL     1      44.381 -37.312 -30.559  0.00  0.00    -0.274 OA
ATOM     23  N   UNL     1      42.734 -38.889 -30.288  0.00  0.00    -0.314 N 
ATOM     24  H   UNL     1      42.505 -39.755 -29.878  0.00  0.00    +0.000 HD
BRANCH  21  25
ATOM     25  C   UNL     1      45.070 -39.560 -29.960  0.00  0.00    +0.091 C 
BRANCH  25  26
ATOM     26  N   UNL     1      46.277 -38.982 -29.319  0.00  0.00    -0.319 N 
ATOM     27  H   UNL     1      47.106 -39.249 -29.851  0.00  0.00    +0.000 HD
ATOM     28  H   UNL     1      46.357 -39.333 -28.365  0.00  0.00    +0.000 HD
ATOM     29  H   UNL     1      46.199 -37.964 -29.302  0.00  0.00    +0.000 HD
ENDBRANCH  25  26
BRANCH  25  30
ATOM     30  C   UNL     1      44.372 -40.575 -29.040  0.00  0.00    +0.018 C 
BRANCH  30  31
ATOM     31  S   UNL     1      44.971 -42.281 -29.296  0.00  0.00    -0.146 S 
BRANCH  31  32
ATOM     32  C   UNL     1      44.944 -42.344 -31.118  0.00  0.00    +0.055 C 
BRANCH  32  34
ATOM     33  C   UNL     1      47.364 -42.541 -32.227  0.00  0.00    -0.118 C 
ATOM     34  C   UNL     1      46.268 -42.453 -31.746  0.00  0.00    -0.095 C 
ENDBRANCH  32  34
ENDBRANCH  31  32
ENDBRANCH  30  31
ENDBRANCH  25  30
ENDBRANCH  21  25
ENDBRANCH  20  23
ENDBRANCH  19  20
ENDBRANCH   1  19
TORSDOF 11
ENDMDL
MODEL 5
REMARK VINA RESULT:    -7.388      2.431      3.555
REMARK INTER + INTRA:         -12.672
REMARK INTER:                 -10.906
REMARK INTRA:                  -1.766
REMARK UNBOUND:                -0.749
REMARK  Name = cpd152.pdb
REMARK  11 active torsions:
REMARK  status: ('A' for Active; 'I' for Inactive)
REMARK    1  A    between atoms: C_2  and  C_3
REMARK    2  A    between atoms: C_3  and  S_4
REMARK    3  A    between atoms: S_4  and  C_5
REMARK    4  A    between atoms: C_5  and  C_6
REMARK    5  A    between atoms: C_6  and  N_7
REMARK    6  A    between atoms: C_6  and  C_8
REMARK    7  A    between atoms: N_10  and  C_11
REMARK    8  A    between atoms: C_11  and  C_12
REMARK    9  A    between atoms: C_12  and  C_13
REMARK   10  A    between atoms: C_13  and  N_14
REMARK   11  A    between atoms: N_14  and  C_15
REMARK                            x       y       z     vdW  Elec       q    Type
REMARK                         _______ _______ _______ _____ _____    ______ ____
ROOT
ATOM      1  C   UNL     1      35.527 -33.090 -30.903  0.00  0.00    +0.011 C 
ENDROOT
BRANCH   1   2
ATOM      2  N   UNL     1      35.656 -34.503 -31.203  0.00  0.00    -0.343 N 
ATOM      3  H   UNL     1      35.093 -34.840 -31.938  0.00  0.00    +0.000 HD
BRANCH   2   4
ATOM      4  C   UNL     1      36.480 -35.449 -30.578  0.00  0.00    +0.041 A 
ATOM      5  C   UNL     1      37.772 -35.837 -31.000  0.00  0.00    -0.005 A 
ATOM      6  C   UNL     1      38.461 -36.774 -30.209  0.00  0.00    +0.047 A 
ATOM      7  N   UNL     1      37.937 -37.361 -29.109  0.00  0.00    -0.251 NA
ATOM      8  C   UNL     1      36.713 -37.016 -28.713  0.00  0.00    +0.074 A 
ATOM      9  C   UNL     1      36.209 -37.637 -27.579  0.00  0.00    -0.017 A 
ATOM     10  C   UNL     1      34.949 -37.322 -27.081  0.00  0.00    +0.043 A 
ATOM     11 CL   UNL     1      34.359 -38.115 -25.673  0.00  0.00    -0.083 Cl
ATOM     12  C   UNL     1      34.171 -36.366 -27.711  0.00  0.00    -0.043 A 
ATOM     13  C   UNL     1      34.665 -35.737 -28.853  0.00  0.00    -0.049 A 
ATOM     14  C   UNL     1      35.938 -36.056 -29.393  0.00  0.00    +0.022 A 
ATOM     15  C   UNL     1      39.842 -37.271 -30.556  0.00  0.00    -0.010 C 
ATOM     16  C   UNL     1      40.591 -36.361 -31.515  0.00  0.00    -0.047 C 
ATOM     17  C   UNL     1      39.696 -36.052 -32.699  0.00  0.00    -0.049 C 
ATOM     18  C   UNL     1      38.446 -35.299 -32.241  0.00  0.00    -0.024 C 
ENDBRANCH   2   4
ENDBRANCH   1   2
BRANCH   1  19
ATOM     19  C   UNL     1      34.222 -32.567 -31.510  0.00  0.00    -0.022 C 
BRANCH  19  20
ATOM     20  C   UNL     1      33.504 -31.658 -30.520  0.00  0.00    +0.013 C 
BRANCH  20  23
ATOM     21  C   UNL     1      31.599 -32.770 -29.415  0.00  0.00    +0.231 C 
ATOM     22  O   UNL     1      32.273 -33.155 -28.463  0.00  0.00    -0.274 OA
ATOM     23  N   UNL     1      32.093 -31.939 -30.403  0.00  0.00    -0.314 N 
ATOM     24  H   UNL     1      31.467 -31.528 -31.042  0.00  0.00    +0.000 HD
BRANCH  21  25
ATOM     25  C   UNL     1      30.180 -33.293 -29.681  0.00  0.00    +0.091 C 
BRANCH  25  26
ATOM     26  N   UNL     1      29.252 -32.161 -29.926  0.00  0.00    -0.319 N 
ATOM     27  H   UNL     1      28.301 -32.516 -30.025  0.00  0.00    +0.000 HD
ATOM     28  H   UNL     1      29.524 -31.676 -30.780  0.00  0.00    +0.000 HD
ATOM     29  H   UNL     1      29.291 -31.512 -29.139  0.00  0.00    +0.000 HD
ENDBRANCH  25  26
BRANCH  25  30
ATOM     30  C   UNL     1      30.272 -34.224 -30.902  0.00  0.00    +0.018 C 
BRANCH  30  31
ATOM     31  S   UNL     1      31.160 -35.776 -30.535  0.00  0.00    -0.146 S 
BRANCH  31  32
ATOM     32  C   UNL     1      32.337 -35.791 -31.927  0.00  0.00    +0.055 C 
BRANCH  32  34
ATOM     33  C   UNL     1      33.978 -37.895 -32.003  0.00  0.00    -0.118 C 
ATOM     34  C   UNL     1      33.225 -36.961 -31.965  0.00  0.00    -0.095 C 
ENDBRANCH  32  34
ENDBRANCH  31  32
ENDBRANCH  30  31
ENDBRANCH  25  30
ENDBRANCH  21  25
ENDBRANCH  20  23
ENDBRANCH  19  20
ENDBRANCH   1  19
TORSDOF 11
ENDMDL
MODEL 6
REMARK VINA RESULT:    -7.196      1.580      2.428
REMARK INTER + INTRA:         -12.362
REMARK INTER:                 -11.529
REMARK INTRA:                  -0.834
REMARK UNBOUND:                -0.749
REMARK  Name = cpd152.pdb
REMARK  11 active torsions:
REMARK  status: ('A' for Active; 'I' for Inactive)
REMARK    1  A    between atoms: C_2  and  C_3
REMARK    2  A    between atoms: C_3  and  S_4
REMARK    3  A    between atoms: S_4  and  C_5
REMARK    4  A    between atoms: C_5  and  C_6
REMARK    5  A    between atoms: C_6  and  N_7
REMARK    6  A    between atoms: C_6  and  C_8
REMARK    7  A    between atoms: N_10  and  C_11
REMARK    8  A    between atoms: C_11  and  C_12
REMARK    9  A    between atoms: C_12  and  C_13
REMARK   10  A    between atoms: C_13  and  N_14
REMARK   11  A    between atoms: N_14  and  C_15
REMARK                            x       y       z     vdW  Elec       q    Type
REMARK                         _______ _______ _______ _____ _____    ______ ____
ROOT
ATOM      1  C   UNL     1      34.625 -35.421 -32.392  0.00  0.00    +0.011 C 
ENDROOT
BRANCH   1   2
ATOM      2  N   UNL     1      35.796 -34.963 -31.668  0.00  0.00    -0.343 N 
ATOM      3  H   UNL     1      35.982 -33.997 -31.719  0.00  0.00    +0.000 HD
BRANCH   2   4
ATOM      4  C   UNL     1      36.694 -35.722 -30.906  0.00  0.00    +0.041 A 
ATOM      5  C   UNL     1      38.038 -36.006 -31.241  0.00  0.00    -0.005 A 
ATOM      6  C   UNL     1      38.794 -36.751 -30.318  0.00  0.00    +0.047 A 
ATOM      7  N   UNL     1      38.295 -37.255 -29.167  0.00  0.00    -0.251 NA
ATOM      8  C   UNL     1      37.025 -37.008 -28.851  0.00  0.00    +0.074 A 
ATOM      9  C   UNL     1      36.548 -37.538 -27.661  0.00  0.00    -0.017 A 
ATOM     10  C   UNL     1      35.241 -37.312 -27.240  0.00  0.00    +0.043 A 
ATOM     11 CL   UNL     1      34.686 -37.987 -25.759  0.00  0.00    -0.083 Cl
ATOM     12  C   UNL     1      34.387 -36.538 -28.008  0.00  0.00    -0.043 A 
ATOM     13  C   UNL     1      34.854 -36.002 -29.207  0.00  0.00    -0.049 A 
ATOM     14  C   UNL     1      36.176 -36.236 -29.668  0.00  0.00    +0.022 A 
ATOM     15  C   UNL     1      40.235 -37.123 -30.563  0.00  0.00    -0.010 C 
ATOM     16  C   UNL     1      40.917 -36.258 -31.610  0.00  0.00    -0.047 C 
ATOM     17  C   UNL     1      40.042 -36.204 -32.847  0.00  0.00    -0.049 C 
ATOM     18  C   UNL     1      38.698 -35.550 -32.522  0.00  0.00    -0.024 C 
ENDBRANCH   2   4
ENDBRANCH   1   2
BRANCH   1  19
ATOM     19  C   UNL     1      33.531 -34.354 -32.300  0.00  0.00    -0.022 C 
BRANCH  19  20
ATOM     20  C   UNL     1      34.121 -33.030 -31.828  0.00  0.00    +0.013 C 
BRANCH  20  23
ATOM     21  C   UNL     1      32.468 -31.985 -30.325  0.00  0.00    +0.231 C 
ATOM     22  O   UNL     1      32.821 -32.642 -29.349  0.00  0.00    -0.274 OA
ATOM     23  N   UNL     1      33.121 -32.028 -31.541  0.00  0.00    -0.314 N 
ATOM     24  H   UNL     1      32.900 -31.359 -32.229  0.00  0.00    +0.000 HD
BRANCH  21  25
ATOM     25  C   UNL     1      31.172 -31.159 -30.333  0.00  0.00    +0.091 C 
BRANCH  25  26
ATOM     26  N   UNL     1      31.481 -29.721 -30.530  0.00  0.00    -0.319 N 
ATOM     27  H   UNL     1      30.617 -29.180 -30.494  0.00  0.00    +0.000 HD
ATOM     28  H   UNL     1      31.926 -29.590 -31.437  0.00  0.00    +0.000 HD
ATOM     29  H   UNL     1      32.111 -29.404 -29.792  0.00  0.00    +0.000 HD
ENDBRANCH  25  26
BRANCH  25  30
ATOM     30  C   UNL     1      30.300 -31.713 -31.472  0.00  0.00    +0.018 C 
BRANCH  30  31
ATOM     31  S   UNL     1      28.628 -32.184 -30.910  0.00  0.00    -0.146 S 
BRANCH  31  32
ATOM     32  C   UNL     1      28.894 -32.157 -29.106  0.00  0.00    +0.055 C 
BRANCH  32  34
ATOM     33  C   UNL     1      28.749 -34.531 -27.895  0.00  0.00    -0.118 C 
ATOM     34  C   UNL     1      28.816 -33.473 -28.457  0.00  0.00    -0.095 C 
ENDBRANCH  32  34
ENDBRANCH  31  32
ENDBRANCH  30  31
ENDBRANCH  25  30
ENDBRANCH  21  25
ENDBRANCH  20  23
ENDBRANCH  19  20
ENDBRANCH   1  19
TORSDOF 11
ENDMDL
MODEL 7
REMARK VINA RESULT:    -7.115      2.825      5.089
REMARK INTER + INTRA:         -12.232
REMARK INTER:                 -10.981
REMARK INTRA:                  -1.252
REMARK UNBOUND:                -0.749
REMARK  Name = cpd152.pdb
REMARK  11 active torsions:
REMARK  status: ('A' for Active; 'I' for Inactive)
REMARK    1  A    between atoms: C_2  and  C_3
REMARK    2  A    between atoms: C_3  and  S_4
REMARK    3  A    between atoms: S_4  and  C_5
REMARK    4  A    between atoms: C_5  and  C_6
REMARK    5  A    between atoms: C_6  and  N_7
REMARK    6  A    between atoms: C_6  and  C_8
REMARK    7  A    between atoms: N_10  and  C_11
REMARK    8  A    between atoms: C_11  and  C_12
REMARK    9  A    between atoms: C_12  and  C_13
REMARK   10  A    between atoms: C_13  and  N_14
REMARK   11  A    between atoms: N_14  and  C_15
REMARK                            x       y       z     vdW  Elec       q    Type
REMARK                         _______ _______ _______ _____ _____    ______ ____
ROOT
ATOM      1  C   UNL     1      36.372 -33.541 -31.087  0.00  0.00    +0.011 C 
ENDROOT
BRANCH   1   2
ATOM      2  N   UNL     1      36.810 -34.840 -31.560  0.00  0.00    -0.343 N 
ATOM      3  H   UNL     1      36.602 -35.049 -32.500  0.00  0.00    +0.000 HD
BRANCH   2   4
ATOM      4  C   UNL     1      37.492 -35.836 -30.848  0.00  0.00    +0.041 A 
ATOM      5  C   UNL     1      36.905 -36.811 -30.009  0.00  0.00    -0.005 A 
ATOM      6  C   UNL     1      37.760 -37.757 -29.414  0.00  0.00    +0.047 A 
ATOM      7  N   UNL     1      39.106 -37.749 -29.553  0.00  0.00    -0.251 NA
ATOM      8  C   UNL     1      39.670 -36.823 -30.327  0.00  0.00    +0.074 A 
ATOM      9  C   UNL     1      41.051 -36.848 -30.448  0.00  0.00    -0.017 A 
ATOM     10  C   UNL     1      41.724 -35.934 -31.253  0.00  0.00    +0.043 A 
ATOM     11 CL   UNL     1      43.438 -35.995 -31.377  0.00  0.00    -0.083 Cl
ATOM     12  C   UNL     1      41.015 -34.977 -31.961  0.00  0.00    -0.043 A 
ATOM     13  C   UNL     1      39.626 -34.940 -31.845  0.00  0.00    -0.049 A 
ATOM     14  C   UNL     1      38.920 -35.849 -31.014  0.00  0.00    +0.022 A 
ATOM     15  C   UNL     1      37.256 -38.842 -28.496  0.00  0.00    -0.010 C 
ATOM     16  C   UNL     1      35.769 -39.120 -28.642  0.00  0.00    -0.047 C 
ATOM     17  C   UNL     1      35.015 -37.807 -28.570  0.00  0.00    -0.049 C 
ATOM     18  C   UNL     1      35.423 -36.892 -29.726  0.00  0.00    -0.024 C 
ENDBRANCH   2   4
ENDBRANCH   1   2
BRANCH   1  19
ATOM     19  C   UNL     1      34.841 -33.515 -31.046  0.00  0.00    -0.022 C 
BRANCH  19  20
ATOM     20  C   UNL     1      34.323 -32.147 -31.474  0.00  0.00    +0.013 C 
BRANCH  20  23
ATOM     21  C   UNL     1      32.090 -31.376 -30.765  0.00  0.00    +0.231 C 
ATOM     22  O   UNL     1      32.538 -30.572 -29.951  0.00  0.00    -0.274 OA
ATOM     23  N   UNL     1      32.888 -32.100 -31.629  0.00  0.00    -0.314 N 
ATOM     24  H   UNL     1      32.468 -32.597 -32.368  0.00  0.00    +0.000 HD
BRANCH  21  25
ATOM     25  C   UNL     1      30.604 -31.764 -30.801  0.00  0.00    +0.091 C 
BRANCH  25  26
ATOM     26  N   UNL     1      29.896 -30.991 -31.852  0.00  0.00    -0.319 N 
ATOM     27  H   UNL     1      30.097 -31.396 -32.766  0.00  0.00    +0.000 HD
ATOM     28  H   UNL     1      30.213 -30.022 -31.832  0.00  0.00    +0.000 HD
ATOM     29  H   UNL     1      28.891 -31.023 -31.679  0.00  0.00    +0.000 HD
ENDBRANCH  25  26
BRANCH  25  30
ATOM     30  C   UNL     1      30.548 -33.276 -31.077  0.00  0.00    +0.018 C 
BRANCH  30  31
ATOM     31  S   UNL     1      30.250 -34.254 -29.563  0.00  0.00    -0.146 S 
BRANCH  31  32
ATOM     32  C   UNL     1      31.911 -34.966 -29.327  0.00  0.00    +0.055 C 
BRANCH  32  34
ATOM     33  C   UNL     1      32.409 -35.837 -26.854  0.00  0.00    -0.118 C 
ATOM     34  C   UNL     1      32.191 -35.427 -27.961  0.00  0.00    -0.095 C 
ENDBRANCH  32  34
ENDBRANCH  31  32
ENDBRANCH  30  31
ENDBRANCH  25  30
ENDBRANCH  21  25
ENDBRANCH  20  23
ENDBRANCH  19  20
ENDBRANCH   1  19
TORSDOF 11
ENDMDL
MODEL 8
REMARK VINA RESULT:    -7.057      4.568      6.504
REMARK INTER + INTRA:         -12.138
REMARK INTER:                 -10.726
REMARK INTRA:                  -1.412
REMARK UNBOUND:                -0.749
REMARK  Name = cpd152.pdb
REMARK  11 active torsions:
REMARK  status: ('A' for Active; 'I' for Inactive)
REMARK    1  A    between atoms: C_2  and  C_3
REMARK    2  A    between atoms: C_3  and  S_4
REMARK    3  A    between atoms: S_4  and  C_5
REMARK    4  A    between atoms: C_5  and  C_6
REMARK    5  A    between atoms: C_6  and  N_7
REMARK    6  A    between atoms: C_6  and  C_8
REMARK    7  A    between atoms: N_10  and  C_11
REMARK    8  A    between atoms: C_11  and  C_12
REMARK    9  A    between atoms: C_12  and  C_13
REMARK   10  A    between atoms: C_13  and  N_14
REMARK   11  A    between atoms: N_14  and  C_15
REMARK                            x       y       z     vdW  Elec       q    Type
REMARK                         _______ _______ _______ _____ _____    ______ ____
ROOT
ATOM      1  C   UNL     1      37.545 -39.479 -28.539  0.00  0.00    +0.011 C 
ENDROOT
BRANCH   1   2
ATOM      2  N   UNL     1      37.692 -38.042 -28.402  0.00  0.00    -0.343 N 
ATOM      3  H   UNL     1      37.635 -37.689 -27.485  0.00  0.00    +0.000 HD
BRANCH   2   4
ATOM      4  C   UNL     1      37.905 -37.095 -29.413  0.00  0.00    +0.041 A 
ATOM      5  C   UNL     1      39.072 -36.964 -30.200  0.00  0.00    -0.005 A 
ATOM      6  C   UNL     1      39.076 -35.973 -31.198  0.00  0.00    +0.047 A 
ATOM      7  N   UNL     1      38.056 -35.110 -31.407  0.00  0.00    -0.251 NA
ATOM      8  C   UNL     1      36.959 -35.213 -30.658  0.00  0.00    +0.074 A 
ATOM      9  C   UNL     1      35.933 -34.312 -30.902  0.00  0.00    -0.017 A 
ATOM     10  C   UNL     1      34.742 -34.360 -30.184  0.00  0.00    +0.043 A 
ATOM     11 CL   UNL     1      33.493 -33.225 -30.514  0.00  0.00    -0.083 Cl
ATOM     12  C   UNL     1      34.557 -35.325 -29.208  0.00  0.00    -0.043 A 
ATOM     13  C   UNL     1      35.582 -36.234 -28.952  0.00  0.00    -0.049 A 
ATOM     14  C   UNL     1      36.814 -36.192 -29.656  0.00  0.00    +0.022 A 
ATOM     15  C   UNL     1      40.262 -35.733 -32.098  0.00  0.00    -0.010 C 
ATOM     16  C   UNL     1      41.224 -36.907 -32.164  0.00  0.00    -0.047 C 
ATOM     17  C   UNL     1      41.560 -37.346 -30.752  0.00  0.00    -0.049 C 
ATOM     18  C   UNL     1      40.301 -37.828 -30.028  0.00  0.00    -0.024 C 
ENDBRANCH   2   4
ENDBRANCH   1   2
BRANCH   1  19
ATOM     19  C   UNL     1      36.348 -39.775 -29.447  0.00  0.00    -0.022 C 
BRANCH  19  20
ATOM     20  C   UNL     1      35.358 -40.690 -28.738  0.00  0.00    +0.013 C 
BRANCH  20  23
ATOM     21  C   UNL     1      33.656 -40.442 -26.969  0.00  0.00    +0.231 C 
ATOM     22  O   UNL     1      32.902 -41.274 -27.466  0.00  0.00    -0.274 OA
ATOM     23  N   UNL     1      34.920 -40.179 -27.459  0.00  0.00    -0.314 N 
ATOM     24  H   UNL     1      35.538 -39.631 -26.925  0.00  0.00    +0.000 HD
BRANCH  21  25
ATOM     25  C   UNL     1      33.209 -39.502 -25.838  0.00  0.00    +0.091 C 
BRANCH  25  26
ATOM     26  N   UNL     1      33.313 -40.189 -24.527  0.00  0.00    -0.319 N 
ATOM     27  H   UNL     1      33.562 -41.167 -24.675  0.00  0.00    +0.000 HD
ATOM     28  H   UNL     1      32.417 -40.137 -24.043  0.00  0.00    +0.000 HD
ATOM     29  H   UNL     1      34.032 -39.737 -23.962  0.00  0.00    +0.000 HD
ENDBRANCH  25  26
BRANCH  25  30
ATOM     30  C   UNL     1      34.121 -38.265 -25.904  0.00  0.00    +0.018 C 
BRANCH  30  31
ATOM     31  S   UNL     1      33.260 -36.732 -25.410  0.00  0.00    -0.146 S 
BRANCH  31  32
ATOM     32  C   UNL     1      31.751 -36.891 -26.420  0.00  0.00    +0.055 C 
BRANCH  32  34
ATOM     33  C   UNL     1      31.053 -34.670 -27.725  0.00  0.00    -0.118 C 
ATOM     34  C   UNL     1      31.375 -35.675 -27.155  0.00  0.00    -0.095 C 
ENDBRANCH  32  34
ENDBRANCH  31  32
ENDBRANCH  30  31
ENDBRANCH  25  30
ENDBRANCH  21  25
ENDBRANCH  20  23
ENDBRANCH  19  20
ENDBRANCH   1  19
TORSDOF 11
ENDMDL
MODEL 9
REMARK VINA RESULT:    -6.962     17.132     18.833
REMARK INTER + INTRA:         -11.984
REMARK INTER:                 -11.019
REMARK INTRA:                  -0.965
REMARK UNBOUND:                -0.749
REMARK  Name = cpd152.pdb
REMARK  11 active torsions:
REMARK  status: ('A' for Active; 'I' for Inactive)
REMARK    1  A    between atoms: C_2  and  C_3
REMARK    2  A    between atoms: C_3  and  S_4
REMARK    3  A    between atoms: S_4  and  C_5
REMARK    4  A    between atoms: C_5  and  C_6
REMARK    5  A    between atoms: C_6  and  N_7
REMARK    6  A    between atoms: C_6  and  C_8
REMARK    7  A    between atoms: N_10  and  C_11
REMARK    8  A    between atoms: C_11  and  C_12
REMARK    9  A    between atoms: C_12  and  C_13
REMARK   10  A    between atoms: C_13  and  N_14
REMARK   11  A    between atoms: N_14  and  C_15
REMARK                            x       y       z     vdW  Elec       q    Type
REMARK                         _______ _______ _______ _____ _____    ______ ____
ROOT
ATOM      1  C   UNL     1      47.276 -19.124 -37.421  0.00  0.00    +0.011 C 
ENDROOT
BRANCH   1   2
ATOM      2  N   UNL     1      46.807 -20.478 -37.645  0.00  0.00    -0.343 N 
ATOM      3  H   UNL     1      46.918 -21.102 -36.891  0.00  0.00    +0.000 HD
BRANCH   2   4
ATOM      4  C   UNL     1      46.215 -21.008 -38.799  0.00  0.00    +0.041 A 
ATOM      5  C   UNL     1      46.878 -21.726 -39.821  0.00  0.00    -0.005 A 
ATOM      6  C   UNL     1      46.096 -22.218 -40.882  0.00  0.00    +0.047 A 
ATOM      7  N   UNL     1      44.768 -21.995 -41.006  0.00  0.00    -0.251 NA
ATOM      8  C   UNL     1      44.138 -21.304 -40.058  0.00  0.00    +0.074 A 
ATOM      9  C   UNL     1      42.775 -21.097 -40.218  0.00  0.00    -0.017 A 
ATOM     10  C   UNL     1      42.032 -20.406 -39.266  0.00  0.00    +0.043 A 
ATOM     11 CL   UNL     1      40.344 -20.168 -39.500  0.00  0.00    -0.083 Cl
ATOM     12  C   UNL     1      42.646 -19.914 -38.126  0.00  0.00    -0.043 A 
ATOM     13  C   UNL     1      44.015 -20.114 -37.956  0.00  0.00    -0.049 A 
ATOM     14  C   UNL     1      44.799 -20.797 -38.922  0.00  0.00    +0.022 A 
ATOM     15  C   UNL     1      46.686 -22.993 -42.033  0.00  0.00    -0.010 C 
ATOM     16  C   UNL     1      48.049 -23.592 -41.727  0.00  0.00    -0.047 C 
ATOM     17  C   UNL     1      48.941 -22.512 -41.148  0.00  0.00    -0.049 C 
ATOM     18  C   UNL     1      48.365 -21.994 -39.828  0.00  0.00    -0.024 C 
ENDBRANCH   2   4
ENDBRANCH   1   2
BRANCH   1  19
ATOM     19  C   UNL     1      47.762 -18.996 -35.974  0.00  0.00    -0.022 C 
BRANCH  19  20
ATOM     20  C   UNL     1      46.850 -18.061 -35.189  0.00  0.00    +0.013 C 
BRANCH  20  23
ATOM     21  C   UNL     1      44.813 -18.776 -33.994  0.00  0.00    +0.231 C 
ATOM     22  O   UNL     1      45.271 -18.503 -32.887  0.00  0.00    -0.274 OA
ATOM     23  N   UNL     1      45.470 -18.486 -35.175  0.00  0.00    -0.314 N 
ATOM     24  H   UNL     1      44.985 -18.572 -36.027  0.00  0.00    +0.000 HD
BRANCH  21  25
ATOM     25  C   UNL     1      43.530 -19.601 -34.171  0.00  0.00    +0.091 C 
BRANCH  25  26
ATOM     26  N   UNL     1      43.774 -21.018 -33.804  0.00  0.00    -0.319 N 
ATOM     27  H   UNL     1      44.769 -21.157 -33.628  0.00  0.00    +0.000 HD
ATOM     28  H   UNL     1      43.476 -21.624 -34.569  0.00  0.00    +0.000 HD
ATOM     29  H   UNL     1      43.245 -21.247 -32.962  0.00  0.00    +0.000 HD
ENDBRANCH  25  26
BRANCH  25  30
ATOM     30  C   UNL     1      42.462 -18.958 -33.270  0.00  0.00    +0.018 C 
BRANCH  30  31
ATOM     31  S   UNL     1      40.764 -19.262 -33.868  0.00  0.00    -0.146 S 
BRANCH  31  32
ATOM     32  C   UNL     1      40.113 -20.224 -32.463  0.00  0.00    +0.055 C 
BRANCH  32  34
ATOM     33  C   UNL     1      40.727 -22.822 -32.475  0.00  0.00    -0.118 C 
ATOM     34  C   UNL     1      40.455 -21.653 -32.489  0.00  0.00    -0.095 C 
ENDBRANCH  32  34
ENDBRANCH  31  32
ENDBRANCH  30  31
ENDBRANCH  25  30
ENDBRANCH  21  25
ENDBRANCH  20  23
ENDBRANCH  19  20
ENDBRANCH   1  19
TORSDOF 11
ENDMDL
MODEL 10
REMARK VINA RESULT:    -6.940      3.600      6.580
REMARK INTER + INTRA:         -11.950
REMARK INTER:                 -10.148
REMARK INTRA:                  -1.801
REMARK UNBOUND:                -0.749
REMARK  Name = cpd152.pdb
REMARK  11 active torsions:
REMARK  status: ('A' for Active; 'I' for Inactive)
REMARK    1  A    between atoms: C_2  and  C_3
REMARK    2  A    between atoms: C_3  and  S_4
REMARK    3  A    between atoms: S_4  and  C_5
REMARK    4  A    between atoms: C_5  and  C_6
REMARK    5  A    between atoms: C_6  and  N_7
REMARK    6  A    between atoms: C_6  and  C_8
REMARK    7  A    between atoms: N_10  and  C_11
REMARK    8  A    between atoms: C_11  and  C_12
REMARK    9  A    between atoms: C_12  and  C_13
REMARK   10  A    between atoms: C_13  and  N_14
REMARK   11  A    between atoms: N_14  and  C_15
REMARK                            x       y       z     vdW  Elec       q    Type
REMARK                         _______ _______ _______ _____ _____    ______ ____
ROOT
ATOM      1  C   UNL     1      35.358 -33.041 -30.772  0.00  0.00    +0.011 C 
ENDROOT
BRANCH   1   2
ATOM      2  N   UNL     1      35.497 -34.468 -30.993  0.00  0.00    -0.343 N 
ATOM      3  H   UNL     1      35.241 -34.791 -31.887  0.00  0.00    +0.000 HD
BRANCH   2   4
ATOM      4  C   UNL     1      35.949 -35.443 -30.093  0.00  0.00    +0.041 A 
ATOM      5  C   UNL     1      35.223 -35.966 -28.999  0.00  0.00    -0.005 A 
ATOM      6  C   UNL     1      35.837 -36.976 -28.236  0.00  0.00    +0.047 A 
ATOM      7  N   UNL     1      37.092 -37.430 -28.455  0.00  0.00    -0.251 NA
ATOM      8  C   UNL     1      37.790 -36.930 -29.473  0.00  0.00    +0.074 A 
ATOM      9  C   UNL     1      39.073 -37.420 -29.670  0.00  0.00    -0.017 A 
ATOM     10  C   UNL     1      39.866 -36.972 -30.722  0.00  0.00    +0.043 A 
ATOM     11 CL   UNL     1      41.452 -37.603 -30.932  0.00  0.00    -0.083 Cl
ATOM     12  C   UNL     1      39.379 -36.024 -31.605  0.00  0.00    -0.043 A 
ATOM     13  C   UNL     1      38.092 -35.521 -31.417  0.00  0.00    -0.049 A 
ATOM     14  C   UNL     1      37.272 -35.946 -30.339  0.00  0.00    +0.022 A 
ATOM     15  C   UNL     1      35.169 -37.610 -27.041  0.00  0.00    -0.010 C 
ATOM     16  C   UNL     1      33.660 -37.425 -27.019  0.00  0.00    -0.047 C 
ATOM     17  C   UNL     1      33.342 -35.959 -27.238  0.00  0.00    -0.049 C 
ATOM     18  C   UNL     1      33.837 -35.505 -28.613  0.00  0.00    -0.024 C 
ENDBRANCH   2   4
ENDBRANCH   1   2
BRANCH   1  19
ATOM     19  C   UNL     1      34.291 -32.489 -31.722  0.00  0.00    -0.022 C 
BRANCH  19  20
ATOM     20  C   UNL     1      32.928 -33.087 -31.391  0.00  0.00    +0.013 C 
BRANCH  20  23
ATOM     21  C   UNL     1      31.581 -35.102 -31.853  0.00  0.00    +0.231 C 
ATOM     22  O   UNL     1      30.781 -34.872 -30.950  0.00  0.00    -0.274 OA
ATOM     23  N   UNL     1      32.589 -34.227 -32.211  0.00  0.00    -0.314 N 
ATOM     24  H   UNL     1      33.088 -34.385 -33.045  0.00  0.00    +0.000 HD
BRANCH  21  25
ATOM     25  C   UNL     1      31.631 -36.454 -32.580  0.00  0.00    +0.091 C 
BRANCH  25  26
ATOM     26  N   UNL     1      32.668 -36.430 -33.642  0.00  0.00    -0.319 N 
ATOM     27  H   UNL     1      32.344 -36.967 -34.446  0.00  0.00    +0.000 HD
ATOM     28  H   UNL     1      33.531 -36.839 -33.285  0.00  0.00    +0.000 HD
ATOM     29  H   UNL     1      32.841 -35.465 -33.926  0.00  0.00    +0.000 HD
ENDBRANCH  25  26
BRANCH  25  30
ATOM     30  C   UNL     1      31.938 -37.519 -31.514  0.00  0.00    +0.018 C 
BRANCH  30  31
ATOM     31  S   UNL     1      33.475 -38.441 -31.864  0.00  0.00    -0.146 S 
BRANCH  31  32
ATOM     32  C   UNL     1      33.681 -39.307 -30.274  0.00  0.00    +0.055 C 
BRANCH  32  34
ATOM     33  C   UNL     1      36.041 -40.526 -30.006  0.00  0.00    -0.118 C 
ATOM     34  C   UNL     1      34.974 -39.985 -30.109  0.00  0.00    -0.095 C 
ENDBRANCH  32  34
ENDBRANCH  31  32
ENDBRANCH  30  31
ENDBRANCH  25  30
ENDBRANCH  21  25
ENDBRANCH  20  23
ENDBRANCH  19  20
ENDBRANCH   1  19
TORSDOF 11
ENDMDL
MODEL 11
REMARK VINA RESULT:    -6.769     18.454     20.362
REMARK INTER + INTRA:         -11.674
REMARK INTER:                  -9.871
REMARK INTRA:                  -1.803
REMARK UNBOUND:                -0.749
REMARK  Name = cpd152.pdb
REMARK  11 active torsions:
REMARK  status: ('A' for Active; 'I' for Inactive)
REMARK    1  A    between atoms: C_2  and  C_3
REMARK    2  A    between atoms: C_3  and  S_4
REMARK    3  A    between atoms: S_4  and  C_5
REMARK    4  A    between atoms: C_5  and  C_6
REMARK    5  A    between atoms: C_6  and  N_7
REMARK    6  A    between atoms: C_6  and  C_8
REMARK    7  A    between atoms: N_10  and  C_11
REMARK    8  A    between atoms: C_11  and  C_12
REMARK    9  A    between atoms: C_12  and  C_13
REMARK   10  A    between atoms: C_13  and  N_14
REMARK   11  A    between atoms: N_14  and  C_15
REMARK                            x       y       z     vdW  Elec       q    Type
REMARK                         _______ _______ _______ _____ _____    ______ ____
ROOT
ATOM      1  C   UNL     1      46.734 -19.841 -36.645  0.00  0.00    +0.011 C 
ENDROOT
BRANCH   1   2
ATOM      2  N   UNL     1      47.345 -19.709 -37.954  0.00  0.00    -0.343 N 
ATOM      3  H   UNL     1      48.318 -19.560 -37.961  0.00  0.00    +0.000 HD
BRANCH   2   4
ATOM      4  C   UNL     1      46.724 -19.768 -39.209  0.00  0.00    +0.041 A 
ATOM      5  C   UNL     1      45.813 -18.822 -39.732  0.00  0.00    -0.005 A 
ATOM      6  C   UNL     1      45.331 -19.036 -41.036  0.00  0.00    +0.047 A 
ATOM      7  N   UNL     1      45.643 -20.117 -41.787  0.00  0.00    -0.251 NA
ATOM      8  C   UNL     1      46.487 -21.023 -41.296  0.00  0.00    +0.074 A 
ATOM      9  C   UNL     1      46.787 -22.116 -42.095  0.00  0.00    -0.017 A 
ATOM     10  C   UNL     1      47.675 -23.100 -41.673  0.00  0.00    +0.043 A 
ATOM     11 CL   UNL     1      48.020 -24.442 -42.692  0.00  0.00    -0.083 Cl
ATOM     12  C   UNL     1      48.288 -22.999 -40.435  0.00  0.00    -0.043 A 
ATOM     13  C   UNL     1      47.993 -21.906 -39.621  0.00  0.00    -0.049 A 
ATOM     14  C   UNL     1      47.074 -20.900 -40.021  0.00  0.00    +0.022 A 
ATOM     15  C   UNL     1      44.351 -18.103 -41.703  0.00  0.00    -0.010 C 
ATOM     16  C   UNL     1      44.302 -16.721 -41.072  0.00  0.00    -0.047 C 
ATOM     17  C   UNL     1      44.137 -16.872 -39.573  0.00  0.00    -0.049 C 
ATOM     18  C   UNL     1      45.340 -17.603 -38.973  0.00  0.00    -0.024 C 
ENDBRANCH   2   4
ENDBRANCH   1   2
BRANCH   1  19
ATOM     19  C   UNL     1      47.604 -19.119 -35.612  0.00  0.00    -0.022 C 
BRANCH  19  20
ATOM     20  C   UNL     1      46.783 -18.077 -34.863  0.00  0.00    +0.013 C 
BRANCH  20  23
ATOM     21  C   UNL     1      44.675 -18.470 -33.643  0.00  0.00    +0.231 C 
ATOM     22  O   UNL     1      45.141 -18.116 -32.563  0.00  0.00    -0.274 OA
ATOM     23  N   UNL     1      45.370 -18.374 -34.833  0.00  0.00    -0.314 N 
ATOM     24  H   UNL     1      44.891 -18.512 -35.682  0.00  0.00    +0.000 HD
BRANCH  21  25
ATOM     25  C   UNL     1      43.324 -19.193 -33.756  0.00  0.00    +0.091 C 
BRANCH  25  26
ATOM     26  N   UNL     1      42.322 -18.311 -34.404  0.00  0.00    -0.319 N 
ATOM     27  H   UNL     1      41.446 -18.819 -34.520  0.00  0.00    +0.000 HD
ATOM     28  H   UNL     1      42.667 -18.016 -35.317  0.00  0.00    +0.000 HD
ATOM     29  H   UNL     1      42.163 -17.489 -33.819  0.00  0.00    +0.000 HD
ENDBRANCH  25  26
BRANCH  25  30
ATOM     30  C   UNL     1      43.572 -20.468 -34.579  0.00  0.00    +0.018 C 
BRANCH  30  31
ATOM     31  S   UNL     1      42.318 -20.716 -35.883  0.00  0.00    -0.146 S 
BRANCH  31  32
ATOM     32  C   UNL     1      43.292 -20.218 -37.342  0.00  0.00    +0.055 C 
BRANCH  32  34
ATOM     33  C   UNL     1      42.161 -20.766 -39.697  0.00  0.00    -0.118 C 
ATOM     34  C   UNL     1      42.667 -20.538 -38.633  0.00  0.00    -0.095 C 
ENDBRANCH  32  34
ENDBRANCH  31  32
ENDBRANCH  30  31
ENDBRANCH  25  30
ENDBRANCH  21  25
ENDBRANCH  20  23
ENDBRANCH  19  20
ENDBRANCH   1  19
TORSDOF 11
ENDMDL
MODEL 12
REMARK VINA RESULT:    -6.719     15.963     17.752
REMARK INTER + INTRA:         -11.593
REMARK INTER:                 -10.576
REMARK INTRA:                  -1.017
REMARK UNBOUND:                -0.749
REMARK  Name = cpd152.pdb
REMARK  11 active torsions:
REMARK  status: ('A' for Active; 'I' for Inactive)
REMARK    1  A    between atoms: C_2  and  C_3
REMARK    2  A    between atoms: C_3  and  S_4
REMARK    3  A    between atoms: S_4  and  C_5
REMARK    4  A    between atoms: C_5  and  C_6
REMARK    5  A    between atoms: C_6  and  N_7
REMARK    6  A    between atoms: C_6  and  C_8
REMARK    7  A    between atoms: N_10  and  C_11
REMARK    8  A    between atoms: C_11  and  C_12
REMARK    9  A    between atoms: C_12  and  C_13
REMARK   10  A    between atoms: C_13  and  N_14
REMARK   11  A    between atoms: N_14  and  C_15
REMARK                            x       y       z     vdW  Elec       q    Type
REMARK                         _______ _______ _______ _____ _____    ______ ____
ROOT
ATOM      1  C   UNL     1      41.364 -20.710 -39.653  0.00  0.00    +0.011 C 
ENDROOT
BRANCH   1   2
ATOM      2  N   UNL     1      42.640 -20.045 -39.835  0.00  0.00    -0.343 N 
ATOM      3  H   UNL     1      42.639 -19.270 -40.443  0.00  0.00    +0.000 HD
BRANCH   2   4
ATOM      4  C   UNL     1      43.874 -20.367 -39.253  0.00  0.00    +0.041 A 
ATOM      5  C   UNL     1      44.282 -20.052 -37.937  0.00  0.00    -0.005 A 
ATOM      6  C   UNL     1      45.549 -20.504 -37.523  0.00  0.00    +0.047 A 
ATOM      7  N   UNL     1      46.412 -21.165 -38.327  0.00  0.00    -0.251 NA
ATOM      8  C   UNL     1      46.045 -21.450 -39.575  0.00  0.00    +0.074 A 
ATOM      9  C   UNL     1      46.955 -22.132 -40.369  0.00  0.00    -0.017 A 
ATOM     10  C   UNL     1      46.647 -22.491 -41.677  0.00  0.00    +0.043 A 
ATOM     11 CL   UNL     1      47.803 -23.335 -42.632  0.00  0.00    -0.083 Cl
ATOM     12  C   UNL     1      45.409 -22.177 -42.212  0.00  0.00    -0.043 A 
ATOM     13  C   UNL     1      44.487 -21.489 -41.425  0.00  0.00    -0.049 A 
ATOM     14  C   UNL     1      44.785 -21.093 -40.095  0.00  0.00    +0.022 A 
ATOM     15  C   UNL     1      46.099 -20.228 -36.146  0.00  0.00    -0.010 C 
ATOM     16  C   UNL     1      45.032 -19.861 -35.128  0.00  0.00    -0.047 C 
ATOM     17  C   UNL     1      44.155 -18.769 -35.707  0.00  0.00    -0.049 C 
ATOM     18  C   UNL     1      43.435 -19.270 -36.960  0.00  0.00    -0.024 C 
ENDBRANCH   2   4
ENDBRANCH   1   2
BRANCH   1  19
ATOM     19  C   UNL     1      41.596 -22.054 -38.955  0.00  0.00    -0.022 C 
BRANCH  19  20
ATOM     20  C   UNL     1      40.422 -22.387 -38.043  0.00  0.00    +0.013 C 
BRANCH  20  23
ATOM     21  C   UNL     1      40.042 -23.021 -35.689  0.00  0.00    +0.231 C 
ATOM     22  O   UNL     1      39.245 -23.912 -35.974  0.00  0.00    -0.274 OA
ATOM     23  N   UNL     1      40.747 -22.306 -36.638  0.00  0.00    -0.314 N 
ATOM     24  H   UNL     1      41.490 -21.728 -36.350  0.00  0.00    +0.000 HD
BRANCH  21  25
ATOM     25  C   UNL     1      40.223 -22.512 -34.251  0.00  0.00    +0.091 C 
BRANCH  25  26
ATOM     26  N   UNL     1      41.186 -23.371 -33.519  0.00  0.00    -0.319 N 
ATOM     27  H   UNL     1      41.412 -24.188 -34.085  0.00  0.00    +0.000 HD
ATOM     28  H   UNL     1      40.772 -23.672 -32.637  0.00  0.00    +0.000 HD
ATOM     29  H   UNL     1      42.039 -22.842 -33.331  0.00  0.00    +0.000 HD
ENDBRANCH  25  26
BRANCH  25  30
ATOM     30  C   UNL     1      40.723 -21.061 -34.354  0.00  0.00    +0.018 C 
BRANCH  30  31
ATOM     31  S   UNL     1      40.778 -20.221 -32.734  0.00  0.00    -0.146 S 
BRANCH  31  32
ATOM     32  C   UNL     1      39.254 -19.227 -32.853  0.00  0.00    +0.055 C 
BRANCH  32  34
ATOM     33  C   UNL     1      36.994 -20.646 -32.772  0.00  0.00    -0.118 C 
ATOM     34  C   UNL     1      38.009 -20.006 -32.789  0.00  0.00    -0.095 C 
ENDBRANCH  32  34
ENDBRANCH  31  32
ENDBRANCH  30  31
ENDBRANCH  25  30
ENDBRANCH  21  25
ENDBRANCH  20  23
ENDBRANCH  19  20
ENDBRANCH   1  19
TORSDOF 11
ENDMDL
MODEL 13
REMARK VINA RESULT:    -6.622     16.520     18.279
REMARK INTER + INTRA:         -11.436
REMARK INTER:                 -10.157
REMARK INTRA:                  -1.279
REMARK UNBOUND:                -0.749
REMARK  Name = cpd152.pdb
REMARK  11 active torsions:
REMARK  status: ('A' for Active; 'I' for Inactive)
REMARK    1  A    between atoms: C_2  and  C_3
REMARK    2  A    between atoms: C_3  and  S_4
REMARK    3  A    between atoms: S_4  and  C_5
REMARK    4  A    between atoms: C_5  and  C_6
REMARK    5  A    between atoms: C_6  and  N_7
REMARK    6  A    between atoms: C_6  and  C_8
REMARK    7  A    between atoms: N_10  and  C_11
REMARK    8  A    between atoms: C_11  and  C_12
REMARK    9  A    between atoms: C_12  and  C_13
REMARK   10  A    between atoms: C_13  and  N_14
REMARK   11  A    between atoms: N_14  and  C_15
REMARK                            x       y       z     vdW  Elec       q    Type
REMARK                         _______ _______ _______ _____ _____    ______ ____
ROOT
ATOM      1  C   UNL     1      41.585 -20.348 -38.160  0.00  0.00    +0.011 C 
ENDROOT
BRANCH   1   2
ATOM      2  N   UNL     1      42.886 -20.977 -38.038  0.00  0.00    -0.343 N 
ATOM      3  H   UNL     1      42.930 -21.766 -37.450  0.00  0.00    +0.000 HD
BRANCH   2   4
ATOM      4  C   UNL     1      44.089 -20.604 -38.653  0.00  0.00    +0.041 A 
ATOM      5  C   UNL     1      44.354 -20.617 -40.041  0.00  0.00    -0.005 A 
ATOM      6  C   UNL     1      45.615 -20.160 -40.467  0.00  0.00    +0.047 A 
ATOM      7  N   UNL     1      46.598 -19.767 -39.625  0.00  0.00    -0.251 NA
ATOM      8  C   UNL     1      46.364 -19.769 -38.314  0.00  0.00    +0.074 A 
ATOM      9  C   UNL     1      47.394 -19.357 -37.482  0.00  0.00    -0.017 A 
ATOM     10  C   UNL     1      47.232 -19.305 -36.101  0.00  0.00    +0.043 A 
ATOM     11 CL   UNL     1      48.534 -18.790 -35.101  0.00  0.00    -0.083 Cl
ATOM     12  C   UNL     1      46.022 -19.660 -35.528  0.00  0.00    -0.043 A 
ATOM     13  C   UNL     1      44.980 -20.078 -36.355  0.00  0.00    -0.049 A 
ATOM     14  C   UNL     1      45.128 -20.160 -37.764  0.00  0.00    +0.022 A 
ATOM     15  C   UNL     1      46.019 -20.130 -41.920  0.00  0.00    -0.010 C 
ATOM     16  C   UNL     1      44.841 -20.172 -42.880  0.00  0.00    -0.047 C 
ATOM     17  C   UNL     1      43.926 -21.315 -42.484  0.00  0.00    -0.049 C 
ATOM     18  C   UNL     1      43.362 -21.086 -41.081  0.00  0.00    -0.024 C 
ENDBRANCH   2   4
ENDBRANCH   1   2
BRANCH   1  19
ATOM     19  C   UNL     1      40.555 -21.406 -38.569  0.00  0.00    -0.022 C 
BRANCH  19  20
ATOM     20  C   UNL     1      39.353 -21.365 -37.633  0.00  0.00    +0.013 C 
BRANCH  20  23
ATOM     21  C   UNL     1      39.592 -22.791 -35.634  0.00  0.00    +0.231 C 
ATOM     22  O   UNL     1      39.395 -23.832 -36.256  0.00  0.00    -0.274 OA
ATOM     23  N   UNL     1      39.702 -21.557 -36.244  0.00  0.00    -0.314 N 
ATOM     24  H   UNL     1      40.026 -20.789 -35.720  0.00  0.00    +0.000 HD
BRANCH  21  25
ATOM     25  C   UNL     1      39.588 -22.739 -34.099  0.00  0.00    +0.091 C 
BRANCH  25  26
ATOM     26  N   UNL     1      40.865 -23.272 -33.563  0.00  0.00    -0.319 N 
ATOM     27  H   UNL     1      40.864 -23.198 -32.546  0.00  0.00    +0.000 HD
ATOM     28  H   UNL     1      41.644 -22.733 -33.941  0.00  0.00    +0.000 HD
ATOM     29  H   UNL     1      40.965 -24.251 -33.833  0.00  0.00    +0.000 HD
ENDBRANCH  25  26
BRANCH  25  30
ATOM     30  C   UNL     1      39.379 -21.267 -33.706  0.00  0.00    +0.018 C 
BRANCH  30  31
ATOM     31  S   UNL     1      40.674 -20.651 -32.576  0.00  0.00    -0.146 S 
BRANCH  31  32
ATOM     32  C   UNL     1      41.691 -19.710 -33.761  0.00  0.00    +0.055 C 
BRANCH  32  34
ATOM     33  C   UNL     1      43.864 -18.562 -32.720  0.00  0.00    -0.118 C 
ATOM     34  C   UNL     1      42.894 -19.096 -33.182  0.00  0.00    -0.095 C 
ENDBRANCH  32  34
ENDBRANCH  31  32
ENDBRANCH  30  31
ENDBRANCH  25  30
ENDBRANCH  21  25
ENDBRANCH  20  23
ENDBRANCH  19  20
ENDBRANCH   1  19
TORSDOF 11
ENDMDL
MODEL 14
REMARK VINA RESULT:    -6.573      4.454      8.011
REMARK INTER + INTRA:         -11.356
REMARK INTER:                 -10.131
REMARK INTRA:                  -1.225
REMARK UNBOUND:                -0.749
REMARK  Name = cpd152.pdb
REMARK  11 active torsions:
REMARK  status: ('A' for Active; 'I' for Inactive)
REMARK    1  A    between atoms: C_2  and  C_3
REMARK    2  A    between atoms: C_3  and  S_4
REMARK    3  A    between atoms: S_4  and  C_5
REMARK    4  A    between atoms: C_5  and  C_6
REMARK    5  A    between atoms: C_6  and  N_7
REMARK    6  A    between atoms: C_6  and  C_8
REMARK    7  A    between atoms: N_10  and  C_11
REMARK    8  A    between atoms: C_11  and  C_12
REMARK    9  A    between atoms: C_12  and  C_13
REMARK   10  A    between atoms: C_13  and  N_14
REMARK   11  A    between atoms: N_14  and  C_15
REMARK                            x       y       z     vdW  Elec       q    Type
REMARK                         _______ _______ _______ _____ _____    ______ ____
ROOT
ATOM      1  C   UNL     1      34.099 -37.771 -28.701  0.00  0.00    +0.011 C 
ENDROOT
BRANCH   1   2
ATOM      2  N   UNL     1      35.141 -36.776 -28.535  0.00  0.00    -0.343 N 
ATOM      3  H   UNL     1      35.598 -36.773 -27.663  0.00  0.00    +0.000 HD
BRANCH   2   4
ATOM      4  C   UNL     1      35.579 -35.820 -29.461  0.00  0.00    +0.041 A 
ATOM      5  C   UNL     1      34.865 -34.672 -29.875  0.00  0.00    -0.005 A 
ATOM      6  C   UNL     1      35.497 -33.805 -30.785  0.00  0.00    +0.047 A 
ATOM      7  N   UNL     1      36.716 -34.037 -31.324  0.00  0.00    -0.251 NA
ATOM      8  C   UNL     1      37.390 -35.125 -30.954  0.00  0.00    +0.074 A 
ATOM      9  C   UNL     1      38.637 -35.329 -31.526  0.00  0.00    -0.017 A 
ATOM     10  C   UNL     1      39.420 -36.426 -31.182  0.00  0.00    +0.043 A 
ATOM     11 CL   UNL     1      40.962 -36.645 -31.913  0.00  0.00    -0.083 Cl
ATOM     12  C   UNL     1      38.965 -37.340 -30.246  0.00  0.00    -0.043 A 
ATOM     13  C   UNL     1      37.712 -37.147 -29.666  0.00  0.00    -0.049 A 
ATOM     14  C   UNL     1      36.885 -36.048 -30.017  0.00  0.00    +0.022 A 
ATOM     15  C   UNL     1      34.837 -32.553 -31.305  0.00  0.00    -0.010 C 
ATOM     16  C   UNL     1      33.686 -32.068 -30.440  0.00  0.00    -0.047 C 
ATOM     17  C   UNL     1      32.750 -33.230 -30.171  0.00  0.00    -0.049 C 
ATOM     18  C   UNL     1      33.474 -34.330 -29.391  0.00  0.00    -0.024 C 
ENDBRANCH   2   4
ENDBRANCH   1   2
BRANCH   1  19
ATOM     19  C   UNL     1      34.604 -38.873 -29.637  0.00  0.00    -0.022 C 
BRANCH  19  20
ATOM     20  C   UNL     1      35.257 -39.991 -28.834  0.00  0.00    +0.013 C 
BRANCH  20  23
ATOM     21  C   UNL     1      34.374 -41.285 -26.929  0.00  0.00    +0.231 C 
ATOM     22  O   UNL     1      34.591 -42.371 -27.462  0.00  0.00    -0.274 OA
ATOM     23  N   UNL     1      34.772 -40.081 -27.477  0.00  0.00    -0.314 N 
ATOM     24  H   UNL     1      34.723 -39.265 -26.930  0.00  0.00    +0.000 HD
BRANCH  21  25
ATOM     25  C   UNL     1      33.508 -41.149 -25.667  0.00  0.00    +0.091 C 
BRANCH  25  26
ATOM     26  N   UNL     1      34.297 -41.501 -24.461  0.00  0.00    -0.319 N 
ATOM     27  H   UNL     1      35.123 -40.905 -24.409  0.00  0.00    +0.000 HD
ATOM     28  H   UNL     1      34.585 -42.477 -24.515  0.00  0.00    +0.000 HD
ATOM     29  H   UNL     1      33.725 -41.361 -23.627  0.00  0.00    +0.000 HD
ENDBRANCH  25  26
BRANCH  25  30
ATOM     30  C   UNL     1      33.019 -39.692 -25.620  0.00  0.00    +0.018 C 
BRANCH  30  31
ATOM     31  S   UNL     1      33.253 -38.926 -23.979  0.00  0.00    -0.146 S 
BRANCH  31  32
ATOM     32  C   UNL     1      32.001 -37.605 -24.077  0.00  0.00    +0.055 C 
BRANCH  32  34
ATOM     33  C   UNL     1      32.411 -35.833 -26.030  0.00  0.00    -0.118 C 
ATOM     34  C   UNL     1      32.235 -36.617 -25.139  0.00  0.00    -0.095 C 
ENDBRANCH  32  34
ENDBRANCH  31  32
ENDBRANCH  30  31
ENDBRANCH  25  30
ENDBRANCH  21  25
ENDBRANCH  20  23
ENDBRANCH  19  20
ENDBRANCH   1  19
TORSDOF 11
ENDMDL
MODEL 15
REMARK VINA RESULT:    -6.516     16.907     18.750
REMARK INTER + INTRA:         -11.265
REMARK INTER:                  -9.768
REMARK INTRA:                  -1.497
REMARK UNBOUND:                -0.749
REMARK  Name = cpd152.pdb
REMARK  11 active torsions:
REMARK  status: ('A' for Active; 'I' for Inactive)
REMARK    1  A    between atoms: C_2  and  C_3
REMARK    2  A    between atoms: C_3  and  S_4
REMARK    3  A    between atoms: S_4  and  C_5
REMARK    4  A    between atoms: C_5  and  C_6
REMARK    5  A    between atoms: C_6  and  N_7
REMARK    6  A    between atoms: C_6  and  C_8
REMARK    7  A    between atoms: N_10  and  C_11
REMARK    8  A    between atoms: C_11  and  C_12
REMARK    9  A    between atoms: C_12  and  C_13
REMARK   10  A    between atoms: C_13  and  N_14
REMARK   11  A    between atoms: N_14  and  C_15
REMARK                            x       y       z     vdW  Elec       q    Type
REMARK                         _______ _______ _______ _____ _____    ______ ____
ROOT
ATOM      1  C   UNL     1      42.023 -20.124 -38.272  0.00  0.00    +0.011 C 
ENDROOT
BRANCH   1   2
ATOM      2  N   UNL     1      43.141 -19.538 -38.986  0.00  0.00    -0.343 N 
ATOM      3  H   UNL     1      42.908 -18.945 -39.737  0.00  0.00    +0.000 HD
BRANCH   2   4
ATOM      4  C   UNL     1      44.510 -19.710 -38.741  0.00  0.00    +0.041 A 
ATOM      5  C   UNL     1      45.248 -19.121 -37.689  0.00  0.00    -0.005 A 
ATOM      6  C   UNL     1      46.611 -19.454 -37.586  0.00  0.00    +0.047 A 
ATOM      7  N   UNL     1      47.261 -20.253 -38.463  0.00  0.00    -0.251 NA
ATOM      8  C   UNL     1      46.578 -20.798 -39.468  0.00  0.00    +0.074 A 
ATOM      9  C   UNL     1      47.276 -21.614 -40.346  0.00  0.00    -0.017 A 
ATOM     10  C   UNL     1      46.639 -22.243 -41.411  0.00  0.00    +0.043 A 
ATOM     11 CL   UNL     1      47.539 -23.246 -42.480  0.00  0.00    -0.083 Cl
ATOM     12  C   UNL     1      45.280 -22.068 -41.610  0.00  0.00    -0.043 A 
ATOM     13  C   UNL     1      44.568 -21.249 -40.736  0.00  0.00    -0.049 A 
ATOM     14  C   UNL     1      45.199 -20.579 -39.655  0.00  0.00    +0.022 A 
ATOM     15  C   UNL     1      47.506 -18.888 -36.511  0.00  0.00    -0.010 C 
ATOM     16  C   UNL     1      46.746 -18.336 -35.316  0.00  0.00    -0.047 C 
ATOM     17  C   UNL     1      45.659 -17.404 -35.813  0.00  0.00    -0.049 C 
ATOM     18  C   UNL     1      44.654 -18.167 -36.678  0.00  0.00    -0.024 C 
ENDBRANCH   2   4
ENDBRANCH   1   2
BRANCH   1  19
ATOM     19  C   UNL     1      41.274 -21.076 -39.209  0.00  0.00    -0.022 C 
BRANCH  19  20
ATOM     20  C   UNL     1      40.692 -22.244 -38.424  0.00  0.00    +0.013 C 
BRANCH  20  23
ATOM     21  C   UNL     1      40.109 -22.809 -36.094  0.00  0.00    +0.231 C 
ATOM     22  O   UNL     1      39.302 -23.676 -36.422  0.00  0.00    -0.274 OA
ATOM     23  N   UNL     1      40.912 -22.143 -37.000  0.00  0.00    -0.314 N 
ATOM     24  H   UNL     1      41.652 -21.587 -36.667  0.00  0.00    +0.000 HD
BRANCH  21  25
ATOM     25  C   UNL     1      40.199 -22.274 -34.657  0.00  0.00    +0.091 C 
BRANCH  25  26
ATOM     26  N   UNL     1      41.029 -23.178 -33.823  0.00  0.00    -0.319 N 
ATOM     27  H   UNL     1      41.274 -24.009 -34.361  0.00  0.00    +0.000 HD
ATOM     28  H   UNL     1      40.504 -23.453 -32.993  0.00  0.00    +0.000 HD
ATOM     29  H   UNL     1      41.882 -22.693 -33.540  0.00  0.00    +0.000 HD
ENDBRANCH  25  26
BRANCH  25  30
ATOM     30  C   UNL     1      40.811 -20.865 -34.746  0.00  0.00    +0.018 C 
BRANCH  30  31
ATOM     31  S   UNL     1      42.259 -20.658 -33.654  0.00  0.00    -0.146 S 
BRANCH  31  32
ATOM     32  C   UNL     1      42.376 -18.839 -33.642  0.00  0.00    +0.055 C 
BRANCH  32  34
ATOM     33  C   UNL     1      44.453 -17.881 -32.267  0.00  0.00    -0.118 C 
ATOM     34  C   UNL     1      43.507 -18.303 -32.872  0.00  0.00    -0.095 C 
ENDBRANCH  32  34
ENDBRANCH  31  32
ENDBRANCH  30  31
ENDBRANCH  25  30
ENDBRANCH  21  25
ENDBRANCH  20  23
ENDBRANCH  19  20
ENDBRANCH   1  19
TORSDOF 11
ENDMDL
MODEL 16
REMARK VINA RESULT:    -6.387     16.770     18.991
REMARK INTER + INTRA:         -11.057
REMARK INTER:                  -9.673
REMARK INTRA:                  -1.384
REMARK UNBOUND:                -0.749
REMARK  Name = cpd152.pdb
REMARK  11 active torsions:
REMARK  status: ('A' for Active; 'I' for Inactive)
REMARK    1  A    between atoms: C_2  and  C_3
REMARK    2  A    between atoms: C_3  and  S_4
REMARK    3  A    between atoms: S_4  and  C_5
REMARK    4  A    between atoms: C_5  and  C_6
REMARK    5  A    between atoms: C_6  and  N_7
REMARK    6  A    between atoms: C_6  and  C_8
REMARK    7  A    between atoms: N_10  and  C_11
REMARK    8  A    between atoms: C_11  and  C_12
REMARK    9  A    between atoms: C_12  and  C_13
REMARK   10  A    between atoms: C_13  and  N_14
REMARK   11  A    between atoms: N_14  and  C_15
REMARK                            x       y       z     vdW  Elec       q    Type
REMARK                         _______ _______ _______ _____ _____    ______ ____
ROOT
ATOM      1  C   UNL     1      43.881 -19.275 -35.306  0.00  0.00    +0.011 C 
ENDROOT
BRANCH   1   2
ATOM      2  N   UNL     1      43.424 -20.649 -35.386  0.00  0.00    -0.343 N 
ATOM      3  H   UNL     1      44.078 -21.336 -35.121  0.00  0.00    +0.000 HD
BRANCH   2   4
ATOM      4  C   UNL     1      42.169 -21.122 -35.793  0.00  0.00    +0.041 A 
ATOM      5  C   UNL     1      41.067 -21.393 -34.950  0.00  0.00    -0.005 A 
ATOM      6  C   UNL     1      39.873 -21.820 -35.557  0.00  0.00    +0.047 A 
ATOM      7  N   UNL     1      39.739 -22.038 -36.885  0.00  0.00    -0.251 NA
ATOM      8  C   UNL     1      40.777 -21.803 -37.687  0.00  0.00    +0.074 A 
ATOM      9  C   UNL     1      40.602 -22.035 -39.043  0.00  0.00    -0.017 A 
ATOM     10  C   UNL     1      41.624 -21.795 -39.956  0.00  0.00    +0.043 A 
ATOM     11 CL   UNL     1      41.369 -22.097 -41.630  0.00  0.00    -0.083 Cl
ATOM     12  C   UNL     1      42.845 -21.307 -39.521  0.00  0.00    -0.043 A 
ATOM     13  C   UNL     1      43.033 -21.072 -38.160  0.00  0.00    -0.049 A 
ATOM     14  C   UNL     1      42.013 -21.329 -37.207  0.00  0.00    +0.022 A 
ATOM     15  C   UNL     1      38.631 -22.146 -34.766  0.00  0.00    -0.010 C 
ATOM     16  C   UNL     1      38.622 -21.540 -33.372  0.00  0.00    -0.047 C 
ATOM     17  C   UNL     1      39.934 -21.869 -32.686  0.00  0.00    -0.049 C 
ATOM     18  C   UNL     1      41.106 -21.244 -33.446  0.00  0.00    -0.024 C 
ENDBRANCH   2   4
ENDBRANCH   1   2
BRANCH   1  19
ATOM     19  C   UNL     1      45.191 -19.229 -34.514  0.00  0.00    -0.022 C 
BRANCH  19  20
ATOM     20  C   UNL     1      46.363 -18.942 -35.445  0.00  0.00    +0.013 C 
BRANCH  20  23
ATOM     21  C   UNL     1      46.499 -18.655 -37.892  0.00  0.00    +0.231 C 
ATOM     22  O   UNL     1      47.180 -17.635 -37.814  0.00  0.00    -0.274 OA
ATOM     23  N   UNL     1      46.154 -19.417 -36.793  0.00  0.00    -0.314 N 
ATOM     24  H   UNL     1      45.756 -20.307 -36.932  0.00  0.00    +0.000 HD
BRANCH  21  25
ATOM     25  C   UNL     1      45.839 -19.103 -39.204  0.00  0.00    +0.091 C 
BRANCH  25  26
ATOM     26  N   UNL     1      45.349 -17.924 -39.962  0.00  0.00    -0.319 N 
ATOM     27  H   UNL     1      46.057 -17.637 -40.639  0.00  0.00    +0.000 HD
ATOM     28  H   UNL     1      45.166 -17.157 -39.316  0.00  0.00    +0.000 HD
ATOM     29  H   UNL     1      44.489 -18.169 -40.453  0.00  0.00    +0.000 HD
ENDBRANCH  25  26
BRANCH  25  30
ATOM     30  C   UNL     1      46.905 -19.881 -39.994  0.00  0.00    +0.018 C 
BRANCH  30  31
ATOM     31  S   UNL     1      46.503 -21.655 -40.152  0.00  0.00    -0.146 S 
BRANCH  31  32
ATOM     32  C   UNL     1      46.223 -21.745 -41.951  0.00  0.00    +0.055 C 
BRANCH  32  34
ATOM     33  C   UNL     1      44.411 -20.019 -42.878  0.00  0.00    -0.118 C 
ATOM     34  C   UNL     1      45.212 -20.809 -42.461  0.00  0.00    -0.095 C 
ENDBRANCH  32  34
ENDBRANCH  31  32
ENDBRANCH  30  31
ENDBRANCH  25  30
ENDBRANCH  21  25
ENDBRANCH  20  23
ENDBRANCH  19  20
ENDBRANCH   1  19
TORSDOF 11
ENDMDL
MODEL 17
REMARK VINA RESULT:    -6.343     18.292     20.245
REMARK INTER + INTRA:         -10.986
REMARK INTER:                  -9.420
REMARK INTRA:                  -1.566
REMARK UNBOUND:                -0.749
REMARK  Name = cpd152.pdb
REMARK  11 active torsions:
REMARK  status: ('A' for Active; 'I' for Inactive)
REMARK    1  A    between atoms: C_2  and  C_3
REMARK    2  A    between atoms: C_3  and  S_4
REMARK    3  A    between atoms: S_4  and  C_5
REMARK    4  A    between atoms: C_5  and  C_6
REMARK    5  A    between atoms: C_6  and  N_7
REMARK    6  A    between atoms: C_6  and  C_8
REMARK    7  A    between atoms: N_10  and  C_11
REMARK    8  A    between atoms: C_11  and  C_12
REMARK    9  A    between atoms: C_12  and  C_13
REMARK   10  A    between atoms: C_13  and  N_14
REMARK   11  A    between atoms: N_14  and  C_15
REMARK                            x       y       z     vdW  Elec       q    Type
REMARK                         _______ _______ _______ _____ _____    ______ ____
ROOT
ATOM      1  C   UNL     1      47.106 -16.928 -39.525  0.00  0.00    +0.011 C 
ENDROOT
BRANCH   1   2
ATOM      2  N   UNL     1      46.004 -17.366 -40.362  0.00  0.00    -0.343 N 
ATOM      3  H   UNL     1      45.728 -16.741 -41.071  0.00  0.00    +0.000 HD
BRANCH   2   4
ATOM      4  C   UNL     1      45.285 -18.566 -40.287  0.00  0.00    +0.041 A 
ATOM      5  C   UNL     1      43.996 -18.732 -39.729  0.00  0.00    -0.005 A 
ATOM      6  C   UNL     1      43.421 -20.014 -39.790  0.00  0.00    +0.047 A 
ATOM      7  N   UNL     1      44.051 -21.099 -40.295  0.00  0.00    -0.251 NA
ATOM      8  C   UNL     1      45.272 -20.957 -40.807  0.00  0.00    +0.074 A 
ATOM      9  C   UNL     1      45.886 -22.091 -41.319  0.00  0.00    -0.017 A 
ATOM     10  C   UNL     1      47.152 -22.032 -41.893  0.00  0.00    +0.043 A 
ATOM     11 CL   UNL     1      47.881 -23.460 -42.516  0.00  0.00    -0.083 Cl
ATOM     12  C   UNL     1      47.825 -20.825 -41.970  0.00  0.00    -0.043 A 
ATOM     13  C   UNL     1      47.220 -19.678 -41.457  0.00  0.00    -0.049 A 
ATOM     14  C   UNL     1      45.939 -19.717 -40.847  0.00  0.00    +0.022 A 
ATOM     15  C   UNL     1      42.056 -20.319 -39.226  0.00  0.00    -0.010 C 
ATOM     16  C   UNL     1      41.190 -19.086 -39.031  0.00  0.00    -0.047 C 
ATOM     17  C   UNL     1      41.986 -18.041 -38.274  0.00  0.00    -0.049 C 
ATOM     18  C   UNL     1      43.211 -17.613 -39.084  0.00  0.00    -0.024 C 
ENDBRANCH   2   4
ENDBRANCH   1   2
BRANCH   1  19
ATOM     19  C   UNL     1      46.599 -16.736 -38.093  0.00  0.00    -0.022 C 
BRANCH  19  20
ATOM     20  C   UNL     1      47.048 -17.895 -37.212  0.00  0.00    +0.013 C 
BRANCH  20  23
ATOM     21  C   UNL     1      46.012 -19.223 -35.409  0.00  0.00    +0.231 C 
ATOM     22  O   UNL     1      46.889 -18.949 -34.594  0.00  0.00    -0.274 OA
ATOM     23  N   UNL     1      45.951 -18.662 -36.670  0.00  0.00    -0.314 N 
ATOM     24  H   UNL     1      45.139 -18.787 -37.213  0.00  0.00    +0.000 HD
BRANCH  21  25
ATOM     25  C   UNL     1      44.977 -20.330 -35.160  0.00  0.00    +0.091 C 
BRANCH  25  26
ATOM     26  N   UNL     1      45.078 -20.824 -33.764  0.00  0.00    -0.319 N 
ATOM     27  H   UNL     1      44.501 -20.245 -33.155  0.00  0.00    +0.000 HD
ATOM     28  H   UNL     1      46.049 -20.778 -33.457  0.00  0.00    +0.000 HD
ATOM     29  H   UNL     1      44.753 -21.791 -33.721  0.00  0.00    +0.000 HD
ENDBRANCH  25  26
BRANCH  25  30
ATOM     30  C   UNL     1      43.595 -19.718 -35.445  0.00  0.00    +0.018 C 
BRANCH  30  31
ATOM     31  S   UNL     1      42.280 -20.437 -34.402  0.00  0.00    -0.146 S 
BRANCH  31  32
ATOM     32  C   UNL     1      41.405 -21.431 -35.655  0.00  0.00    +0.055 C 
BRANCH  32  34
ATOM     33  C   UNL     1      38.998 -20.485 -36.317  0.00  0.00    -0.118 C 
ATOM     34  C   UNL     1      40.072 -20.927 -36.014  0.00  0.00    -0.095 C 
ENDBRANCH  32  34
ENDBRANCH  31  32
ENDBRANCH  30  31
ENDBRANCH  25  30
ENDBRANCH  21  25
ENDBRANCH  20  23
ENDBRANCH  19  20
ENDBRANCH   1  19
TORSDOF 11
ENDMDL
MODEL 18
REMARK VINA RESULT:    -6.329     16.148     17.927
REMARK INTER + INTRA:         -10.963
REMARK INTER:                  -9.699
REMARK INTRA:                  -1.264
REMARK UNBOUND:                -0.749
REMARK  Name = cpd152.pdb
REMARK  11 active torsions:
REMARK  status: ('A' for Active; 'I' for Inactive)
REMARK    1  A    between atoms: C_2  and  C_3
REMARK    2  A    between atoms: C_3  and  S_4
REMARK    3  A    between atoms: S_4  and  C_5
REMARK    4  A    between atoms: C_5  and  C_6
REMARK    5  A    between atoms: C_6  and  N_7
REMARK    6  A    between atoms: C_6  and  C_8
REMARK    7  A    between atoms: N_10  and  C_11
REMARK    8  A    between atoms: C_11  and  C_12
REMARK    9  A    between atoms: C_12  and  C_13
REMARK   10  A    between atoms: C_13  and  N_14
REMARK   11  A    between atoms: N_14  and  C_15
REMARK                            x       y       z     vdW  Elec       q    Type
REMARK                         _______ _______ _______ _____ _____    ______ ____
ROOT
ATOM      1  C   UNL     1      41.602 -19.531 -38.811  0.00  0.00    +0.011 C 
ENDROOT
BRANCH   1   2
ATOM      2  N   UNL     1      42.950 -19.268 -39.276  0.00  0.00    -0.343 N 
ATOM      3  H   UNL     1      43.034 -18.604 -39.998  0.00  0.00    +0.000 HD
BRANCH   2   4
ATOM      4  C   UNL     1      44.148 -19.840 -38.827  0.00  0.00    +0.041 A 
ATOM      5  C   UNL     1      44.750 -19.630 -37.565  0.00  0.00    -0.005 A 
ATOM      6  C   UNL     1      45.935 -20.334 -37.284  0.00  0.00    +0.047 A 
ATOM      7  N   UNL     1      46.555 -21.149 -38.167  0.00  0.00    -0.251 NA
ATOM      8  C   UNL     1      46.005 -21.340 -39.366  0.00  0.00    +0.074 A 
ATOM      9  C   UNL     1      46.667 -22.184 -40.245  0.00  0.00    -0.017 A 
ATOM     10  C   UNL     1      46.155 -22.459 -41.509  0.00  0.00    +0.043 A 
ATOM     11 CL   UNL     1      47.006 -23.510 -42.572  0.00  0.00    -0.083 Cl
ATOM     12  C   UNL     1      44.957 -21.893 -41.912  0.00  0.00    -0.043 A 
ATOM     13  C   UNL     1      44.284 -21.041 -41.038  0.00  0.00    -0.049 A 
ATOM     14  C   UNL     1      44.797 -20.728 -39.752  0.00  0.00    +0.022 A 
ATOM     15  C   UNL     1      46.673 -20.191 -35.977  0.00  0.00    -0.010 C 
ATOM     16  C   UNL     1      45.819 -19.626 -34.854  0.00  0.00    -0.047 C 
ATOM     17  C   UNL     1      45.126 -18.371 -35.348  0.00  0.00    -0.049 C 
ATOM     18  C   UNL     1      44.189 -18.702 -36.512  0.00  0.00    -0.024 C 
ENDBRANCH   2   4
ENDBRANCH   1   2
BRANCH   1  19
ATOM     19  C   UNL     1      41.397 -21.045 -38.704  0.00  0.00    -0.022 C 
BRANCH  19  20
ATOM     20  C   UNL     1      41.433 -21.483 -37.245  0.00  0.00    +0.013 C 
BRANCH  20  23
ATOM     21  C   UNL     1      41.250 -20.414 -35.029  0.00  0.00    +0.231 C 
ATOM     22  O   UNL     1      42.258 -20.964 -34.592  0.00  0.00    -0.274 OA
ATOM     23  N   UNL     1      40.841 -20.522 -36.344  0.00  0.00    -0.314 N 
ATOM     24  H   UNL     1      40.129 -19.929 -36.676  0.00  0.00    +0.000 HD
BRANCH  21  25
ATOM     25  C   UNL     1      40.260 -19.671 -34.119  0.00  0.00    +0.091 C 
BRANCH  25  26
ATOM     26  N   UNL     1      39.018 -19.350 -34.864  0.00  0.00    -0.319 N 
ATOM     27  H   UNL     1      38.454 -18.698 -34.319  0.00  0.00    +0.000 HD
ATOM     28  H   UNL     1      38.487 -20.206 -35.025  0.00  0.00    +0.000 HD
ATOM     29  H   UNL     1      39.258 -18.925 -35.760  0.00  0.00    +0.000 HD
ENDBRANCH  25  26
BRANCH  25  30
ATOM     30  C   UNL     1      39.981 -20.595 -32.921  0.00  0.00    +0.018 C 
BRANCH  30  31
ATOM     31  S   UNL     1      38.446 -21.563 -33.125  0.00  0.00    -0.146 S 
BRANCH  31  32
ATOM     32  C   UNL     1      39.154 -23.135 -33.719  0.00  0.00    +0.055 C 
BRANCH  32  34
ATOM     33  C   UNL     1      37.437 -25.178 -33.674  0.00  0.00    -0.118 C 
ATOM     34  C   UNL     1      38.220 -24.269 -33.706  0.00  0.00    -0.095 C 
ENDBRANCH  32  34
ENDBRANCH  31  32
ENDBRANCH  30  31
ENDBRANCH  25  30
ENDBRANCH  21  25
ENDBRANCH  20  23
ENDBRANCH  19  20
ENDBRANCH   1  19
TORSDOF 11
ENDMDL
MODEL 19
REMARK VINA RESULT:    -6.308     18.299     20.117
REMARK INTER + INTRA:         -10.929
REMARK INTER:                  -9.614
REMARK INTRA:                  -1.315
REMARK UNBOUND:                -0.749
REMARK  Name = cpd152.pdb
REMARK  11 active torsions:
REMARK  status: ('A' for Active; 'I' for Inactive)
REMARK    1  A    between atoms: C_2  and  C_3
REMARK    2  A    between atoms: C_3  and  S_4
REMARK    3  A    between atoms: S_4  and  C_5
REMARK    4  A    between atoms: C_5  and  C_6
REMARK    5  A    between atoms: C_6  and  N_7
REMARK    6  A    between atoms: C_6  and  C_8
REMARK    7  A    between atoms: N_10  and  C_11
REMARK    8  A    between atoms: C_11  and  C_12
REMARK    9  A    between atoms: C_12  and  C_13
REMARK   10  A    between atoms: C_13  and  N_14
REMARK   11  A    between atoms: N_14  and  C_15
REMARK                            x       y       z     vdW  Elec       q    Type
REMARK                         _______ _______ _______ _____ _____    ______ ____
ROOT
ATOM      1  C   UNL     1      45.320 -16.948 -38.159  0.00  0.00    +0.011 C 
ENDROOT
BRANCH   1   2
ATOM      2  N   UNL     1      44.952 -17.430 -39.476  0.00  0.00    -0.343 N 
ATOM      3  H   UNL     1      44.822 -16.739 -40.166  0.00  0.00    +0.000 HD
BRANCH   2   4
ATOM      4  C   UNL     1      44.760 -18.755 -39.891  0.00  0.00    +0.041 A 
ATOM      5  C   UNL     1      45.712 -19.570 -40.545  0.00  0.00    -0.005 A 
ATOM      6  C   UNL     1      45.341 -20.894 -40.841  0.00  0.00    +0.047 A 
ATOM      7  N   UNL     1      44.116 -21.408 -40.588  0.00  0.00    -0.251 NA
ATOM      8  C   UNL     1      43.206 -20.643 -39.988  0.00  0.00    +0.074 A 
ATOM      9  C   UNL     1      41.962 -21.204 -39.742  0.00  0.00    -0.017 A 
ATOM     10  C   UNL     1      40.958 -20.486 -39.100  0.00  0.00    +0.043 A 
ATOM     11 CL   UNL     1      39.427 -21.216 -38.814  0.00  0.00    -0.083 Cl
ATOM     12  C   UNL     1      41.190 -19.186 -38.684  0.00  0.00    -0.043 A 
ATOM     13  C   UNL     1      42.436 -18.609 -38.928  0.00  0.00    -0.049 A 
ATOM     14  C   UNL     1      43.469 -19.314 -39.600  0.00  0.00    +0.022 A 
ATOM     15  C   UNL     1      46.266 -21.859 -41.540  0.00  0.00    -0.010 C 
ATOM     16  C   UNL     1      47.730 -21.458 -41.469  0.00  0.00    -0.047 C 
ATOM     17  C   UNL     1      47.863 -20.008 -41.894  0.00  0.00    -0.049 C 
ATOM     18  C   UNL     1      47.095 -19.098 -40.934  0.00  0.00    -0.024 C 
ENDBRANCH   2   4
ENDBRANCH   1   2
BRANCH   1  19
ATOM     19  C   UNL     1      46.847 -16.882 -38.059  0.00  0.00    -0.022 C 
BRANCH  19  20
ATOM     20  C   UNL     1      47.316 -17.454 -36.727  0.00  0.00    +0.013 C 
BRANCH  20  23
ATOM     21  C   UNL     1      46.689 -19.324 -35.245  0.00  0.00    +0.231 C 
ATOM     22  O   UNL     1      47.835 -19.487 -34.833  0.00  0.00    -0.274 OA
ATOM     23  N   UNL     1      46.327 -18.285 -36.081  0.00  0.00    -0.314 N 
ATOM     24  H   UNL     1      45.372 -18.107 -36.239  0.00  0.00    +0.000 HD
BRANCH  21  25
ATOM     25  C   UNL     1      45.572 -20.347 -34.989  0.00  0.00    +0.091 C 
BRANCH  25  26
ATOM     26  N   UNL     1      45.783 -21.024 -33.685  0.00  0.00    -0.319 N 
ATOM     27  H   UNL     1      46.689 -21.492 -33.687  0.00  0.00    +0.000 HD
ATOM     28  H   UNL     1      45.045 -21.712 -33.536  0.00  0.00    +0.000 HD
ATOM     29  H   UNL     1      45.759 -20.332 -32.935  0.00  0.00    +0.000 HD
ENDBRANCH  25  26
BRANCH  25  30
ATOM     30  C   UNL     1      44.245 -19.571 -35.017  0.00  0.00    +0.018 C 
BRANCH  30  31
ATOM     31  S   UNL     1      43.097 -20.096 -33.697  0.00  0.00    -0.146 S 
BRANCH  31  32
ATOM     32  C   UNL     1      43.006 -18.549 -32.738  0.00  0.00    +0.055 C 
BRANCH  32  34
ATOM     33  C   UNL     1      45.376 -17.484 -32.127  0.00  0.00    -0.118 C 
ATOM     34  C   UNL     1      44.309 -17.950 -32.417  0.00  0.00    -0.095 C 
ENDBRANCH  32  34
ENDBRANCH  31  32
ENDBRANCH  30  31
ENDBRANCH  25  30
ENDBRANCH  21  25
ENDBRANCH  20  23
ENDBRANCH  19  20
ENDBRANCH   1  19
TORSDOF 11
ENDMDL
MODEL 20
REMARK VINA RESULT:    -6.237     18.327     20.399
REMARK INTER + INTRA:         -10.815
REMARK INTER:                  -9.305
REMARK INTRA:                  -1.510
REMARK UNBOUND:                -0.749
REMARK  Name = cpd152.pdb
REMARK  11 active torsions:
REMARK  status: ('A' for Active; 'I' for Inactive)
REMARK    1  A    between atoms: C_2  and  C_3
REMARK    2  A    between atoms: C_3  and  S_4
REMARK    3  A    between atoms: S_4  and  C_5
REMARK    4  A    between atoms: C_5  and  C_6
REMARK    5  A    between atoms: C_6  and  N_7
REMARK    6  A    between atoms: C_6  and  C_8
REMARK    7  A    between atoms: N_10  and  C_11
REMARK    8  A    between atoms: C_11  and  C_12
REMARK    9  A    between atoms: C_12  and  C_13
REMARK   10  A    between atoms: C_13  and  N_14
REMARK   11  A    between atoms: N_14  and  C_15
REMARK                            x       y       z     vdW  Elec       q    Type
REMARK                         _______ _______ _______ _____ _____    ______ ____
ROOT
ATOM      1  C   UNL     1      45.243 -16.773 -38.254  0.00  0.00    +0.011 C 
ENDROOT
BRANCH   1   2
ATOM      2  N   UNL     1      44.774 -17.427 -39.460  0.00  0.00    -0.343 N 
ATOM      3  H   UNL     1      44.789 -16.881 -40.279  0.00  0.00    +0.000 HD
BRANCH   2   4
ATOM      4  C   UNL     1      44.303 -18.739 -39.606  0.00  0.00    +0.041 A 
ATOM      5  C   UNL     1      43.052 -19.228 -39.167  0.00  0.00    -0.005 A 
ATOM      6  C   UNL     1      42.744 -20.572 -39.447  0.00  0.00    +0.047 A 
ATOM      7  N   UNL     1      43.594 -21.428 -40.058  0.00  0.00    -0.251 NA
ATOM      8  C   UNL     1      44.783 -20.982 -40.459  0.00  0.00    +0.074 A 
ATOM      9  C   UNL     1      45.628 -21.888 -41.083  0.00  0.00    -0.017 A 
ATOM     10  C   UNL     1      46.879 -21.504 -41.555  0.00  0.00    +0.043 A 
ATOM     11 CL   UNL     1      47.900 -22.656 -42.323  0.00  0.00    -0.083 Cl
ATOM     12  C   UNL     1      47.304 -20.193 -41.414  0.00  0.00    -0.043 A 
ATOM     13  C   UNL     1      46.465 -19.274 -40.786  0.00  0.00    -0.049 A 
ATOM     14  C   UNL     1      45.193 -19.646 -40.277  0.00  0.00    +0.022 A 
ATOM     15  C   UNL     1      41.444 -21.212 -39.027  0.00  0.00    -0.010 C 
ATOM     16  C   UNL     1      40.345 -20.209 -38.719  0.00  0.00    -0.047 C 
ATOM     17  C   UNL     1      40.888 -19.160 -37.769  0.00  0.00    -0.049 C 
ATOM     18  C   UNL     1      42.037 -18.390 -38.424  0.00  0.00    -0.024 C 
ENDBRANCH   2   4
ENDBRANCH   1   2
BRANCH   1  19
ATOM     19  C   UNL     1      46.772 -16.849 -38.206  0.00  0.00    -0.022 C 
BRANCH  19  20
ATOM     20  C   UNL     1      47.231 -17.456 -36.885  0.00  0.00    +0.013 C 
BRANCH  20  23
ATOM     21  C   UNL     1      46.534 -19.316 -35.423  0.00  0.00    +0.231 C 
ATOM     22  O   UNL     1      47.678 -19.548 -35.038  0.00  0.00    -0.274 OA
ATOM     23  N   UNL     1      46.212 -18.245 -36.233  0.00  0.00    -0.314 N 
ATOM     24  H   UNL     1      45.265 -18.013 -36.368  0.00  0.00    +0.000 HD
BRANCH  21  25
ATOM     25  C   UNL     1      45.369 -20.283 -35.161  0.00  0.00    +0.091 C 
BRANCH  25  26
ATOM     26  N   UNL     1      45.570 -20.993 -33.874  0.00  0.00    -0.319 N 
ATOM     27  H   UNL     1      46.449 -21.509 -33.903  0.00  0.00    +0.000 HD
ATOM     28  H   UNL     1      44.799 -21.644 -33.721  0.00  0.00    +0.000 HD
ATOM     29  H   UNL     1      45.598 -20.315 -33.111  0.00  0.00    +0.000 HD
ENDBRANCH  25  26
BRANCH  25  30
ATOM     30  C   UNL     1      44.085 -19.436 -35.147  0.00  0.00    +0.018 C 
BRANCH  30  31
ATOM     31  S   UNL     1      42.982 -19.858 -33.755  0.00  0.00    -0.146 S 
BRANCH  31  32
ATOM     32  C   UNL     1      43.005 -18.273 -32.854  0.00  0.00    +0.055 C 
BRANCH  32  34
ATOM     33  C   UNL     1      45.448 -17.255 -32.507  0.00  0.00    -0.118 C 
ATOM     34  C   UNL     1      44.343 -17.695 -32.668  0.00  0.00    -0.095 C 
ENDBRANCH  32  34
ENDBRANCH  31  32
ENDBRANCH  30  31
ENDBRANCH  25  30
ENDBRANCH  21  25
ENDBRANCH  20  23
ENDBRANCH  19  20
ENDBRANCH   1  19
TORSDOF 11
ENDMDL
