REMARK  Name = cpd152.pdb
REMARK  11 active torsions:
REMARK  status: ('A' for Active; 'I' for Inactive)
REMARK    1  A    between atoms: C_2  and  C_3
REMARK    2  A    between atoms: C_3  and  S_4
REMARK    3  A    between atoms: S_4  and  C_5
REMARK    4  A    between atoms: C_5  and  C_6
REMARK    5  A    between atoms: C_6  and  N_7
REMARK    6  A    between atoms: C_6  and  C_8
REMARK    7  A    between atoms: N_10  and  C_11
REMARK    8  A    between atoms: C_11  and  C_12
REMARK    9  A    between atoms: C_12  and  C_13
REMARK   10  A    between atoms: C_13  and  N_14
REMARK   11  A    between atoms: N_14  and  C_15
REMARK                            x       y       z     vdW  Elec       q    Type
REMARK                         _______ _______ _______ _____ _____    ______ ____
ROOT
ATOM      1  C   UNL     1      -0.801   1.456   0.290  0.00  0.00    +0.011 C 
ENDROOT
BRANCH   1   2
ATOM      2  N   UNL     1      -1.884   0.538  -0.007  0.00  0.00    -0.343 N 
ATOM      3  H   UNL     1      -2.753   0.951  -0.216  0.00  0.00    +0.000 HD
BRANCH   2   4
ATOM      4  C   UNL     1      -1.848  -0.863  -0.034  0.00  0.00    +0.041 A 
ATOM      5  C   UNL     1      -0.685  -1.666  -0.062  0.00  0.00    -0.005 A 
ATOM      6  C   UNL     1      -0.858  -3.062  -0.041  0.00  0.00    +0.047 A 
ATOM      7  N   UNL     1      -2.065  -3.672  -0.053  0.00  0.00    -0.251 NA
ATOM      8  C   UNL     1      -3.167  -2.924  -0.045  0.00  0.00    +0.074 A 
ATOM      9  C   UNL     1      -4.387  -3.584  -0.055  0.00  0.00    -0.017 A 
ATOM     10  C   UNL     1      -5.589  -2.884  -0.025  0.00  0.00    +0.043 A 
ATOM     11 CL   UNL     1      -7.082  -3.738  -0.040  0.00  0.00    -0.083 Cl
ATOM     12  C   UNL     1      -5.587  -1.500   0.024  0.00  0.00    -0.043 A 
ATOM     13  C   UNL     1      -4.367  -0.825   0.032  0.00  0.00    -0.049 A 
ATOM     14  C   UNL     1      -3.128  -1.516  -0.020  0.00  0.00    +0.022 A 
ATOM     15  C   UNL     1       0.303  -4.024  -0.073  0.00  0.00    -0.010 C 
ATOM     16  C   UNL     1       1.624  -3.397   0.341  0.00  0.00    -0.047 C 
ATOM     17  C   UNL     1       1.824  -2.113  -0.440  0.00  0.00    -0.049 C 
ATOM     18  C   UNL     1       0.719  -1.108  -0.108  0.00  0.00    -0.024 C 
ENDBRANCH   2   4
ENDBRANCH   1   2
BRANCH   1  19
ATOM     19  C   UNL     1      -1.383   2.850   0.543  0.00  0.00    -0.022 C 
BRANCH  19  20
ATOM     20  C   UNL     1      -0.264   3.878   0.660  0.00  0.00    +0.013 C 
BRANCH  20  23
ATOM     21  C   UNL     1      -1.101   5.857  -0.552  0.00  0.00    +0.231 C 
ATOM     22  O   UNL     1      -1.249   5.247  -1.608  0.00  0.00    -0.274 OA
ATOM     23  N   UNL     1      -0.735   5.243   0.630  0.00  0.00    -0.314 N 
ATOM     24  H   UNL     1      -0.797   5.748   1.473  0.00  0.00    +0.000 HD
BRANCH  21  25
ATOM     25  C   UNL     1      -1.165   7.390  -0.474  0.00  0.00    +0.091 C 
BRANCH  25  26
ATOM     26  N   UNL     1      -1.997   7.812   0.680  0.00  0.00    -0.319 N 
ATOM     27  H   UNL     1      -1.601   7.435   1.541  0.00  0.00    +0.000 HD
ATOM     28  H   UNL     1      -2.947   7.461   0.561  0.00  0.00    +0.000 HD
ATOM     29  H   UNL     1      -2.015   8.831   0.732  0.00  0.00    +0.000 HD
ENDBRANCH  25  26
BRANCH  25  30
ATOM     30  C   UNL     1       0.284   7.888  -0.340  0.00  0.00    +0.018 C 
BRANCH  30  31
ATOM     31  S   UNL     1       0.481   9.624  -0.871  0.00  0.00    -0.146 S 
BRANCH  31  32
ATOM     32  C   UNL     1       2.143   9.961  -0.202  0.00  0.00    +0.055 C 
BRANCH  32  34
ATOM     33  C   UNL     1       3.934   8.026  -0.618  0.00  0.00    -0.118 C 
ATOM     34  C   UNL     1       3.129   8.900  -0.450  0.00  0.00    -0.095 C 
ENDBRANCH  32  34
ENDBRANCH  31  32
ENDBRANCH  30  31
ENDBRANCH  25  30
ENDBRANCH  21  25
ENDBRANCH  20  23
ENDBRANCH  19  20
ENDBRANCH   1  19
TORSDOF 11
