REMARK  Name = cpd359.pdb
REMARK  4 active torsions:
REMARK  status: ('A' for Active; 'I' for Inactive)
REMARK    1  A    between atoms: C_4  and  C_5
REMARK    2  A    between atoms: C_5  and  N_6
REMARK    3  A    between atoms: C_10  and  C_11
REMARK    4  A    between atoms: C_11  and  N_12
REMARK                            x       y       z     vdW  Elec       q    Type
REMARK                         _______ _______ _______ _____ _____    ______ ____
ROOT
ATOM      1  C   UNL A   1      -0.257  -1.877  -1.647  0.00  0.00    +0.050 C 
ENDROOT
BRANCH   1   2
ATOM      2  N   UNL A   1      -1.313  -1.447  -0.737  0.00  0.00    -0.339 N 
ATOM      3  C   UNL A   1      -1.510  -0.160  -0.298  0.00  0.00    +0.023 A 
ATOM      4  C   UNL A   1      -2.618  -0.155   0.528  0.00  0.00    -0.019 A 
ATOM      5  C   UNL A   1      -3.113  -1.484   0.597  0.00  0.00    +0.003 A 
ATOM      6  C   UNL A   1      -4.196  -2.086   1.270  0.00  0.00    -0.052 A 
ATOM      7  C   UNL A   1      -4.434  -3.454   1.116  0.00  0.00    -0.061 A 
ATOM      8  C   UNL A   1      -3.611  -4.226   0.303  0.00  0.00    -0.060 A 
ATOM      9  C   UNL A   1      -2.530  -3.654  -0.375  0.00  0.00    -0.038 A 
ATOM     10  C   UNL A   1      -2.292  -2.277  -0.213  0.00  0.00    +0.050 A 
ATOM     11  C   UNL A   1      -3.130   1.080   1.193  0.00  0.00    -0.025 C 
ATOM     12  C   UNL A   1      -2.558   2.345   0.529  0.00  0.00    -0.049 C 
ATOM     13  C   UNL A   1      -1.048   2.220   0.263  0.00  0.00    -0.047 C 
ATOM     14  C   UNL A   1      -0.719   1.048  -0.679  0.00  0.00    -0.012 C 
ENDBRANCH   1   2
BRANCH   1  19
ATOM     15  N   UNL A   1       3.437  -1.712  -0.893  0.00  0.00    -0.349 N 
ATOM     16  C   UNL A   1       3.545  -2.441   0.243  0.00  0.00    +0.005 A 
ATOM     17  C   UNL A   1       2.423  -3.016   0.822  0.00  0.00    -0.045 A 
ATOM     18  C   UNL A   1       1.183  -2.839   0.222  0.00  0.00    -0.054 A 
ATOM     19  C   UNL A   1       1.069  -2.076  -0.943  0.00  0.00    -0.012 A 
ATOM     20  C   UNL A   1       2.233  -1.530  -1.487  0.00  0.00    +0.010 A 
BRANCH  15  21
ATOM     21  C   UNL A   1       4.661  -1.135  -1.507  0.00  0.00    +0.048 C 
BRANCH  21  25
ATOM     22  C   UNL A   1       6.511   1.821   1.029  0.00  0.00    -0.062 A 
ATOM     23  C   UNL A   1       7.246   0.729   0.576  0.00  0.00    -0.061 A 
ATOM     24  C   UNL A   1       6.646  -0.227  -0.245  0.00  0.00    -0.057 A 
ATOM     25  C   UNL A   1       5.297  -0.101  -0.615  0.00  0.00    -0.028 A 
ATOM     26  C   UNL A   1       4.570   1.012  -0.162  0.00  0.00    -0.057 A 
ATOM     27  C   UNL A   1       5.176   1.964   0.659  0.00  0.00    -0.061 A 
ENDBRANCH  21  25
ENDBRANCH  15  21
ENDBRANCH   1  19
TORSDOF 4
