MODEL 1
REMARK VINA RESULT:    -8.592      0.000      0.000
REMARK INTER + INTRA:         -12.117
REMARK INTER:                 -10.601
REMARK INTRA:                  -1.517
REMARK UNBOUND:                -1.517
REMARK  Name = cpd359.pdb
REMARK  4 active torsions:
REMARK  status: ('A' for Active; 'I' for Inactive)
REMARK    1  A    between atoms: C_4  and  C_5
REMARK    2  A    between atoms: C_5  and  N_6
REMARK    3  A    between atoms: C_10  and  C_11
REMARK    4  A    between atoms: C_11  and  N_12
REMARK                            x       y       z     vdW  Elec       q    Type
REMARK                         _______ _______ _______ _____ _____    ______ ____
ROOT
ATOM      1  C   UNL A   1      35.858 -34.682 -31.287  0.00  0.00    +0.050 C 
ENDROOT
BRANCH   1   2
ATOM      2  N   UNL A   1      36.696 -35.613 -30.540  0.00  0.00    -0.339 N 
ATOM      3  C   UNL A   1      37.988 -35.954 -30.861  0.00  0.00    +0.023 A 
ATOM      4  C   UNL A   1      38.447 -36.840 -29.904  0.00  0.00    -0.019 A 
ATOM      5  C   UNL A   1      37.399 -37.048 -28.969  0.00  0.00    +0.003 A 
ATOM      6  C   UNL A   1      37.277 -37.830 -27.802  0.00  0.00    -0.052 A 
ATOM      7  C   UNL A   1      36.086 -37.804 -27.072  0.00  0.00    -0.061 A 
ATOM      8  C   UNL A   1      35.021 -37.012 -27.487  0.00  0.00    -0.060 A 
ATOM      9  C   UNL A   1      35.116 -36.227 -28.640  0.00  0.00    -0.038 A 
ATOM     10  C   UNL A   1      36.316 -36.260 -29.374  0.00  0.00    +0.050 A 
ATOM     11  C   UNL A   1      39.818 -37.429 -29.934  0.00  0.00    -0.025 C 
ATOM     12  C   UNL A   1      40.745 -36.630 -30.867  0.00  0.00    -0.049 C 
ATOM     13  C   UNL A   1      40.058 -36.288 -32.201  0.00  0.00    -0.047 C 
ATOM     14  C   UNL A   1      38.797 -35.429 -32.001  0.00  0.00    -0.012 C 
ENDBRANCH   1   2
BRANCH   1  19
ATOM     15  N   UNL A   1      33.389 -37.309 -32.401  0.00  0.00    -0.349 N 
ATOM     16  C   UNL A   1      32.301 -36.576 -32.738  0.00  0.00    +0.005 A 
ATOM     17  C   UNL A   1      32.315 -35.195 -32.613  0.00  0.00    -0.045 A 
ATOM     18  C   UNL A   1      33.460 -34.567 -32.141  0.00  0.00    -0.054 A 
ATOM     19  C   UNL A   1      34.578 -35.323 -31.781  0.00  0.00    -0.012 A 
ATOM     20  C   UNL A   1      34.511 -36.709 -31.938  0.00  0.00    +0.010 A 
BRANCH  15  21
ATOM     21  C   UNL A   1      33.355 -38.785 -32.576  0.00  0.00    +0.048 C 
BRANCH  21  25
ATOM     22  C   UNL A   1      35.336 -40.829 -29.337  0.00  0.00    -0.062 A 
ATOM     23  C   UNL A   1      34.081 -40.257 -29.141  0.00  0.00    -0.061 A 
ATOM     24  C   UNL A   1      33.441 -39.596 -30.190  0.00  0.00    -0.057 A 
ATOM     25  C   UNL A   1      34.058 -39.495 -31.448  0.00  0.00    -0.028 A 
ATOM     26  C   UNL A   1      35.317 -40.087 -31.637  0.00  0.00    -0.057 A 
ATOM     27  C   UNL A   1      35.952 -40.746 -30.583  0.00  0.00    -0.061 A 
ENDBRANCH  21  25
ENDBRANCH  15  21
ENDBRANCH   1  19
TORSDOF 4
ENDMDL
MODEL 2
REMARK VINA RESULT:    -8.244      2.169      6.443
REMARK INTER + INTRA:         -11.689
REMARK INTER:                 -10.759
REMARK INTRA:                  -0.930
REMARK UNBOUND:                -1.517
REMARK  Name = cpd359.pdb
REMARK  4 active torsions:
REMARK  status: ('A' for Active; 'I' for Inactive)
REMARK    1  A    between atoms: C_4  and  C_5
REMARK    2  A    between atoms: C_5  and  N_6
REMARK    3  A    between atoms: C_10  and  C_11
REMARK    4  A    between atoms: C_11  and  N_12
REMARK                            x       y       z     vdW  Elec       q    Type
REMARK                         _______ _______ _______ _____ _____    ______ ____
ROOT
ATOM      1  C   UNL A   1      37.304 -38.293 -29.100  0.00  0.00    +0.050 C 
ENDROOT
BRANCH   1   2
ATOM      2  N   UNL A   1      35.979 -38.885 -28.955  0.00  0.00    -0.339 N 
ATOM      3  C   UNL A   1      35.115 -38.655 -27.912  0.00  0.00    +0.023 A 
ATOM      4  C   UNL A   1      33.960 -39.376 -28.147  0.00  0.00    -0.019 A 
ATOM      5  C   UNL A   1      34.125 -40.072 -29.374  0.00  0.00    +0.003 A 
ATOM      6  C   UNL A   1      33.306 -40.949 -30.114  0.00  0.00    -0.052 A 
ATOM      7  C   UNL A   1      33.764 -41.468 -31.327  0.00  0.00    -0.061 A 
ATOM      8  C   UNL A   1      35.022 -41.124 -31.811  0.00  0.00    -0.060 A 
ATOM      9  C   UNL A   1      35.855 -40.257 -31.096  0.00  0.00    -0.038 A 
ATOM     10  C   UNL A   1      35.390 -39.741 -29.873  0.00  0.00    +0.050 A 
ATOM     11  C   UNL A   1      32.793 -39.369 -27.214  0.00  0.00    -0.025 C 
ATOM     12  C   UNL A   1      32.871 -38.181 -26.238  0.00  0.00    -0.049 C 
ATOM     13  C   UNL A   1      34.285 -38.010 -25.656  0.00  0.00    -0.047 C 
ATOM     14  C   UNL A   1      35.335 -37.744 -26.750  0.00  0.00    -0.012 C 
ENDBRANCH   1   2
BRANCH   1  19
ATOM     15  N   UNL A   1      38.329 -35.700 -31.644  0.00  0.00    -0.349 N 
ATOM     16  C   UNL A   1      37.375 -34.749 -31.505  0.00  0.00    +0.005 A 
ATOM     17  C   UNL A   1      36.350 -34.907 -30.583  0.00  0.00    -0.045 A 
ATOM     18  C   UNL A   1      36.312 -36.053 -29.799  0.00  0.00    -0.054 A 
ATOM     19  C   UNL A   1      37.289 -37.040 -29.951  0.00  0.00    -0.012 A 
ATOM     20  C   UNL A   1      38.303 -36.823 -30.886  0.00  0.00    +0.010 A 
BRANCH  15  21
ATOM     21  C   UNL A   1      39.432 -35.488 -32.617  0.00  0.00    +0.048 C 
BRANCH  21  25
ATOM     22  C   UNL A   1      43.221 -36.878 -31.099  0.00  0.00    -0.062 A 
ATOM     23  C   UNL A   1      42.589 -37.561 -32.134  0.00  0.00    -0.061 A 
ATOM     24  C   UNL A   1      41.362 -37.110 -32.625  0.00  0.00    -0.057 A 
ATOM     25  C   UNL A   1      40.752 -35.971 -32.075  0.00  0.00    -0.028 A 
ATOM     26  C   UNL A   1      41.406 -35.283 -31.040  0.00  0.00    -0.057 A 
ATOM     27  C   UNL A   1      42.632 -35.740 -30.554  0.00  0.00    -0.061 A 
ENDBRANCH  21  25
ENDBRANCH  15  21
ENDBRANCH   1  19
TORSDOF 4
ENDMDL
MODEL 3
REMARK VINA RESULT:    -7.965      2.454      4.832
REMARK INTER + INTRA:         -11.344
REMARK INTER:                 -10.497
REMARK INTRA:                  -0.847
REMARK UNBOUND:                -1.517
REMARK  Name = cpd359.pdb
REMARK  4 active torsions:
REMARK  status: ('A' for Active; 'I' for Inactive)
REMARK    1  A    between atoms: C_4  and  C_5
REMARK    2  A    between atoms: C_5  and  N_6
REMARK    3  A    between atoms: C_10  and  C_11
REMARK    4  A    between atoms: C_11  and  N_12
REMARK                            x       y       z     vdW  Elec       q    Type
REMARK                         _______ _______ _______ _____ _____    ______ ____
ROOT
ATOM      1  C   UNL A   1      35.398 -34.090 -31.015  0.00  0.00    +0.050 C 
ENDROOT
BRANCH   1   2
ATOM      2  N   UNL A   1      36.221 -35.155 -30.451  0.00  0.00    -0.339 N 
ATOM      3  C   UNL A   1      37.451 -35.545 -30.923  0.00  0.00    +0.023 A 
ATOM      4  C   UNL A   1      37.916 -36.562 -30.111  0.00  0.00    -0.019 A 
ATOM      5  C   UNL A   1      36.937 -36.802 -29.111  0.00  0.00    +0.003 A 
ATOM      6  C   UNL A   1      36.851 -37.700 -28.028  0.00  0.00    -0.052 A 
ATOM      7  C   UNL A   1      35.731 -37.675 -27.194  0.00  0.00    -0.061 A 
ATOM      8  C   UNL A   1      34.700 -36.770 -27.423  0.00  0.00    -0.060 A 
ATOM      9  C   UNL A   1      34.760 -35.869 -28.491  0.00  0.00    -0.038 A 
ATOM     10  C   UNL A   1      35.889 -35.901 -29.331  0.00  0.00    +0.050 A 
ATOM     11  C   UNL A   1      39.231 -37.237 -30.327  0.00  0.00    -0.025 C 
ATOM     12  C   UNL A   1      40.136 -36.403 -31.251  0.00  0.00    -0.049 C 
ATOM     13  C   UNL A   1      39.370 -35.867 -32.473  0.00  0.00    -0.047 C 
ATOM     14  C   UNL A   1      38.201 -34.952 -32.069  0.00  0.00    -0.012 C 
ENDBRANCH   1   2
BRANCH   1  19
ATOM     15  N   UNL A   1      31.781 -34.576 -31.976  0.00  0.00    -0.349 N 
ATOM     16  C   UNL A   1      31.844 -35.573 -32.890  0.00  0.00    +0.005 A 
ATOM     17  C   UNL A   1      33.064 -36.131 -33.243  0.00  0.00    -0.045 A 
ATOM     18  C   UNL A   1      34.225 -35.658 -32.646  0.00  0.00    -0.054 A 
ATOM     19  C   UNL A   1      34.162 -34.621 -31.712  0.00  0.00    -0.012 A 
ATOM     20  C   UNL A   1      32.907 -34.104 -31.387  0.00  0.00    +0.010 A 
BRANCH  15  21
ATOM     21  C   UNL A   1      30.457 -34.019 -31.595  0.00  0.00    +0.048 C 
BRANCH  21  25
ATOM     22  C   UNL A   1      30.834 -30.398 -29.285  0.00  0.00    -0.062 A 
ATOM     23  C   UNL A   1      30.754 -30.337 -30.674  0.00  0.00    -0.061 A 
ATOM     24  C   UNL A   1      30.632 -31.510 -31.420  0.00  0.00    -0.057 A 
ATOM     25  C   UNL A   1      30.596 -32.760 -30.780  0.00  0.00    -0.028 A 
ATOM     26  C   UNL A   1      30.664 -32.807 -29.378  0.00  0.00    -0.057 A 
ATOM     27  C   UNL A   1      30.786 -31.630 -28.638  0.00  0.00    -0.061 A 
ENDBRANCH  21  25
ENDBRANCH  15  21
ENDBRANCH   1  19
TORSDOF 4
ENDMDL
MODEL 4
REMARK VINA RESULT:    -7.962      1.004      3.546
REMARK INTER + INTRA:         -11.340
REMARK INTER:                  -9.432
REMARK INTRA:                  -1.908
REMARK UNBOUND:                -1.517
REMARK  Name = cpd359.pdb
REMARK  4 active torsions:
REMARK  status: ('A' for Active; 'I' for Inactive)
REMARK    1  A    between atoms: C_4  and  C_5
REMARK    2  A    between atoms: C_5  and  N_6
REMARK    3  A    between atoms: C_10  and  C_11
REMARK    4  A    between atoms: C_11  and  N_12
REMARK                            x       y       z     vdW  Elec       q    Type
REMARK                         _______ _______ _______ _____ _____    ______ ____
ROOT
ATOM      1  C   UNL A   1      34.663 -35.006 -30.834  0.00  0.00    +0.050 C 
ENDROOT
BRANCH   1   2
ATOM      2  N   UNL A   1      35.296 -35.827 -29.808  0.00  0.00    -0.339 N 
ATOM      3  C   UNL A   1      34.696 -36.254 -28.648  0.00  0.00    +0.023 A 
ATOM      4  C   UNL A   1      35.609 -37.022 -27.952  0.00  0.00    -0.019 A 
ATOM      5  C   UNL A   1      36.808 -37.064 -28.711  0.00  0.00    +0.003 A 
ATOM      6  C   UNL A   1      38.063 -37.677 -28.516  0.00  0.00    -0.052 A 
ATOM      7  C   UNL A   1      39.060 -37.538 -29.485  0.00  0.00    -0.061 A 
ATOM      8  C   UNL A   1      38.823 -36.801 -30.641  0.00  0.00    -0.060 A 
ATOM      9  C   UNL A   1      37.588 -36.183 -30.858  0.00  0.00    -0.038 A 
ATOM     10  C   UNL A   1      36.589 -36.322 -29.877  0.00  0.00    +0.050 A 
ATOM     11  C   UNL A   1      35.302 -37.655 -26.635  0.00  0.00    -0.025 C 
ATOM     12  C   UNL A   1      33.785 -37.699 -26.381  0.00  0.00    -0.049 C 
ATOM     13  C   UNL A   1      33.105 -36.366 -26.737  0.00  0.00    -0.047 C 
ATOM     14  C   UNL A   1      33.288 -35.999 -28.221  0.00  0.00    -0.012 C 
ENDBRANCH   1   2
BRANCH   1  19
ATOM     15  N   UNL A   1      33.332 -37.991 -32.720  0.00  0.00    -0.349 N 
ATOM     16  C   UNL A   1      32.597 -37.422 -33.705  0.00  0.00    +0.005 A 
ATOM     17  C   UNL A   1      32.494 -36.042 -33.800  0.00  0.00    -0.045 A 
ATOM     18  C   UNL A   1      33.156 -35.246 -32.875  0.00  0.00    -0.054 A 
ATOM     19  C   UNL A   1      33.903 -35.833 -31.850  0.00  0.00    -0.012 A 
ATOM     20  C   UNL A   1      33.981 -37.226 -31.809  0.00  0.00    +0.010 A 
BRANCH  15  21
ATOM     21  C   UNL A   1      33.449 -39.472 -32.662  0.00  0.00    +0.048 C 
BRANCH  21  25
ATOM     22  C   UNL A   1      35.565 -40.751 -29.129  0.00  0.00    -0.062 A 
ATOM     23  C   UNL A   1      36.231 -40.658 -30.348  0.00  0.00    -0.061 A 
ATOM     24  C   UNL A   1      35.545 -40.243 -31.491  0.00  0.00    -0.057 A 
ATOM     25  C   UNL A   1      34.179 -39.924 -31.424  0.00  0.00    -0.028 A 
ATOM     26  C   UNL A   1      33.522 -40.010 -30.186  0.00  0.00    -0.057 A 
ATOM     27  C   UNL A   1      34.213 -40.426 -29.047  0.00  0.00    -0.061 A 
ENDBRANCH  21  25
ENDBRANCH  15  21
ENDBRANCH   1  19
TORSDOF 4
ENDMDL
MODEL 5
REMARK VINA RESULT:    -7.932      2.148      4.390
REMARK INTER + INTRA:         -11.304
REMARK INTER:                  -9.832
REMARK INTRA:                  -1.471
REMARK UNBOUND:                -1.517
REMARK  Name = cpd359.pdb
REMARK  4 active torsions:
REMARK  status: ('A' for Active; 'I' for Inactive)
REMARK    1  A    between atoms: C_4  and  C_5
REMARK    2  A    between atoms: C_5  and  N_6
REMARK    3  A    between atoms: C_10  and  C_11
REMARK    4  A    between atoms: C_11  and  N_12
REMARK                            x       y       z     vdW  Elec       q    Type
REMARK                         _______ _______ _______ _____ _____    ______ ____
ROOT
ATOM      1  C   UNL A   1      35.755 -35.606 -31.717  0.00  0.00    +0.050 C 
ENDROOT
BRANCH   1   2
ATOM      2  N   UNL A   1      36.897 -36.216 -31.044  0.00  0.00    -0.339 N 
ATOM      3  C   UNL A   1      36.827 -37.238 -30.128  0.00  0.00    +0.023 A 
ATOM      4  C   UNL A   1      38.116 -37.551 -29.738  0.00  0.00    -0.019 A 
ATOM      5  C   UNL A   1      39.001 -36.690 -30.438  0.00  0.00    +0.003 A 
ATOM      6  C   UNL A   1      40.403 -36.538 -30.454  0.00  0.00    -0.052 A 
ATOM      7  C   UNL A   1      40.988 -35.583 -31.289  0.00  0.00    -0.061 A 
ATOM      8  C   UNL A   1      40.198 -34.781 -32.105  0.00  0.00    -0.060 A 
ATOM      9  C   UNL A   1      38.806 -34.910 -32.108  0.00  0.00    -0.038 A 
ATOM     10  C   UNL A   1      38.221 -35.870 -31.263  0.00  0.00    +0.050 A 
ATOM     11  C   UNL A   1      38.426 -38.620 -28.744  0.00  0.00    -0.025 C 
ATOM     12  C   UNL A   1      37.226 -39.564 -28.552  0.00  0.00    -0.049 C 
ATOM     13  C   UNL A   1      35.904 -38.790 -28.417  0.00  0.00    -0.047 C 
ATOM     14  C   UNL A   1      35.596 -37.944 -29.665  0.00  0.00    -0.012 C 
ENDBRANCH   1   2
BRANCH   1  19
ATOM     15  N   UNL A   1      33.058 -34.494 -29.324  0.00  0.00    -0.349 N 
ATOM     16  C   UNL A   1      33.348 -33.185 -29.131  0.00  0.00    +0.005 A 
ATOM     17  C   UNL A   1      34.437 -32.603 -29.763  0.00  0.00    -0.045 A 
ATOM     18  C   UNL A   1      35.228 -33.376 -30.603  0.00  0.00    -0.054 A 
ATOM     19  C   UNL A   1      34.937 -34.730 -30.792  0.00  0.00    -0.012 A 
ATOM     20  C   UNL A   1      33.823 -35.260 -30.138  0.00  0.00    +0.010 A 
BRANCH  15  21
ATOM     21  C   UNL A   1      31.867 -35.082 -28.657  0.00  0.00    +0.048 C 
BRANCH  21  25
ATOM     22  C   UNL A   1      32.935 -38.431 -26.160  0.00  0.00    -0.062 A 
ATOM     23  C   UNL A   1      32.090 -38.613 -27.251  0.00  0.00    -0.061 A 
ATOM     24  C   UNL A   1      31.745 -37.528 -28.059  0.00  0.00    -0.057 A 
ATOM     25  C   UNL A   1      32.240 -36.244 -27.775  0.00  0.00    -0.028 A 
ATOM     26  C   UNL A   1      33.103 -36.076 -26.679  0.00  0.00    -0.057 A 
ATOM     27  C   UNL A   1      33.443 -37.166 -25.876  0.00  0.00    -0.061 A 
ENDBRANCH  21  25
ENDBRANCH  15  21
ENDBRANCH   1  19
TORSDOF 4
ENDMDL
MODEL 6
REMARK VINA RESULT:    -7.927      2.122      4.739
REMARK INTER + INTRA:         -11.298
REMARK INTER:                 -10.244
REMARK INTRA:                  -1.053
REMARK UNBOUND:                -1.517
REMARK  Name = cpd359.pdb
REMARK  4 active torsions:
REMARK  status: ('A' for Active; 'I' for Inactive)
REMARK    1  A    between atoms: C_4  and  C_5
REMARK    2  A    between atoms: C_5  and  N_6
REMARK    3  A    between atoms: C_10  and  C_11
REMARK    4  A    between atoms: C_11  and  N_12
REMARK                            x       y       z     vdW  Elec       q    Type
REMARK                         _______ _______ _______ _____ _____    ______ ____
ROOT
ATOM      1  C   UNL A   1      37.618 -37.934 -28.549  0.00  0.00    +0.050 C 
ENDROOT
BRANCH   1   2
ATOM      2  N   UNL A   1      37.523 -36.842 -29.512  0.00  0.00    -0.339 N 
ATOM      3  C   UNL A   1      38.461 -36.543 -30.470  0.00  0.00    +0.023 A 
ATOM      4  C   UNL A   1      38.000 -35.461 -31.196  0.00  0.00    -0.019 A 
ATOM      5  C   UNL A   1      36.739 -35.087 -30.663  0.00  0.00    +0.003 A 
ATOM      6  C   UNL A   1      35.808 -34.077 -30.981  0.00  0.00    -0.052 A 
ATOM      7  C   UNL A   1      34.617 -33.978 -30.257  0.00  0.00    -0.061 A 
ATOM      8  C   UNL A   1      34.343 -34.870 -29.225  0.00  0.00    -0.060 A 
ATOM      9  C   UNL A   1      35.250 -35.880 -28.889  0.00  0.00    -0.038 A 
ATOM     10  C   UNL A   1      36.449 -35.972 -29.618  0.00  0.00    +0.050 A 
ATOM     11  C   UNL A   1      38.766 -34.855 -32.326  0.00  0.00    -0.025 C 
ATOM     12  C   UNL A   1      39.865 -35.809 -32.826  0.00  0.00    -0.049 C 
ATOM     13  C   UNL A   1      40.644 -36.447 -31.662  0.00  0.00    -0.047 C 
ATOM     14  C   UNL A   1      39.733 -37.277 -30.740  0.00  0.00    -0.012 C 
ENDBRANCH   1   2
BRANCH   1  19
ATOM     15  N   UNL A   1      34.483 -39.842 -27.671  0.00  0.00    -0.349 N 
ATOM     16  C   UNL A   1      34.334 -40.678 -28.726  0.00  0.00    +0.005 A 
ATOM     17  C   UNL A   1      35.240 -40.658 -29.776  0.00  0.00    -0.045 A 
ATOM     18  C   UNL A   1      36.309 -39.771 -29.734  0.00  0.00    -0.054 A 
ATOM     19  C   UNL A   1      36.455 -38.899 -28.651  0.00  0.00    -0.012 A 
ATOM     20  C   UNL A   1      35.519 -38.971 -27.619  0.00  0.00    +0.010 A 
BRANCH  15  21
ATOM     21  C   UNL A   1      33.513 -39.909 -26.547  0.00  0.00    +0.048 C 
BRANCH  21  25
ATOM     22  C   UNL A   1      32.716 -36.001 -24.907  0.00  0.00    -0.062 A 
ATOM     23  C   UNL A   1      33.425 -36.940 -24.164  0.00  0.00    -0.061 A 
ATOM     24  C   UNL A   1      33.683 -38.205 -24.696  0.00  0.00    -0.057 A 
ATOM     25  C   UNL A   1      33.224 -38.543 -25.979  0.00  0.00    -0.028 A 
ATOM     26  C   UNL A   1      32.521 -37.583 -26.724  0.00  0.00    -0.057 A 
ATOM     27  C   UNL A   1      32.266 -36.320 -26.186  0.00  0.00    -0.061 A 
ENDBRANCH  21  25
ENDBRANCH  15  21
ENDBRANCH   1  19
TORSDOF 4
ENDMDL
MODEL 7
REMARK VINA RESULT:    -7.921      3.066      5.503
REMARK INTER + INTRA:         -11.290
REMARK INTER:                 -10.639
REMARK INTRA:                  -0.651
REMARK UNBOUND:                -1.517
REMARK  Name = cpd359.pdb
REMARK  4 active torsions:
REMARK  status: ('A' for Active; 'I' for Inactive)
REMARK    1  A    between atoms: C_4  and  C_5
REMARK    2  A    between atoms: C_5  and  N_6
REMARK    3  A    between atoms: C_10  and  C_11
REMARK    4  A    between atoms: C_11  and  N_12
REMARK                            x       y       z     vdW  Elec       q    Type
REMARK                         _______ _______ _______ _____ _____    ______ ____
ROOT
ATOM      1  C   UNL A   1      35.400 -35.451 -31.799  0.00  0.00    +0.050 C 
ENDROOT
BRANCH   1   2
ATOM      2  N   UNL A   1      36.495 -36.031 -31.029  0.00  0.00    -0.339 N 
ATOM      3  C   UNL A   1      37.815 -36.046 -31.410  0.00  0.00    +0.023 A 
ATOM      4  C   UNL A   1      38.542 -36.662 -30.409  0.00  0.00    -0.019 A 
ATOM      5  C   UNL A   1      37.635 -37.037 -29.383  0.00  0.00    +0.003 A 
ATOM      6  C   UNL A   1      37.785 -37.687 -28.140  0.00  0.00    -0.052 A 
ATOM      7  C   UNL A   1      36.666 -37.900 -27.330  0.00  0.00    -0.061 A 
ATOM      8  C   UNL A   1      35.407 -37.476 -27.740  0.00  0.00    -0.060 A 
ATOM      9  C   UNL A   1      35.231 -36.830 -28.968  0.00  0.00    -0.038 A 
ATOM     10  C   UNL A   1      36.360 -36.621 -29.782  0.00  0.00    +0.050 A 
ATOM     11  C   UNL A   1      40.020 -36.859 -30.482  0.00  0.00    -0.025 C 
ATOM     12  C   UNL A   1      40.649 -35.951 -31.554  0.00  0.00    -0.049 C 
ATOM     13  C   UNL A   1      39.836 -35.960 -32.860  0.00  0.00    -0.047 C 
ATOM     14  C   UNL A   1      38.397 -35.455 -32.652  0.00  0.00    -0.012 C 
ENDBRANCH   1   2
BRANCH   1  19
ATOM     15  N   UNL A   1      32.653 -33.391 -30.235  0.00  0.00    -0.349 N 
ATOM     16  C   UNL A   1      33.319 -32.311 -29.760  0.00  0.00    +0.005 A 
ATOM     17  C   UNL A   1      34.693 -32.204 -29.920  0.00  0.00    -0.045 A 
ATOM     18  C   UNL A   1      35.381 -33.215 -30.576  0.00  0.00    -0.054 A 
ATOM     19  C   UNL A   1      34.696 -34.336 -31.055  0.00  0.00    -0.012 A 
ATOM     20  C   UNL A   1      33.313 -34.386 -30.875  0.00  0.00    +0.010 A 
BRANCH  15  21
ATOM     21  C   UNL A   1      31.177 -33.463 -30.076  0.00  0.00    +0.048 C 
BRANCH  21  25
ATOM     22  C   UNL A   1      29.370 -29.555 -30.317  0.00  0.00    -0.062 A 
ATOM     23  C   UNL A   1      29.643 -30.125 -29.076  0.00  0.00    -0.061 A 
ATOM     24  C   UNL A   1      30.228 -31.390 -29.000  0.00  0.00    -0.057 A 
ATOM     25  C   UNL A   1      30.539 -32.101 -30.170  0.00  0.00    -0.028 A 
ATOM     26  C   UNL A   1      30.272 -31.510 -31.416  0.00  0.00    -0.057 A 
ATOM     27  C   UNL A   1      29.686 -30.245 -31.485  0.00  0.00    -0.061 A 
ENDBRANCH  21  25
ENDBRANCH  15  21
ENDBRANCH   1  19
TORSDOF 4
ENDMDL
MODEL 8
REMARK VINA RESULT:    -7.920      1.392      4.180
REMARK INTER + INTRA:         -11.289
REMARK INTER:                  -9.632
REMARK INTRA:                  -1.657
REMARK UNBOUND:                -1.517
REMARK  Name = cpd359.pdb
REMARK  4 active torsions:
REMARK  status: ('A' for Active; 'I' for Inactive)
REMARK    1  A    between atoms: C_4  and  C_5
REMARK    2  A    between atoms: C_5  and  N_6
REMARK    3  A    between atoms: C_10  and  C_11
REMARK    4  A    between atoms: C_11  and  N_12
REMARK                            x       y       z     vdW  Elec       q    Type
REMARK                         _______ _______ _______ _____ _____    ______ ____
ROOT
ATOM      1  C   UNL A   1      36.291 -37.503 -29.220  0.00  0.00    +0.050 C 
ENDROOT
BRANCH   1   2
ATOM      2  N   UNL A   1      36.585 -36.284 -29.964  0.00  0.00    -0.339 N 
ATOM      3  C   UNL A   1      37.719 -36.058 -30.706  0.00  0.00    +0.023 A 
ATOM      4  C   UNL A   1      37.616 -34.802 -31.274  0.00  0.00    -0.019 A 
ATOM      5  C   UNL A   1      36.378 -34.241 -30.863  0.00  0.00    +0.003 A 
ATOM      6  C   UNL A   1      35.735 -33.012 -31.114  0.00  0.00    -0.052 A 
ATOM      7  C   UNL A   1      34.477 -32.762 -30.560  0.00  0.00    -0.061 A 
ATOM      8  C   UNL A   1      33.854 -33.717 -29.764  0.00  0.00    -0.060 A 
ATOM      9  C   UNL A   1      34.470 -34.944 -29.499  0.00  0.00    -0.038 A 
ATOM     10  C   UNL A   1      35.739 -35.189 -30.055  0.00  0.00    +0.050 A 
ATOM     11  C   UNL A   1      38.675 -34.217 -32.149  0.00  0.00    -0.025 C 
ATOM     12  C   UNL A   1      39.636 -35.304 -32.659  0.00  0.00    -0.049 C 
ATOM     13  C   UNL A   1      40.055 -36.271 -31.538  0.00  0.00    -0.047 C 
ATOM     14  C   UNL A   1      38.850 -37.008 -30.927  0.00  0.00    -0.012 C 
ENDBRANCH   1   2
BRANCH   1  19
ATOM     15  N   UNL A   1      34.262 -39.207 -31.907  0.00  0.00    -0.349 N 
ATOM     16  C   UNL A   1      34.542 -40.517 -31.711  0.00  0.00    +0.005 A 
ATOM     17  C   UNL A   1      35.408 -40.910 -30.701  0.00  0.00    -0.045 A 
ATOM     18  C   UNL A   1      35.985 -39.944 -29.887  0.00  0.00    -0.054 A 
ATOM     19  C   UNL A   1      35.706 -38.591 -30.098  0.00  0.00    -0.012 A 
ATOM     20  C   UNL A   1      34.820 -38.255 -31.122  0.00  0.00    +0.010 A 
BRANCH  15  21
ATOM     21  C   UNL A   1      33.306 -38.820 -32.977  0.00  0.00    +0.048 C 
BRANCH  21  25
ATOM     22  C   UNL A   1      31.977 -34.745 -32.507  0.00  0.00    -0.062 A 
ATOM     23  C   UNL A   1      31.177 -35.797 -32.068  0.00  0.00    -0.061 A 
ATOM     24  C   UNL A   1      31.609 -37.115 -32.221  0.00  0.00    -0.057 A 
ATOM     25  C   UNL A   1      32.847 -37.393 -32.823  0.00  0.00    -0.028 A 
ATOM     26  C   UNL A   1      33.650 -36.323 -33.250  0.00  0.00    -0.057 A 
ATOM     27  C   UNL A   1      33.212 -35.007 -33.095  0.00  0.00    -0.061 A 
ENDBRANCH  21  25
ENDBRANCH  15  21
ENDBRANCH   1  19
TORSDOF 4
ENDMDL
MODEL 9
REMARK VINA RESULT:    -7.837      2.162      5.540
REMARK INTER + INTRA:         -11.187
REMARK INTER:                 -10.163
REMARK INTRA:                  -1.024
REMARK UNBOUND:                -1.517
REMARK  Name = cpd359.pdb
REMARK  4 active torsions:
REMARK  status: ('A' for Active; 'I' for Inactive)
REMARK    1  A    between atoms: C_4  and  C_5
REMARK    2  A    between atoms: C_5  and  N_6
REMARK    3  A    between atoms: C_10  and  C_11
REMARK    4  A    between atoms: C_11  and  N_12
REMARK                            x       y       z     vdW  Elec       q    Type
REMARK                         _______ _______ _______ _____ _____    ______ ____
ROOT
ATOM      1  C   UNL A   1      37.653 -38.048 -28.500  0.00  0.00    +0.050 C 
ENDROOT
BRANCH   1   2
ATOM      2  N   UNL A   1      37.531 -36.961 -29.465  0.00  0.00    -0.339 N 
ATOM      3  C   UNL A   1      36.473 -36.088 -29.552  0.00  0.00    +0.023 A 
ATOM      4  C   UNL A   1      36.739 -35.195 -30.572  0.00  0.00    -0.019 A 
ATOM      5  C   UNL A   1      38.000 -35.535 -31.129  0.00  0.00    +0.003 A 
ATOM      6  C   UNL A   1      38.779 -34.999 -32.174  0.00  0.00    -0.052 A 
ATOM      7  C   UNL A   1      40.020 -35.567 -32.476  0.00  0.00    -0.061 A 
ATOM      8  C   UNL A   1      40.492 -36.656 -31.751  0.00  0.00    -0.060 A 
ATOM      9  C   UNL A   1      39.738 -37.208 -30.710  0.00  0.00    -0.038 A 
ATOM     10  C   UNL A   1      38.488 -36.635 -30.413  0.00  0.00    +0.050 A 
ATOM     11  C   UNL A   1      35.801 -34.098 -30.956  0.00  0.00    -0.025 C 
ATOM     12  C   UNL A   1      34.767 -33.839 -29.846  0.00  0.00    -0.049 C 
ATOM     13  C   UNL A   1      34.184 -35.149 -29.289  0.00  0.00    -0.047 C 
ATOM     14  C   UNL A   1      35.267 -36.051 -28.672  0.00  0.00    -0.012 C 
ENDBRANCH   1   2
BRANCH   1  19
ATOM     15  N   UNL A   1      34.562 -40.059 -27.697  0.00  0.00    -0.349 N 
ATOM     16  C   UNL A   1      34.487 -40.924 -28.737  0.00  0.00    +0.005 A 
ATOM     17  C   UNL A   1      35.433 -40.892 -29.751  0.00  0.00    -0.045 A 
ATOM     18  C   UNL A   1      36.464 -39.963 -29.689  0.00  0.00    -0.054 A 
ATOM     19  C   UNL A   1      36.534 -39.061 -28.624  0.00  0.00    -0.012 A 
ATOM     20  C   UNL A   1      35.560 -39.147 -27.626  0.00  0.00    +0.010 A 
BRANCH  15  21
ATOM     21  C   UNL A   1      33.552 -40.139 -26.610  0.00  0.00    +0.048 C 
BRANCH  21  25
ATOM     22  C   UNL A   1      32.660 -36.245 -24.987  0.00  0.00    -0.062 A 
ATOM     23  C   UNL A   1      33.356 -37.179 -24.224  0.00  0.00    -0.061 A 
ATOM     24  C   UNL A   1      33.644 -38.439 -24.751  0.00  0.00    -0.057 A 
ATOM     25  C   UNL A   1      33.230 -38.779 -26.049  0.00  0.00    -0.028 A 
ATOM     26  C   UNL A   1      32.540 -37.823 -26.813  0.00  0.00    -0.057 A 
ATOM     27  C   UNL A   1      32.254 -36.566 -26.280  0.00  0.00    -0.061 A 
ENDBRANCH  21  25
ENDBRANCH  15  21
ENDBRANCH   1  19
TORSDOF 4
ENDMDL
MODEL 10
REMARK VINA RESULT:    -7.723      2.851      5.938
REMARK INTER + INTRA:         -11.046
REMARK INTER:                  -9.983
REMARK INTRA:                  -1.062
REMARK UNBOUND:                -1.517
REMARK  Name = cpd359.pdb
REMARK  4 active torsions:
REMARK  status: ('A' for Active; 'I' for Inactive)
REMARK    1  A    between atoms: C_4  and  C_5
REMARK    2  A    between atoms: C_5  and  N_6
REMARK    3  A    between atoms: C_10  and  C_11
REMARK    4  A    between atoms: C_11  and  N_12
REMARK                            x       y       z     vdW  Elec       q    Type
REMARK                         _______ _______ _______ _____ _____    ______ ____
ROOT
ATOM      1  C   UNL A   1      35.429 -35.693 -31.801  0.00  0.00    +0.050 C 
ENDROOT
BRANCH   1   2
ATOM      2  N   UNL A   1      36.556 -36.311 -31.111  0.00  0.00    -0.339 N 
ATOM      3  C   UNL A   1      36.467 -37.343 -30.208  0.00  0.00    +0.023 A 
ATOM      4  C   UNL A   1      37.747 -37.662 -29.796  0.00  0.00    -0.019 A 
ATOM      5  C   UNL A   1      38.647 -36.795 -30.470  0.00  0.00    +0.003 A 
ATOM      6  C   UNL A   1      40.049 -36.646 -30.456  0.00  0.00    -0.052 A 
ATOM      7  C   UNL A   1      40.652 -35.683 -31.269  0.00  0.00    -0.061 A 
ATOM      8  C   UNL A   1      39.879 -34.871 -32.092  0.00  0.00    -0.060 A 
ATOM      9  C   UNL A   1      38.487 -34.997 -32.124  0.00  0.00    -0.038 A 
ATOM     10  C   UNL A   1      37.885 -35.966 -31.300  0.00  0.00    +0.050 A 
ATOM     11  C   UNL A   1      38.037 -38.742 -28.807  0.00  0.00    -0.025 C 
ATOM     12  C   UNL A   1      36.832 -39.686 -28.648  0.00  0.00    -0.049 C 
ATOM     13  C   UNL A   1      35.508 -38.912 -28.531  0.00  0.00    -0.047 C 
ATOM     14  C   UNL A   1      35.226 -38.052 -29.776  0.00  0.00    -0.012 C 
ENDBRANCH   1   2
BRANCH   1  19
ATOM     15  N   UNL A   1      32.585 -34.046 -29.945  0.00  0.00    -0.349 N 
ATOM     16  C   UNL A   1      33.183 -32.980 -29.363  0.00  0.00    +0.005 A 
ATOM     17  C   UNL A   1      34.539 -32.747 -29.540  0.00  0.00    -0.045 A 
ATOM     18  C   UNL A   1      35.281 -33.620 -30.325  0.00  0.00    -0.054 A 
ATOM     19  C   UNL A   1      34.667 -34.728 -30.915  0.00  0.00    -0.012 A 
ATOM     20  C   UNL A   1      33.297 -34.907 -30.711  0.00  0.00    +0.010 A 
BRANCH  15  21
ATOM     21  C   UNL A   1      31.124 -34.251 -29.763  0.00  0.00    +0.048 C 
BRANCH  21  25
ATOM     22  C   UNL A   1      28.867 -30.808 -31.043  0.00  0.00    -0.062 A 
ATOM     23  C   UNL A   1      28.902 -31.161 -29.697  0.00  0.00    -0.061 A 
ATOM     24  C   UNL A   1      29.633 -32.276 -29.284  0.00  0.00    -0.057 A 
ATOM     25  C   UNL A   1      30.333 -33.054 -30.220  0.00  0.00    -0.028 A 
ATOM     26  C   UNL A   1      30.300 -32.680 -31.573  0.00  0.00    -0.057 A 
ATOM     27  C   UNL A   1      29.566 -31.565 -31.980  0.00  0.00    -0.061 A 
ENDBRANCH  21  25
ENDBRANCH  15  21
ENDBRANCH   1  19
TORSDOF 4
ENDMDL
MODEL 11
REMARK VINA RESULT:    -7.548      1.417      4.948
REMARK INTER + INTRA:         -10.830
REMARK INTER:                  -9.311
REMARK INTRA:                  -1.519
REMARK UNBOUND:                -1.517
REMARK  Name = cpd359.pdb
REMARK  4 active torsions:
REMARK  status: ('A' for Active; 'I' for Inactive)
REMARK    1  A    between atoms: C_4  and  C_5
REMARK    2  A    between atoms: C_5  and  N_6
REMARK    3  A    between atoms: C_10  and  C_11
REMARK    4  A    between atoms: C_11  and  N_12
REMARK                            x       y       z     vdW  Elec       q    Type
REMARK                         _______ _______ _______ _____ _____    ______ ____
ROOT
ATOM      1  C   UNL A   1      36.170 -37.647 -28.896  0.00  0.00    +0.050 C 
ENDROOT
BRANCH   1   2
ATOM      2  N   UNL A   1      36.436 -36.450 -29.687  0.00  0.00    -0.339 N 
ATOM      3  C   UNL A   1      35.606 -35.360 -29.784  0.00  0.00    +0.023 A 
ATOM      4  C   UNL A   1      36.217 -34.429 -30.603  0.00  0.00    -0.019 A 
ATOM      5  C   UNL A   1      37.461 -34.971 -31.022  0.00  0.00    +0.003 A 
ATOM      6  C   UNL A   1      38.500 -34.497 -31.849  0.00  0.00    -0.052 A 
ATOM      7  C   UNL A   1      39.635 -35.285 -32.056  0.00  0.00    -0.061 A 
ATOM      8  C   UNL A   1      39.747 -36.533 -31.452  0.00  0.00    -0.060 A 
ATOM      9  C   UNL A   1      38.731 -37.026 -30.628  0.00  0.00    -0.038 A 
ATOM     10  C   UNL A   1      37.588 -36.231 -30.426  0.00  0.00    +0.050 A 
ATOM     11  C   UNL A   1      35.598 -33.112 -30.939  0.00  0.00    -0.025 C 
ATOM     12  C   UNL A   1      34.461 -32.768 -29.961  0.00  0.00    -0.049 C 
ATOM     13  C   UNL A   1      33.541 -33.974 -29.705  0.00  0.00    -0.047 C 
ATOM     14  C   UNL A   1      34.299 -35.164 -29.089  0.00  0.00    -0.012 C 
ENDBRANCH   1   2
BRANCH   1  19
ATOM     15  N   UNL A   1      34.128 -39.658 -31.351  0.00  0.00    -0.349 N 
ATOM     16  C   UNL A   1      34.699 -40.884 -31.285  0.00  0.00    +0.005 A 
ATOM     17  C   UNL A   1      35.778 -41.115 -30.444  0.00  0.00    -0.045 A 
ATOM     18  C   UNL A   1      36.268 -40.074 -29.666  0.00  0.00    -0.054 A 
ATOM     19  C   UNL A   1      35.688 -38.806 -29.744  0.00  0.00    -0.012 A 
ATOM     20  C   UNL A   1      34.597 -38.634 -30.599  0.00  0.00    +0.010 A 
BRANCH  15  21
ATOM     21  C   UNL A   1      32.953 -39.449 -32.237  0.00  0.00    +0.048 C 
BRANCH  21  25
ATOM     22  C   UNL A   1      32.057 -35.260 -32.728  0.00  0.00    -0.062 A 
ATOM     23  C   UNL A   1      31.118 -36.115 -32.157  0.00  0.00    -0.061 A 
ATOM     24  C   UNL A   1      31.409 -37.470 -31.998  0.00  0.00    -0.057 A 
ATOM     25  C   UNL A   1      32.646 -37.986 -32.419  0.00  0.00    -0.028 A 
ATOM     26  C   UNL A   1      33.590 -37.111 -32.982  0.00  0.00    -0.057 A 
ATOM     27  C   UNL A   1      33.292 -35.757 -33.138  0.00  0.00    -0.061 A 
ENDBRANCH  21  25
ENDBRANCH  15  21
ENDBRANCH   1  19
TORSDOF 4
ENDMDL
MODEL 12
REMARK VINA RESULT:    -7.375     18.724     22.066
REMARK INTER + INTRA:         -10.617
REMARK INTER:                  -8.734
REMARK INTRA:                  -1.883
REMARK UNBOUND:                -1.517
REMARK  Name = cpd359.pdb
REMARK  4 active torsions:
REMARK  status: ('A' for Active; 'I' for Inactive)
REMARK    1  A    between atoms: C_4  and  C_5
REMARK    2  A    between atoms: C_5  and  N_6
REMARK    3  A    between atoms: C_10  and  C_11
REMARK    4  A    between atoms: C_11  and  N_12
REMARK                            x       y       z     vdW  Elec       q    Type
REMARK                         _______ _______ _______ _____ _____    ______ ____
ROOT
ATOM      1  C   UNL A   1      43.318 -20.894 -41.335  0.00  0.00    +0.050 C 
ENDROOT
BRANCH   1   2
ATOM      2  N   UNL A   1      44.703 -20.438 -41.322  0.00  0.00    -0.339 N 
ATOM      3  C   UNL A   1      45.807 -21.239 -41.491  0.00  0.00    +0.023 A 
ATOM      4  C   UNL A   1      46.930 -20.436 -41.436  0.00  0.00    -0.019 A 
ATOM      5  C   UNL A   1      46.499 -19.100 -41.225  0.00  0.00    +0.003 A 
ATOM      6  C   UNL A   1      47.173 -17.870 -41.085  0.00  0.00    -0.052 A 
ATOM      7  C   UNL A   1      46.440 -16.695 -40.899  0.00  0.00    -0.061 A 
ATOM      8  C   UNL A   1      45.050 -16.730 -40.852  0.00  0.00    -0.060 A 
ATOM      9  C   UNL A   1      44.357 -17.937 -40.988  0.00  0.00    -0.038 A 
ATOM     10  C   UNL A   1      45.100 -19.118 -41.170  0.00  0.00    +0.050 A 
ATOM     11  C   UNL A   1      48.318 -20.969 -41.580  0.00  0.00    -0.025 C 
ATOM     12  C   UNL A   1      48.309 -22.380 -42.196  0.00  0.00    -0.049 C 
ATOM     13  C   UNL A   1      47.233 -23.277 -41.559  0.00  0.00    -0.047 C 
ATOM     14  C   UNL A   1      45.815 -22.709 -41.750  0.00  0.00    -0.012 C 
ENDBRANCH   1   2
BRANCH   1  19
ATOM     15  N   UNL A   1      43.071 -20.950 -37.570  0.00  0.00    -0.349 N 
ATOM     16  C   UNL A   1      41.853 -21.502 -37.356  0.00  0.00    +0.005 A 
ATOM     17  C   UNL A   1      41.051 -21.877 -38.425  0.00  0.00    -0.045 A 
ATOM     18  C   UNL A   1      41.511 -21.683 -39.720  0.00  0.00    -0.054 A 
ATOM     19  C   UNL A   1      42.763 -21.101 -39.941  0.00  0.00    -0.012 A 
ATOM     20  C   UNL A   1      43.531 -20.754 -38.829  0.00  0.00    +0.010 A 
BRANCH  15  21
ATOM     21  C   UNL A   1      43.921 -20.588 -36.406  0.00  0.00    +0.048 C 
BRANCH  21  25
ATOM     22  C   UNL A   1      47.076 -17.861 -37.499  0.00  0.00    -0.062 A 
ATOM     23  C   UNL A   1      45.825 -17.373 -37.133  0.00  0.00    -0.061 A 
ATOM     24  C   UNL A   1      44.804 -18.257 -36.779  0.00  0.00    -0.057 A 
ATOM     25  C   UNL A   1      45.027 -19.643 -36.796  0.00  0.00    -0.028 A 
ATOM     26  C   UNL A   1      46.298 -20.123 -37.154  0.00  0.00    -0.057 A 
ATOM     27  C   UNL A   1      47.313 -19.233 -37.507  0.00  0.00    -0.061 A 
ENDBRANCH  21  25
ENDBRANCH  15  21
ENDBRANCH   1  19
TORSDOF 4
ENDMDL
MODEL 13
REMARK VINA RESULT:    -7.261      1.581      5.965
REMARK INTER + INTRA:         -10.475
REMARK INTER:                  -8.781
REMARK INTRA:                  -1.695
REMARK UNBOUND:                -1.517
REMARK  Name = cpd359.pdb
REMARK  4 active torsions:
REMARK  status: ('A' for Active; 'I' for Inactive)
REMARK    1  A    between atoms: C_4  and  C_5
REMARK    2  A    between atoms: C_5  and  N_6
REMARK    3  A    between atoms: C_10  and  C_11
REMARK    4  A    between atoms: C_11  and  N_12
REMARK                            x       y       z     vdW  Elec       q    Type
REMARK                         _______ _______ _______ _____ _____    ______ ____
ROOT
ATOM      1  C   UNL A   1      37.397 -38.693 -28.555  0.00  0.00    +0.050 C 
ENDROOT
BRANCH   1   2
ATOM      2  N   UNL A   1      35.972 -38.793 -28.847  0.00  0.00    -0.339 N 
ATOM      3  C   UNL A   1      34.970 -38.159 -28.152  0.00  0.00    +0.023 A 
ATOM      4  C   UNL A   1      33.765 -38.485 -28.745  0.00  0.00    -0.019 A 
ATOM      5  C   UNL A   1      34.040 -39.348 -29.838  0.00  0.00    +0.003 A 
ATOM      6  C   UNL A   1      33.232 -39.996 -30.795  0.00  0.00    -0.052 A 
ATOM      7  C   UNL A   1      33.824 -40.788 -31.781  0.00  0.00    -0.061 A 
ATOM      8  C   UNL A   1      35.206 -40.942 -31.827  0.00  0.00    -0.060 A 
ATOM      9  C   UNL A   1      36.030 -40.312 -30.890  0.00  0.00    -0.038 A 
ATOM     10  C   UNL A   1      35.428 -39.518 -29.896  0.00  0.00    +0.050 A 
ATOM     11  C   UNL A   1      32.452 -37.975 -28.250  0.00  0.00    -0.025 C 
ATOM     12  C   UNL A   1      32.642 -36.764 -27.320  0.00  0.00    -0.049 C 
ATOM     13  C   UNL A   1      33.776 -36.992 -26.306  0.00  0.00    -0.047 C 
ATOM     14  C   UNL A   1      35.133 -37.229 -26.995  0.00  0.00    -0.012 C 
ENDBRANCH   1   2
BRANCH   1  19
ATOM     15  N   UNL A   1      37.972 -35.716 -30.802  0.00  0.00    -0.349 N 
ATOM     16  C   UNL A   1      39.288 -35.817 -31.105  0.00  0.00    +0.005 A 
ATOM     17  C   UNL A   1      40.053 -36.853 -30.589  0.00  0.00    -0.045 A 
ATOM     18  C   UNL A   1      39.454 -37.791 -29.758  0.00  0.00    -0.054 A 
ATOM     19  C   UNL A   1      38.100 -37.680 -29.435  0.00  0.00    -0.012 A 
ATOM     20  C   UNL A   1      37.376 -36.623 -29.991  0.00  0.00    +0.010 A 
BRANCH  15  21
ATOM     21  C   UNL A   1      37.171 -34.614 -31.395  0.00  0.00    +0.048 C 
BRANCH  21  25
ATOM     22  C   UNL A   1      33.081 -34.673 -30.032  0.00  0.00    -0.062 A 
ATOM     23  C   UNL A   1      33.997 -33.797 -29.457  0.00  0.00    -0.061 A 
ATOM     24  C   UNL A   1      35.321 -33.779 -29.899  0.00  0.00    -0.057 A 
ATOM     25  C   UNL A   1      35.742 -34.646 -30.921  0.00  0.00    -0.028 A 
ATOM     26  C   UNL A   1      34.804 -35.516 -31.501  0.00  0.00    -0.057 A 
ATOM     27  C   UNL A   1      33.483 -35.529 -31.054  0.00  0.00    -0.061 A 
ENDBRANCH  21  25
ENDBRANCH  15  21
ENDBRANCH   1  19
TORSDOF 4
ENDMDL
MODEL 14
REMARK VINA RESULT:    -6.915     16.626     20.014
REMARK INTER + INTRA:         -10.049
REMARK INTER:                  -8.486
REMARK INTRA:                  -1.563
REMARK UNBOUND:                -1.517
REMARK  Name = cpd359.pdb
REMARK  4 active torsions:
REMARK  status: ('A' for Active; 'I' for Inactive)
REMARK    1  A    between atoms: C_4  and  C_5
REMARK    2  A    between atoms: C_5  and  N_6
REMARK    3  A    between atoms: C_10  and  C_11
REMARK    4  A    between atoms: C_11  and  N_12
REMARK                            x       y       z     vdW  Elec       q    Type
REMARK                         _______ _______ _______ _____ _____    ______ ____
ROOT
ATOM      1  C   UNL A   1      42.859 -19.193 -35.881  0.00  0.00    +0.050 C 
ENDROOT
BRANCH   1   2
ATOM      2  N   UNL A   1      42.000 -20.331 -36.190  0.00  0.00    -0.339 N 
ATOM      3  C   UNL A   1      41.706 -20.787 -37.452  0.00  0.00    +0.023 A 
ATOM      4  C   UNL A   1      40.884 -21.891 -37.327  0.00  0.00    -0.019 A 
ATOM      5  C   UNL A   1      40.667 -22.115 -35.942  0.00  0.00    +0.003 A 
ATOM      6  C   UNL A   1      39.929 -23.071 -35.214  0.00  0.00    -0.052 A 
ATOM      7  C   UNL A   1      39.930 -23.031 -33.818  0.00  0.00    -0.061 A 
ATOM      8  C   UNL A   1      40.654 -22.056 -33.140  0.00  0.00    -0.060 A 
ATOM      9  C   UNL A   1      41.393 -21.096 -33.838  0.00  0.00    -0.038 A 
ATOM     10  C   UNL A   1      41.385 -21.137 -35.244  0.00  0.00    +0.050 A 
ATOM     11  C   UNL A   1      40.359 -22.650 -38.501  0.00  0.00    -0.025 C 
ATOM     12  C   UNL A   1      41.160 -22.326 -39.774  0.00  0.00    -0.049 C 
ATOM     13  C   UNL A   1      41.414 -20.816 -39.923  0.00  0.00    -0.047 C 
ATOM     14  C   UNL A   1      42.221 -20.243 -38.744  0.00  0.00    -0.012 C 
ENDBRANCH   1   2
BRANCH   1  19
ATOM     15  N   UNL A   1      46.449 -19.797 -36.875  0.00  0.00    -0.349 N 
ATOM     16  C   UNL A   1      46.991 -20.312 -35.746  0.00  0.00    +0.005 A 
ATOM     17  C   UNL A   1      46.219 -20.482 -34.607  0.00  0.00    -0.045 A 
ATOM     18  C   UNL A   1      44.878 -20.121 -34.634  0.00  0.00    -0.054 A 
ATOM     19  C   UNL A   1      44.322 -19.577 -35.795  0.00  0.00    -0.012 A 
ATOM     20  C   UNL A   1      45.143 -19.439 -36.915  0.00  0.00    +0.010 A 
BRANCH  15  21
ATOM     21  C   UNL A   1      47.294 -19.656 -38.090  0.00  0.00    +0.048 C 
BRANCH  21  25
ATOM     22  C   UNL A   1      45.432 -21.501 -41.514  0.00  0.00    -0.062 A 
ATOM     23  C   UNL A   1      45.837 -22.279 -40.434  0.00  0.00    -0.061 A 
ATOM     24  C   UNL A   1      46.439 -21.681 -39.326  0.00  0.00    -0.057 A 
ATOM     25  C   UNL A   1      46.649 -20.293 -39.293  0.00  0.00    -0.028 A 
ATOM     26  C   UNL A   1      46.223 -19.517 -40.384  0.00  0.00    -0.057 A 
ATOM     27  C   UNL A   1      45.622 -20.121 -41.489  0.00  0.00    -0.061 A 
ENDBRANCH  21  25
ENDBRANCH  15  21
ENDBRANCH   1  19
TORSDOF 4
ENDMDL
MODEL 15
REMARK VINA RESULT:    -6.909     17.152     20.628
REMARK INTER + INTRA:         -10.041
REMARK INTER:                  -8.561
REMARK INTRA:                  -1.480
REMARK UNBOUND:                -1.517
REMARK  Name = cpd359.pdb
REMARK  4 active torsions:
REMARK  status: ('A' for Active; 'I' for Inactive)
REMARK    1  A    between atoms: C_4  and  C_5
REMARK    2  A    between atoms: C_5  and  N_6
REMARK    3  A    between atoms: C_10  and  C_11
REMARK    4  A    between atoms: C_11  and  N_12
REMARK                            x       y       z     vdW  Elec       q    Type
REMARK                         _______ _______ _______ _____ _____    ______ ____
ROOT
ATOM      1  C   UNL A   1      42.783 -18.890 -36.450  0.00  0.00    +0.050 C 
ENDROOT
BRANCH   1   2
ATOM      2  N   UNL A   1      42.019 -20.133 -36.457  0.00  0.00    -0.339 N 
ATOM      3  C   UNL A   1      41.559 -20.791 -35.343  0.00  0.00    +0.023 A 
ATOM      4  C   UNL A   1      40.865 -21.910 -35.763  0.00  0.00    -0.019 A 
ATOM      5  C   UNL A   1      40.905 -21.937 -37.182  0.00  0.00    +0.003 A 
ATOM      6  C   UNL A   1      40.387 -22.817 -38.154  0.00  0.00    -0.052 A 
ATOM      7  C   UNL A   1      40.590 -22.549 -39.510  0.00  0.00    -0.061 A 
ATOM      8  C   UNL A   1      41.298 -21.420 -39.908  0.00  0.00    -0.060 A 
ATOM      9  C   UNL A   1      41.822 -20.531 -38.964  0.00  0.00    -0.038 A 
ATOM     10  C   UNL A   1      41.619 -20.808 -37.600  0.00  0.00    +0.050 A 
ATOM     11  C   UNL A   1      40.223 -22.870 -34.817  0.00  0.00    -0.025 C 
ATOM     12  C   UNL A   1      40.070 -22.251 -33.416  0.00  0.00    -0.049 C 
ATOM     13  C   UNL A   1      41.347 -21.518 -32.972  0.00  0.00    -0.047 C 
ATOM     14  C   UNL A   1      41.714 -20.362 -33.921  0.00  0.00    -0.012 C 
ENDBRANCH   1   2
BRANCH   1  19
ATOM     15  N   UNL A   1      46.050 -18.987 -38.335  0.00  0.00    -0.349 N 
ATOM     16  C   UNL A   1      46.901 -19.531 -37.434  0.00  0.00    +0.005 A 
ATOM     17  C   UNL A   1      46.457 -19.887 -36.169  0.00  0.00    -0.045 A 
ATOM     18  C   UNL A   1      45.125 -19.682 -35.834  0.00  0.00    -0.054 A 
ATOM     19  C   UNL A   1      44.249 -19.108 -36.759  0.00  0.00    -0.012 A 
ATOM     20  C   UNL A   1      44.748 -18.780 -38.021  0.00  0.00    +0.010 A 
BRANCH  15  21
ATOM     21  C   UNL A   1      46.548 -18.646 -39.693  0.00  0.00    +0.048 C 
BRANCH  21  25
ATOM     22  C   UNL A   1      44.682 -21.043 -42.753  0.00  0.00    -0.062 A 
ATOM     23  C   UNL A   1      44.428 -19.676 -42.684  0.00  0.00    -0.061 A 
ATOM     24  C   UNL A   1      45.033 -18.902 -41.693  0.00  0.00    -0.057 A 
ATOM     25  C   UNL A   1      45.895 -19.493 -40.755  0.00  0.00    -0.028 A 
ATOM     26  C   UNL A   1      46.153 -20.870 -40.844  0.00  0.00    -0.057 A 
ATOM     27  C   UNL A   1      45.545 -21.639 -41.837  0.00  0.00    -0.061 A 
ENDBRANCH  21  25
ENDBRANCH  15  21
ENDBRANCH   1  19
TORSDOF 4
ENDMDL
MODEL 16
REMARK VINA RESULT:    -6.892     16.793     20.356
REMARK INTER + INTRA:         -10.020
REMARK INTER:                  -8.349
REMARK INTRA:                  -1.670
REMARK UNBOUND:                -1.517
REMARK  Name = cpd359.pdb
REMARK  4 active torsions:
REMARK  status: ('A' for Active; 'I' for Inactive)
REMARK    1  A    between atoms: C_4  and  C_5
REMARK    2  A    between atoms: C_5  and  N_6
REMARK    3  A    between atoms: C_10  and  C_11
REMARK    4  A    between atoms: C_11  and  N_12
REMARK                            x       y       z     vdW  Elec       q    Type
REMARK                         _______ _______ _______ _____ _____    ______ ____
ROOT
ATOM      1  C   UNL A   1      42.895 -18.986 -35.894  0.00  0.00    +0.050 C 
ENDROOT
BRANCH   1   2
ATOM      2  N   UNL A   1      42.092 -20.166 -36.195  0.00  0.00    -0.339 N 
ATOM      3  C   UNL A   1      41.377 -20.898 -35.278  0.00  0.00    +0.023 A 
ATOM      4  C   UNL A   1      40.735 -21.918 -35.953  0.00  0.00    -0.019 A 
ATOM      5  C   UNL A   1      41.070 -21.807 -37.328  0.00  0.00    +0.003 A 
ATOM      6  C   UNL A   1      40.727 -22.548 -38.477  0.00  0.00    -0.052 A 
ATOM      7  C   UNL A   1      41.222 -22.162 -39.725  0.00  0.00    -0.061 A 
ATOM      8  C   UNL A   1      42.050 -21.051 -39.842  0.00  0.00    -0.060 A 
ATOM      9  C   UNL A   1      42.407 -20.299 -38.718  0.00  0.00    -0.038 A 
ATOM     10  C   UNL A   1      41.909 -20.695 -37.464  0.00  0.00    +0.050 A 
ATOM     11  C   UNL A   1      39.864 -22.921 -35.271  0.00  0.00    -0.025 C 
ATOM     12  C   UNL A   1      39.451 -22.435 -33.870  0.00  0.00    -0.049 C 
ATOM     13  C   UNL A   1      40.639 -21.840 -33.096  0.00  0.00    -0.047 C 
ATOM     14  C   UNL A   1      41.251 -20.624 -33.815  0.00  0.00    -0.012 C 
ENDBRANCH   1   2
BRANCH   1  19
ATOM     15  N   UNL A   1      46.472 -19.489 -36.986  0.00  0.00    -0.349 N 
ATOM     16  C   UNL A   1      47.081 -19.892 -35.845  0.00  0.00    +0.005 A 
ATOM     17  C   UNL A   1      46.361 -20.014 -34.666  0.00  0.00    -0.045 A 
ATOM     18  C   UNL A   1      45.003 -19.720 -34.666  0.00  0.00    -0.054 A 
ATOM     19  C   UNL A   1      44.377 -19.292 -35.839  0.00  0.00    -0.012 A 
ATOM     20  C   UNL A   1      45.149 -19.198 -36.999  0.00  0.00    +0.010 A 
BRANCH  15  21
ATOM     21  C   UNL A   1      47.263 -19.399 -38.241  0.00  0.00    +0.048 C 
BRANCH  21  25
ATOM     22  C   UNL A   1      45.479 -21.663 -41.447  0.00  0.00    -0.062 A 
ATOM     23  C   UNL A   1      45.496 -20.272 -41.498  0.00  0.00    -0.061 A 
ATOM     24  C   UNL A   1      46.074 -19.540 -40.460  0.00  0.00    -0.057 A 
ATOM     25  C   UNL A   1      46.635 -20.198 -39.353  0.00  0.00    -0.028 A 
ATOM     26  C   UNL A   1      46.623 -21.602 -39.320  0.00  0.00    -0.057 A 
ATOM     27  C   UNL A   1      46.043 -22.327 -40.361  0.00  0.00    -0.061 A 
ENDBRANCH  21  25
ENDBRANCH  15  21
ENDBRANCH   1  19
TORSDOF 4
ENDMDL
MODEL 17
REMARK VINA RESULT:    -6.818     16.953     20.094
REMARK INTER + INTRA:          -9.929
REMARK INTER:                  -8.771
REMARK INTRA:                  -1.158
REMARK UNBOUND:                -1.517
REMARK  Name = cpd359.pdb
REMARK  4 active torsions:
REMARK  status: ('A' for Active; 'I' for Inactive)
REMARK    1  A    between atoms: C_4  and  C_5
REMARK    2  A    between atoms: C_5  and  N_6
REMARK    3  A    between atoms: C_10  and  C_11
REMARK    4  A    between atoms: C_11  and  N_12
REMARK                            x       y       z     vdW  Elec       q    Type
REMARK                         _______ _______ _______ _____ _____    ______ ____
ROOT
ATOM      1  C   UNL A   1      41.069 -19.133 -37.654  0.00  0.00    +0.050 C 
ENDROOT
BRANCH   1   2
ATOM      2  N   UNL A   1      41.592 -19.557 -36.360  0.00  0.00    -0.339 N 
ATOM      3  C   UNL A   1      40.958 -20.405 -35.485  0.00  0.00    +0.023 A 
ATOM      4  C   UNL A   1      41.779 -20.579 -34.387  0.00  0.00    -0.019 A 
ATOM      5  C   UNL A   1      42.954 -19.810 -34.598  0.00  0.00    +0.003 A 
ATOM      6  C   UNL A   1      44.125 -19.593 -33.843  0.00  0.00    -0.052 A 
ATOM      7  C   UNL A   1      45.133 -18.769 -34.350  0.00  0.00    -0.061 A 
ATOM      8  C   UNL A   1      44.991 -18.163 -35.594  0.00  0.00    -0.060 A 
ATOM      9  C   UNL A   1      43.840 -18.362 -36.362  0.00  0.00    -0.038 A 
ATOM     10  C   UNL A   1      42.825 -19.188 -35.846  0.00  0.00    +0.050 A 
ATOM     11  C   UNL A   1      41.411 -21.441 -33.225  0.00  0.00    -0.025 C 
ATOM     12  C   UNL A   1      40.260 -22.397 -33.587  0.00  0.00    -0.049 C 
ATOM     13  C   UNL A   1      39.140 -21.680 -34.360  0.00  0.00    -0.047 C 
ATOM     14  C   UNL A   1      39.642 -21.082 -35.686  0.00  0.00    -0.012 C 
ENDBRANCH   1   2
BRANCH   1  19
ATOM     15  N   UNL A   1      43.007 -20.532 -40.574  0.00  0.00    -0.349 N 
ATOM     16  C   UNL A   1      42.306 -21.645 -40.896  0.00  0.00    +0.005 A 
ATOM     17  C   UNL A   1      41.173 -21.998 -40.176  0.00  0.00    -0.045 A 
ATOM     18  C   UNL A   1      40.762 -21.195 -39.120  0.00  0.00    -0.054 A 
ATOM     19  C   UNL A   1      41.493 -20.053 -38.780  0.00  0.00    -0.012 A 
ATOM     20  C   UNL A   1      42.618 -19.741 -39.546  0.00  0.00    +0.010 A 
BRANCH  15  21
ATOM     21  C   UNL A   1      44.197 -20.163 -41.384  0.00  0.00    +0.048 C 
BRANCH  21  25
ATOM     22  C   UNL A   1      47.150 -23.305 -41.449  0.00  0.00    -0.062 A 
ATOM     23  C   UNL A   1      46.394 -23.032 -42.585  0.00  0.00    -0.061 A 
ATOM     24  C   UNL A   1      45.439 -22.014 -42.563  0.00  0.00    -0.057 A 
ATOM     25  C   UNL A   1      45.226 -21.264 -41.395  0.00  0.00    -0.028 A 
ATOM     26  C   UNL A   1      46.004 -21.541 -40.259  0.00  0.00    -0.057 A 
ATOM     27  C   UNL A   1      46.957 -22.560 -40.288  0.00  0.00    -0.061 A 
ENDBRANCH  21  25
ENDBRANCH  15  21
ENDBRANCH   1  19
TORSDOF 4
ENDMDL
MODEL 18
REMARK VINA RESULT:    -6.761     16.468     19.914
REMARK INTER + INTRA:          -9.859
REMARK INTER:                  -8.865
REMARK INTRA:                  -0.994
REMARK UNBOUND:                -1.517
REMARK  Name = cpd359.pdb
REMARK  4 active torsions:
REMARK  status: ('A' for Active; 'I' for Inactive)
REMARK    1  A    between atoms: C_4  and  C_5
REMARK    2  A    between atoms: C_5  and  N_6
REMARK    3  A    between atoms: C_10  and  C_11
REMARK    4  A    between atoms: C_11  and  N_12
REMARK                            x       y       z     vdW  Elec       q    Type
REMARK                         _______ _______ _______ _____ _____    ______ ____
ROOT
ATOM      1  C   UNL A   1      41.108 -22.054 -37.879  0.00  0.00    +0.050 C 
ENDROOT
BRANCH   1   2
ATOM      2  N   UNL A   1      40.009 -21.369 -37.209  0.00  0.00    -0.339 N 
ATOM      3  C   UNL A   1      39.485 -21.711 -35.985  0.00  0.00    +0.023 A 
ATOM      4  C   UNL A   1      38.477 -20.814 -35.685  0.00  0.00    -0.019 A 
ATOM      5  C   UNL A   1      38.382 -19.894 -36.762  0.00  0.00    +0.003 A 
ATOM      6  C   UNL A   1      37.556 -18.780 -37.021  0.00  0.00    -0.052 A 
ATOM      7  C   UNL A   1      37.727 -18.050 -38.199  0.00  0.00    -0.061 A 
ATOM      8  C   UNL A   1      38.706 -18.412 -39.119  0.00  0.00    -0.060 A 
ATOM      9  C   UNL A   1      39.537 -19.513 -38.887  0.00  0.00    -0.038 A 
ATOM     10  C   UNL A   1      39.358 -20.248 -37.700  0.00  0.00    +0.050 A 
ATOM     11  C   UNL A   1      37.678 -20.882 -34.426  0.00  0.00    -0.025 C 
ATOM     12  C   UNL A   1      38.375 -21.762 -33.373  0.00  0.00    -0.049 C 
ATOM     13  C   UNL A   1      38.908 -23.070 -33.982  0.00  0.00    -0.047 C 
ATOM     14  C   UNL A   1      39.945 -22.815 -35.091  0.00  0.00    -0.012 C 
ENDBRANCH   1   2
BRANCH   1  19
ATOM     15  N   UNL A   1      44.342 -20.350 -38.819  0.00  0.00    -0.349 N 
ATOM     16  C   UNL A   1      44.854 -19.994 -37.617  0.00  0.00    +0.005 A 
ATOM     17  C   UNL A   1      44.172 -20.284 -36.445  0.00  0.00    -0.045 A 
ATOM     18  C   UNL A   1      42.955 -20.949 -36.514  0.00  0.00    -0.054 A 
ATOM     19  C   UNL A   1      42.419 -21.305 -37.754  0.00  0.00    -0.012 A 
ATOM     20  C   UNL A   1      43.154 -20.997 -38.900  0.00  0.00    +0.010 A 
BRANCH  15  21
ATOM     21  C   UNL A   1      45.110 -20.053 -40.055  0.00  0.00    +0.048 C 
BRANCH  21  25
ATOM     22  C   UNL A   1      47.619 -23.355 -41.236  0.00  0.00    -0.062 A 
ATOM     23  C   UNL A   1      46.571 -22.945 -42.055  0.00  0.00    -0.061 A 
ATOM     24  C   UNL A   1      45.759 -21.876 -41.672  0.00  0.00    -0.057 A 
ATOM     25  C   UNL A   1      45.988 -21.210 -40.457  0.00  0.00    -0.028 A 
ATOM     26  C   UNL A   1      47.057 -21.625 -39.646  0.00  0.00    -0.057 A 
ATOM     27  C   UNL A   1      47.864 -22.695 -40.035  0.00  0.00    -0.061 A 
ENDBRANCH  21  25
ENDBRANCH  15  21
ENDBRANCH   1  19
TORSDOF 4
ENDMDL
MODEL 19
REMARK VINA RESULT:    -6.605     18.680     22.081
REMARK INTER + INTRA:          -9.666
REMARK INTER:                  -7.854
REMARK INTRA:                  -1.812
REMARK UNBOUND:                -1.517
REMARK  Name = cpd359.pdb
REMARK  4 active torsions:
REMARK  status: ('A' for Active; 'I' for Inactive)
REMARK    1  A    between atoms: C_4  and  C_5
REMARK    2  A    between atoms: C_5  and  N_6
REMARK    3  A    between atoms: C_10  and  C_11
REMARK    4  A    between atoms: C_11  and  N_12
REMARK                            x       y       z     vdW  Elec       q    Type
REMARK                         _______ _______ _______ _____ _____    ______ ____
ROOT
ATOM      1  C   UNL A   1      42.457 -20.392 -39.847  0.00  0.00    +0.050 C 
ENDROOT
BRANCH   1   2
ATOM      2  N   UNL A   1      43.744 -19.815 -40.218  0.00  0.00    -0.339 N 
ATOM      3  C   UNL A   1      44.000 -18.475 -40.378  0.00  0.00    +0.023 A 
ATOM      4  C   UNL A   1      45.334 -18.330 -40.707  0.00  0.00    -0.019 A 
ATOM      5  C   UNL A   1      45.913 -19.626 -40.750  0.00  0.00    +0.003 A 
ATOM      6  C   UNL A   1      47.210 -20.104 -41.025  0.00  0.00    -0.052 A 
ATOM      7  C   UNL A   1      47.470 -21.476 -40.968  0.00  0.00    -0.061 A 
ATOM      8  C   UNL A   1      46.459 -22.372 -40.641  0.00  0.00    -0.060 A 
ATOM      9  C   UNL A   1      45.164 -21.924 -40.363  0.00  0.00    -0.038 A 
ATOM     10  C   UNL A   1      44.906 -20.543 -40.426  0.00  0.00    +0.050 A 
ATOM     11  C   UNL A   1      45.969 -17.002 -40.959  0.00  0.00    -0.025 C 
ATOM     12  C   UNL A   1      45.099 -15.858 -40.410  0.00  0.00    -0.049 C 
ATOM     13  C   UNL A   1      43.614 -16.047 -40.764  0.00  0.00    -0.047 C 
ATOM     14  C   UNL A   1      43.038 -17.349 -40.179  0.00  0.00    -0.012 C 
ENDBRANCH   1   2
BRANCH   1  19
ATOM     15  N   UNL A   1      43.316 -20.496 -36.174  0.00  0.00    -0.349 N 
ATOM     16  C   UNL A   1      42.246 -21.125 -35.632  0.00  0.00    +0.005 A 
ATOM     17  C   UNL A   1      41.192 -21.540 -36.432  0.00  0.00    -0.045 A 
ATOM     18  C   UNL A   1      41.245 -21.306 -37.800  0.00  0.00    -0.054 A 
ATOM     19  C   UNL A   1      42.343 -20.646 -38.358  0.00  0.00    -0.012 A 
ATOM     20  C   UNL A   1      43.379 -20.260 -37.506  0.00  0.00    +0.010 A 
BRANCH  15  21
ATOM     21  C   UNL A   1      44.445 -20.092 -35.296  0.00  0.00    +0.048 C 
BRANCH  21  25
ATOM     22  C   UNL A   1      47.333 -17.715 -37.440  0.00  0.00    -0.062 A 
ATOM     23  C   UNL A   1      47.387 -19.104 -37.501  0.00  0.00    -0.061 A 
ATOM     24  C   UNL A   1      46.451 -19.873 -36.806  0.00  0.00    -0.057 A 
ATOM     25  C   UNL A   1      45.454 -19.253 -36.036  0.00  0.00    -0.028 A 
ATOM     26  C   UNL A   1      45.402 -17.850 -35.993  0.00  0.00    -0.057 A 
ATOM     27  C   UNL A   1      46.341 -17.088 -36.690  0.00  0.00    -0.061 A 
ENDBRANCH  21  25
ENDBRANCH  15  21
ENDBRANCH   1  19
TORSDOF 4
ENDMDL
MODEL 20
REMARK VINA RESULT:    -6.555     16.584     19.391
REMARK INTER + INTRA:          -9.604
REMARK INTER:                  -8.284
REMARK INTRA:                  -1.321
REMARK UNBOUND:                -1.517
REMARK  Name = cpd359.pdb
REMARK  4 active torsions:
REMARK  status: ('A' for Active; 'I' for Inactive)
REMARK    1  A    between atoms: C_4  and  C_5
REMARK    2  A    between atoms: C_5  and  N_6
REMARK    3  A    between atoms: C_10  and  C_11
REMARK    4  A    between atoms: C_11  and  N_12
REMARK                            x       y       z     vdW  Elec       q    Type
REMARK                         _______ _______ _______ _____ _____    ______ ____
ROOT
ATOM      1  C   UNL A   1      42.654 -19.383 -39.229  0.00  0.00    +0.050 C 
ENDROOT
BRANCH   1   2
ATOM      2  N   UNL A   1      43.955 -19.927 -38.857  0.00  0.00    -0.339 N 
ATOM      3  C   UNL A   1      44.801 -20.612 -39.696  0.00  0.00    +0.023 A 
ATOM      4  C   UNL A   1      45.937 -20.942 -38.982  0.00  0.00    -0.019 A 
ATOM      5  C   UNL A   1      45.779 -20.443 -37.662  0.00  0.00    +0.003 A 
ATOM      6  C   UNL A   1      46.587 -20.473 -36.507  0.00  0.00    -0.052 A 
ATOM      7  C   UNL A   1      46.142 -19.859 -35.334  0.00  0.00    -0.061 A 
ATOM      8  C   UNL A   1      44.909 -19.218 -35.297  0.00  0.00    -0.060 A 
ATOM      9  C   UNL A   1      44.088 -19.174 -36.428  0.00  0.00    -0.038 A 
ATOM     10  C   UNL A   1      44.539 -19.798 -37.606  0.00  0.00    +0.050 A 
ATOM     11  C   UNL A   1      47.079 -21.698 -39.577  0.00  0.00    -0.025 C 
ATOM     12  C   UNL A   1      47.016 -21.679 -41.114  0.00  0.00    -0.049 C 
ATOM     13  C   UNL A   1      45.595 -21.958 -41.633  0.00  0.00    -0.047 C 
ATOM     14  C   UNL A   1      44.581 -20.908 -41.144  0.00  0.00    -0.012 C 
ENDBRANCH   1   2
BRANCH   1  19
ATOM     15  N   UNL A   1      39.796 -20.781 -37.200  0.00  0.00    -0.349 N 
ATOM     16  C   UNL A   1      39.440 -21.883 -37.902  0.00  0.00    +0.005 A 
ATOM     17  C   UNL A   1      40.107 -22.222 -39.070  0.00  0.00    -0.045 A 
ATOM     18  C   UNL A   1      41.150 -21.419 -39.514  0.00  0.00    -0.054 A 
ATOM     19  C   UNL A   1      41.508 -20.274 -38.798  0.00  0.00    -0.012 A 
ATOM     20  C   UNL A   1      40.809 -19.988 -37.624  0.00  0.00    +0.010 A 
BRANCH  15  21
ATOM     21  C   UNL A   1      39.083 -20.461 -35.936  0.00  0.00    +0.048 C 
BRANCH  21  25
ATOM     22  C   UNL A   1      41.109 -22.141 -32.521  0.00  0.00    -0.062 A 
ATOM     23  C   UNL A   1      40.216 -22.916 -33.256  0.00  0.00    -0.061 A 
ATOM     24  C   UNL A   1      39.561 -22.371 -34.361  0.00  0.00    -0.057 A 
ATOM     25  C   UNL A   1      39.790 -21.038 -34.737  0.00  0.00    -0.028 A 
ATOM     26  C   UNL A   1      40.703 -20.270 -33.996  0.00  0.00    -0.057 A 
ATOM     27  C   UNL A   1      41.355 -20.821 -32.891  0.00  0.00    -0.061 A 
ENDBRANCH  21  25
ENDBRANCH  15  21
ENDBRANCH   1  19
TORSDOF 4
ENDMDL
