@<TRIPOS>MOLECULE
*****
 27 31 0 0 0
SMALL
GASTEIGER

@<TRIPOS>ATOM
      1 C           5.3568    0.9153    0.0000 C.ar    1  UNL1       -0.0000
      2 C           5.0563   -0.0095    0.0000 C.ar    1  UNL1       -0.0001
      3 C           4.1051   -0.2117    0.0000 C.ar    1  UNL1        0.0025
      4 C           3.4544    0.5110    0.0000 C.ar    1  UNL1        0.0555
      5 C           2.5032    0.3088    0.0000 C.3     1  UNL1        0.3501
      6 N           2.2027   -0.6161    0.0000 N.ar    1  UNL1       -0.1557
      7 C           2.8534   -1.3387    0.0000 C.ar    1  UNL1        0.2904
      8 C           2.5529   -2.2636    0.0000 C.ar    1  UNL1        0.0756
      9 C           1.6017   -2.4658    0.0000 C.ar    1  UNL1        0.0100
     10 C           0.9510   -1.7431    0.0000 C.ar    1  UNL1        0.0703
     11 C          -0.0002   -1.9453    0.0000 C.3     1  UNL1        0.1385
     12 N          -0.8424   -1.4591    0.0000 N.ar    1  UNL1       -0.3266
     13 C          -0.8424   -0.4866    0.0000 C.ar    1  UNL1        0.0334
     14 C          -1.6851   -0.0001    0.0000 C.ar    1  UNL1       -0.0091
     15 C          -2.5275   -1.4591    0.0000 C.ar    1  UNL1        0.0129
     16 C          -3.3700   -1.9458    0.0000 C.ar    1  UNL1        0.0012
     17 C          -3.3699   -2.9182    0.0000 C.ar    1  UNL1        0.0001
     18 C          -2.5272   -3.4047    0.0000 C.ar    1  UNL1        0.0015
     19 C          -1.6850   -2.9186    0.0000 C.ar    1  UNL1        0.0172
     20 C          -1.6848   -1.9457    0.0000 C.ar    1  UNL1        0.0596
     21 C          -1.6849    0.9728    0.0000 C.3     1  UNL1        0.0275
     22 C          -0.8428    1.4590    0.0000 C.3     1  UNL1        0.0051
     23 C          -0.0001    0.9725    0.0000 C.3     1  UNL1        0.0066
     24 C           0.0000   -0.0000    0.0000 C.3     1  UNL1        0.0435
     25 C           1.2515   -0.8182    0.0000 C.ar    1  UNL1        0.2878
     26 C           3.7549    1.4358    0.0000 C.ar    1  UNL1        0.0025
     27 C           4.3668    0.5937    0.0000 C.ar    1  UNL1       -0.0001
@<TRIPOS>UNITY_ATOM_ATTR
6 1
charge 1
@<TRIPOS>BOND
     1     1     2   ar
     2     2     3   ar
     3     3     4   ar
     4     4     5    1
     5     5     6    1
     6     6     7   ar
     7     7     8   ar
     8     8     9   ar
     9     9    10   ar
    10    10    11    1
    11    11    12    1
    12    12    13   ar
    13    13    14   ar
    14    14    15   ar
    15    15    16   ar
    16    16    17   ar
    17    17    18   ar
    18    18    19   ar
    19    19    20   ar
    20    15    20   ar
    21    12    20   ar
    22    14    21    1
    23    21    22    1
    24    22    23    1
    25    23    24    1
    26    13    24    1
    27    10    25   ar
    28     6    25   ar
    29     4    26   ar
    30    26    27   ar
    31     1    27   ar
