@<TRIPOS>MOLECULE
*****
 13 13 0 0 0
SMALL
GASTEIGER

@<TRIPOS>ATOM
      1 C           1.7321   -2.0000    0.0000 C.3     1  UNL1        0.1184
      2 N           2.5981   -1.5000    0.0000 N.am    1  UNL1       -0.2422
      3 C           3.4641   -2.0000    0.0000 C.3     1  UNL1        0.1184
      4 C           2.5981   -0.5000    0.0000 C.2     1  UNL1        0.4097
      5 O           3.4641   -0.0000    0.0000 O.2     1  UNL1       -0.2258
      6 O           1.7321   -0.0000    0.0000 O.3     1  UNL1       -0.4038
      7 C           0.8660   -0.5000    0.0000 C.ar    1  UNL1        0.2195
      8 C           0.8660   -1.5000    0.0000 C.ar    1  UNL1        0.0504
      9 C           0.0000   -2.0000    0.0000 C.ar    1  UNL1        0.0790
     10 C          -0.8660   -1.5000    0.0000 C.ar    1  UNL1        0.2905
     11 N          -0.8660   -0.5000    0.0000 N.ar    1  UNL1       -0.1507
     12 C          -1.7321   -0.0000    0.0000 C.3     1  UNL1        0.4085
     13 C           0.0000    0.0000    0.0000 C.ar    1  UNL1        0.3281
@<TRIPOS>UNITY_ATOM_ATTR
11 1
charge 1
@<TRIPOS>BOND
     1     1     2    1
     2     2     3    1
     3     2     4   am
     4     4     5    2
     5     4     6    1
     6     6     7    1
     7     7     8   ar
     8     8     9   ar
     9     9    10   ar
    10    10    11   ar
    11    11    12    1
    12    11    13   ar
    13     7    13   ar
