REMARK  Name = cpd62.pdb
REMARK  5 active torsions:
REMARK  status: ('A' for Active; 'I' for Inactive)
REMARK    1  A    between atoms: C_1  and  N_2
REMARK    2  A    between atoms: N_2  and  C_3
REMARK    3  A    between atoms: C_4  and  O_6
REMARK    4  A    between atoms: O_6  and  C_7
REMARK    5  A    between atoms: N_11  and  C_12
REMARK                            x       y       z     vdW  Elec       q    Type
REMARK                         _______ _______ _______ _____ _____    ______ ____
ROOT
ATOM      1  C   UNL A   1       0.104  -1.711  -0.027  0.00  0.00    +0.149 A 
ATOM      2  C   UNL A   1      -0.652  -2.794   0.403  0.00  0.00    -0.016 A 
ATOM      3  C   UNL A   1      -1.933  -2.566   0.892  0.00  0.00    -0.042 A 
ATOM      4  C   UNL A   1      -2.433  -1.267   0.930  0.00  0.00    +0.004 A 
ATOM      5  N   UNL A   1      -1.690  -0.230   0.479  0.00  0.00    -0.353 N 
ATOM      6  C   UNL A   1      -2.222   1.141   0.544  0.00  0.00    +0.011 C 
ATOM      7  C   UNL A   1      -0.441  -0.429  -0.003  0.00  0.00    +0.047 A 
ENDROOT
BRANCH   1   8
ATOM      8  O   UNL A   1       1.390  -1.985  -0.518  0.00  0.00    -0.410 OA
BRANCH   8  12
ATOM      9  C   UNL A   1       3.864  -2.712  -1.432  0.00  0.00    +0.006 C 
ATOM     10  N   UNL A   1       3.658  -1.511  -0.638  0.00  0.00    -0.273 N 
ATOM     11  C   UNL A   1       4.853  -0.805  -0.211  0.00  0.00    +0.006 C 
ATOM     12  C   UNL A   1       2.433  -1.149  -0.108  0.00  0.00    +0.408 C 
ATOM     13  O   UNL A   1       2.255  -0.191   0.639  0.00  0.00    -0.226 OA
ENDBRANCH   8  12
ENDBRANCH   1   8
TORSDOF 2
