MODEL 1
REMARK VINA RESULT:    -5.911      0.000      0.000
REMARK INTER + INTRA:          -6.614
REMARK INTER:                  -6.602
REMARK INTRA:                  -0.012
REMARK UNBOUND:                -0.012
REMARK  Name = cpd62.pdb
REMARK  5 active torsions:
REMARK  status: ('A' for Active; 'I' for Inactive)
REMARK    1  A    between atoms: C_1  and  N_2
REMARK    2  A    between atoms: N_2  and  C_3
REMARK    3  A    between atoms: C_4  and  O_6
REMARK    4  A    between atoms: O_6  and  C_7
REMARK    5  A    between atoms: N_11  and  C_12
REMARK                            x       y       z     vdW  Elec       q    Type
REMARK                         _______ _______ _______ _____ _____    ______ ____
ROOT
ATOM      1  C   UNL A   1      42.312 -38.719 -30.290  0.00  0.00    +0.149 A 
ATOM      2  C   UNL A   1      41.354 -38.540 -29.300  0.00  0.00    -0.016 A 
ATOM      3  C   UNL A   1      40.312 -37.649 -29.529  0.00  0.00    -0.042 A 
ATOM      4  C   UNL A   1      40.245 -36.967 -30.741  0.00  0.00    +0.004 A 
ATOM      5  N   UNL A   1      41.173 -37.179 -31.703  0.00  0.00    -0.353 N 
ATOM      6  C   UNL A   1      41.102 -36.436 -32.972  0.00  0.00    +0.011 C 
ATOM      7  C   UNL A   1      42.195 -38.043 -31.502  0.00  0.00    +0.047 A 
ENDROOT
BRANCH   1   8
ATOM      8  O   UNL A   1      43.344 -39.632 -30.021  0.00  0.00    -0.410 OA
BRANCH   8  12
ATOM      9  C   UNL A   1      45.272 -41.521 -29.575  0.00  0.00    +0.006 C 
ATOM     10  N   UNL A   1      45.592 -40.107 -29.696  0.00  0.00    -0.273 N 
ATOM     11  C   UNL A   1      46.962 -39.726 -29.401  0.00  0.00    +0.006 C 
ATOM     12  C   UNL A   1      44.636 -39.121 -29.858  0.00  0.00    +0.408 C 
ATOM     13  O   UNL A   1      44.875 -37.917 -29.870  0.00  0.00    -0.226 OA
ENDBRANCH   8  12
ENDBRANCH   1   8
TORSDOF 2
ENDMDL
MODEL 2
REMARK VINA RESULT:    -5.397      3.342      5.893
REMARK INTER + INTRA:          -6.041
REMARK INTER:                  -6.038
REMARK INTRA:                  -0.003
REMARK UNBOUND:                -0.012
REMARK  Name = cpd62.pdb
REMARK  5 active torsions:
REMARK  status: ('A' for Active; 'I' for Inactive)
REMARK    1  A    between atoms: C_1  and  N_2
REMARK    2  A    between atoms: N_2  and  C_3
REMARK    3  A    between atoms: C_4  and  O_6
REMARK    4  A    between atoms: O_6  and  C_7
REMARK    5  A    between atoms: N_11  and  C_12
REMARK                            x       y       z     vdW  Elec       q    Type
REMARK                         _______ _______ _______ _____ _____    ______ ____
ROOT
ATOM      1  C   UNL A   1      47.920 -38.845 -29.066  0.00  0.00    +0.149 A 
ATOM      2  C   UNL A   1      49.284 -38.962 -28.835  0.00  0.00    -0.016 A 
ATOM      3  C   UNL A   1      50.124 -37.929 -29.237  0.00  0.00    -0.042 A 
ATOM      4  C   UNL A   1      49.582 -36.801 -29.847  0.00  0.00    +0.004 A 
ATOM      5  N   UNL A   1      48.246 -36.695 -30.036  0.00  0.00    -0.353 N 
ATOM      6  C   UNL A   1      47.688 -35.507 -30.701  0.00  0.00    +0.011 C 
ATOM      7  C   UNL A   1      47.410 -37.688 -29.651  0.00  0.00    +0.047 A 
ENDROOT
BRANCH   1   8
ATOM      8  O   UNL A   1      47.107 -39.907 -28.641  0.00  0.00    -0.410 OA
BRANCH   8  12
ATOM      9  C   UNL A   1      45.753 -41.271 -30.588  0.00  0.00    +0.006 C 
ATOM     10  N   UNL A   1      45.066 -40.457 -29.598  0.00  0.00    -0.273 N 
ATOM     11  C   UNL A   1      43.640 -40.267 -29.793  0.00  0.00    +0.006 C 
ATOM     12  C   UNL A   1      45.723 -39.706 -28.640  0.00  0.00    +0.408 C 
ATOM     13  O   UNL A   1      45.169 -38.943 -27.855  0.00  0.00    -0.226 OA
ENDBRANCH   8  12
ENDBRANCH   1   8
TORSDOF 2
ENDMDL
MODEL 3
REMARK VINA RESULT:    -5.379      3.821      7.124
REMARK INTER + INTRA:          -6.020
REMARK INTER:                  -5.746
REMARK INTRA:                  -0.274
REMARK UNBOUND:                -0.012
REMARK  Name = cpd62.pdb
REMARK  5 active torsions:
REMARK  status: ('A' for Active; 'I' for Inactive)
REMARK    1  A    between atoms: C_1  and  N_2
REMARK    2  A    between atoms: N_2  and  C_3
REMARK    3  A    between atoms: C_4  and  O_6
REMARK    4  A    between atoms: O_6  and  C_7
REMARK    5  A    between atoms: N_11  and  C_12
REMARK                            x       y       z     vdW  Elec       q    Type
REMARK                         _______ _______ _______ _____ _____    ______ ____
ROOT
ATOM      1  C   UNL A   1      39.277 -36.486 -31.019  0.00  0.00    +0.149 A 
ATOM      2  C   UNL A   1      39.444 -35.855 -32.245  0.00  0.00    -0.016 A 
ATOM      3  C   UNL A   1      40.614 -36.079 -32.961  0.00  0.00    -0.042 A 
ATOM      4  C   UNL A   1      41.583 -36.934 -32.443  0.00  0.00    +0.004 A 
ATOM      5  N   UNL A   1      41.387 -37.561 -31.260  0.00  0.00    -0.353 N 
ATOM      6  C   UNL A   1      42.429 -38.446 -30.714  0.00  0.00    +0.011 C 
ATOM      7  C   UNL A   1      40.255 -37.360 -30.547  0.00  0.00    +0.047 A 
ENDROOT
BRANCH   1   8
ATOM      8  O   UNL A   1      38.079 -36.238 -30.331  0.00  0.00    -0.410 OA
BRANCH   8  12
ATOM      9  C   UNL A   1      36.065 -34.459 -30.847  0.00  0.00    +0.006 C 
ATOM     10  N   UNL A   1      35.936 -35.878 -31.143  0.00  0.00    -0.273 N 
ATOM     11  C   UNL A   1      34.624 -36.332 -31.570  0.00  0.00    +0.006 C 
ATOM     12  C   UNL A   1      36.908 -36.812 -30.837  0.00  0.00    +0.408 C 
ATOM     13  O   UNL A   1      36.783 -38.023 -30.994  0.00  0.00    -0.226 OA
ENDBRANCH   8  12
ENDBRANCH   1   8
TORSDOF 2
ENDMDL
MODEL 4
REMARK VINA RESULT:    -5.173     32.877     33.938
REMARK INTER + INTRA:          -5.790
REMARK INTER:                  -5.523
REMARK INTRA:                  -0.266
REMARK UNBOUND:                -0.012
REMARK  Name = cpd62.pdb
REMARK  5 active torsions:
REMARK  status: ('A' for Active; 'I' for Inactive)
REMARK    1  A    between atoms: C_1  and  N_2
REMARK    2  A    between atoms: N_2  and  C_3
REMARK    3  A    between atoms: C_4  and  O_6
REMARK    4  A    between atoms: O_6  and  C_7
REMARK    5  A    between atoms: N_11  and  C_12
REMARK                            x       y       z     vdW  Elec       q    Type
REMARK                         _______ _______ _______ _____ _____    ______ ____
ROOT
ATOM      1  C   UNL A   1      63.513 -23.841  -8.396  0.00  0.00    +0.149 A 
ATOM      2  C   UNL A   1      63.052 -23.290  -9.584  0.00  0.00    -0.016 A 
ATOM      3  C   UNL A   1      62.970 -21.907  -9.695  0.00  0.00    -0.042 A 
ATOM      4  C   UNL A   1      63.360 -21.107  -8.623  0.00  0.00    +0.004 A 
ATOM      5  N   UNL A   1      63.834 -21.665  -7.485  0.00  0.00    -0.353 N 
ATOM      6  C   UNL A   1      64.223 -20.810  -6.352  0.00  0.00    +0.011 C 
ATOM      7  C   UNL A   1      63.924 -23.009  -7.356  0.00  0.00    +0.047 A 
ENDROOT
BRANCH   1   8
ATOM      8  O   UNL A   1      63.585 -25.241  -8.327  0.00  0.00    -0.410 OA
BRANCH   8  12
ATOM      9  C   UNL A   1      65.034 -26.898  -6.702  0.00  0.00    +0.006 C 
ATOM     10  N   UNL A   1      63.614 -26.662  -6.494  0.00  0.00    -0.273 N 
ATOM     11  C   UNL A   1      62.964 -27.479  -5.484  0.00  0.00    +0.006 C 
ATOM     12  C   UNL A   1      62.840 -25.882  -7.333  0.00  0.00    +0.408 C 
ATOM     13  O   UNL A   1      61.625 -25.743  -7.228  0.00  0.00    -0.226 OA
ENDBRANCH   8  12
ENDBRANCH   1   8
TORSDOF 2
ENDMDL
MODEL 5
REMARK VINA RESULT:    -5.071      4.108      5.604
REMARK INTER + INTRA:          -5.677
REMARK INTER:                  -5.432
REMARK INTRA:                  -0.245
REMARK UNBOUND:                -0.012
REMARK  Name = cpd62.pdb
REMARK  5 active torsions:
REMARK  status: ('A' for Active; 'I' for Inactive)
REMARK    1  A    between atoms: C_1  and  N_2
REMARK    2  A    between atoms: N_2  and  C_3
REMARK    3  A    between atoms: C_4  and  O_6
REMARK    4  A    between atoms: O_6  and  C_7
REMARK    5  A    between atoms: N_11  and  C_12
REMARK                            x       y       z     vdW  Elec       q    Type
REMARK                         _______ _______ _______ _____ _____    ______ ____
ROOT
ATOM      1  C   UNL A   1      46.540 -38.397 -29.594  0.00  0.00    +0.149 A 
ATOM      2  C   UNL A   1      46.490 -37.015 -29.464  0.00  0.00    -0.016 A 
ATOM      3  C   UNL A   1      47.672 -36.289 -29.558  0.00  0.00    -0.042 A 
ATOM      4  C   UNL A   1      48.871 -36.957 -29.791  0.00  0.00    +0.004 A 
ATOM      5  N   UNL A   1      48.893 -38.301 -29.943  0.00  0.00    -0.353 N 
ATOM      6  C   UNL A   1      50.171 -38.997 -30.167  0.00  0.00    +0.011 C 
ATOM      7  C   UNL A   1      47.754 -39.028 -29.857  0.00  0.00    +0.047 A 
ENDROOT
BRANCH   1   8
ATOM      8  O   UNL A   1      45.324 -39.092 -29.498  0.00  0.00    -0.410 OA
BRANCH   8  12
ATOM      9  C   UNL A   1      44.995 -41.580 -30.586  0.00  0.00    +0.006 C 
ATOM     10  N   UNL A   1      45.138 -41.378 -29.153  0.00  0.00    -0.273 N 
ATOM     11  C   UNL A   1      44.929 -42.544 -28.312  0.00  0.00    +0.006 C 
ATOM     12  C   UNL A   1      45.242 -40.131 -28.566  0.00  0.00    +0.408 C 
ATOM     13  O   UNL A   1      45.272 -39.933 -27.354  0.00  0.00    -0.226 OA
ENDBRANCH   8  12
ENDBRANCH   1   8
TORSDOF 2
ENDMDL
MODEL 6
REMARK VINA RESULT:    -4.937      4.664      7.597
REMARK INTER + INTRA:          -5.526
REMARK INTER:                  -5.385
REMARK INTRA:                  -0.142
REMARK UNBOUND:                -0.012
REMARK  Name = cpd62.pdb
REMARK  5 active torsions:
REMARK  status: ('A' for Active; 'I' for Inactive)
REMARK    1  A    between atoms: C_1  and  N_2
REMARK    2  A    between atoms: N_2  and  C_3
REMARK    3  A    between atoms: C_4  and  O_6
REMARK    4  A    between atoms: O_6  and  C_7
REMARK    5  A    between atoms: N_11  and  C_12
REMARK                            x       y       z     vdW  Elec       q    Type
REMARK                         _______ _______ _______ _____ _____    ______ ____
ROOT
ATOM      1  C   UNL A   1      38.584 -35.757 -31.409  0.00  0.00    +0.149 A 
ATOM      2  C   UNL A   1      39.510 -34.859 -31.922  0.00  0.00    -0.016 A 
ATOM      3  C   UNL A   1      40.849 -35.003 -31.575  0.00  0.00    -0.042 A 
ATOM      4  C   UNL A   1      41.232 -36.045 -30.734  0.00  0.00    +0.004 A 
ATOM      5  N   UNL A   1      40.317 -36.926 -30.268  0.00  0.00    -0.353 N 
ATOM      6  C   UNL A   1      40.732 -38.010 -29.364  0.00  0.00    +0.011 C 
ATOM      7  C   UNL A   1      39.009 -36.805 -30.595  0.00  0.00    +0.047 A 
ENDROOT
BRANCH   1   8
ATOM      8  O   UNL A   1      37.244 -35.579 -31.788  0.00  0.00    -0.410 OA
BRANCH   8  12
ATOM      9  C   UNL A   1      35.333 -36.807 -30.263  0.00  0.00    +0.006 C 
ATOM     10  N   UNL A   1      35.549 -35.370 -30.217  0.00  0.00    -0.273 N 
ATOM     11  C   UNL A   1      34.590 -34.596 -29.450  0.00  0.00    +0.006 C 
ATOM     12  C   UNL A   1      36.462 -34.711 -31.020  0.00  0.00    +0.408 C 
ATOM     13  O   UNL A   1      36.597 -33.491 -31.063  0.00  0.00    -0.226 OA
ENDBRANCH   8  12
ENDBRANCH   1   8
TORSDOF 2
ENDMDL
MODEL 7
REMARK VINA RESULT:    -4.819      4.240      7.116
REMARK INTER + INTRA:          -5.394
REMARK INTER:                  -5.127
REMARK INTRA:                  -0.267
REMARK UNBOUND:                -0.012
REMARK  Name = cpd62.pdb
REMARK  5 active torsions:
REMARK  status: ('A' for Active; 'I' for Inactive)
REMARK    1  A    between atoms: C_1  and  N_2
REMARK    2  A    between atoms: N_2  and  C_3
REMARK    3  A    between atoms: C_4  and  O_6
REMARK    4  A    between atoms: O_6  and  C_7
REMARK    5  A    between atoms: N_11  and  C_12
REMARK                            x       y       z     vdW  Elec       q    Type
REMARK                         _______ _______ _______ _____ _____    ______ ____
ROOT
ATOM      1  C   UNL A   1      38.573 -37.257 -29.844  0.00  0.00    +0.149 A 
ATOM      2  C   UNL A   1      39.318 -38.023 -28.956  0.00  0.00    -0.016 A 
ATOM      3  C   UNL A   1      40.665 -38.238 -29.222  0.00  0.00    -0.042 A 
ATOM      4  C   UNL A   1      41.239 -37.675 -30.359  0.00  0.00    +0.004 A 
ATOM      5  N   UNL A   1      40.502 -36.909 -31.195  0.00  0.00    -0.353 N 
ATOM      6  C   UNL A   1      41.115 -36.337 -32.405  0.00  0.00    +0.011 C 
ATOM      7  C   UNL A   1      39.189 -36.685 -30.955  0.00  0.00    +0.047 A 
ENDROOT
BRANCH   1   8
ATOM      8  O   UNL A   1      37.218 -37.060 -29.536  0.00  0.00    -0.410 OA
BRANCH   8  12
ATOM      9  C   UNL A   1      35.552 -35.041 -30.330  0.00  0.00    +0.006 C 
ATOM     10  N   UNL A   1      35.490 -36.369 -30.921  0.00  0.00    -0.273 N 
ATOM     11  C   UNL A   1      34.390 -36.620 -31.835  0.00  0.00    +0.006 C 
ATOM     12  C   UNL A   1      36.273 -37.427 -30.499  0.00  0.00    +0.408 C 
ATOM     13  O   UNL A   1      36.174 -38.576 -30.920  0.00  0.00    -0.226 OA
ENDBRANCH   8  12
ENDBRANCH   1   8
TORSDOF 2
ENDMDL
MODEL 8
REMARK VINA RESULT:    -4.758      4.563      7.051
REMARK INTER + INTRA:          -5.327
REMARK INTER:                  -5.062
REMARK INTRA:                  -0.264
REMARK UNBOUND:                -0.012
REMARK  Name = cpd62.pdb
REMARK  5 active torsions:
REMARK  status: ('A' for Active; 'I' for Inactive)
REMARK    1  A    between atoms: C_1  and  N_2
REMARK    2  A    between atoms: N_2  and  C_3
REMARK    3  A    between atoms: C_4  and  O_6
REMARK    4  A    between atoms: O_6  and  C_7
REMARK    5  A    between atoms: N_11  and  C_12
REMARK                            x       y       z     vdW  Elec       q    Type
REMARK                         _______ _______ _______ _____ _____    ______ ____
ROOT
ATOM      1  C   UNL A   1      38.409 -38.290 -28.656  0.00  0.00    +0.149 A 
ATOM      2  C   UNL A   1      39.726 -38.650 -28.399  0.00  0.00    -0.016 A 
ATOM      3  C   UNL A   1      40.739 -38.076 -29.158  0.00  0.00    -0.042 A 
ATOM      4  C   UNL A   1      40.417 -37.148 -30.145  0.00  0.00    +0.004 A 
ATOM      5  N   UNL A   1      39.130 -36.790 -30.359  0.00  0.00    -0.353 N 
ATOM      6  C   UNL A   1      38.800 -35.824 -31.420  0.00  0.00    +0.011 C 
ATOM      7  C   UNL A   1      38.127 -37.335 -29.631  0.00  0.00    +0.047 A 
ENDROOT
BRANCH   1   8
ATOM      8  O   UNL A   1      37.417 -38.889 -27.865  0.00  0.00    -0.410 OA
BRANCH   8  12
ATOM      9  C   UNL A   1      34.847 -38.162 -27.275  0.00  0.00    +0.006 C 
ATOM     10  N   UNL A   1      35.150 -39.206 -28.241  0.00  0.00    -0.273 N 
ATOM     11  C   UNL A   1      34.021 -39.961 -28.755  0.00  0.00    +0.006 C 
ATOM     12  C   UNL A   1      36.434 -39.641 -28.515  0.00  0.00    +0.408 C 
ATOM     13  O   UNL A   1      36.706 -40.580 -29.257  0.00  0.00    -0.226 OA
ENDBRANCH   8  12
ENDBRANCH   1   8
TORSDOF 2
ENDMDL
MODEL 9
REMARK VINA RESULT:    -4.702     33.240     35.432
REMARK INTER + INTRA:          -5.264
REMARK INTER:                  -5.050
REMARK INTRA:                  -0.214
REMARK UNBOUND:                -0.012
REMARK  Name = cpd62.pdb
REMARK  5 active torsions:
REMARK  status: ('A' for Active; 'I' for Inactive)
REMARK    1  A    between atoms: C_1  and  N_2
REMARK    2  A    between atoms: N_2  and  C_3
REMARK    3  A    between atoms: C_4  and  O_6
REMARK    4  A    between atoms: O_6  and  C_7
REMARK    5  A    between atoms: N_11  and  C_12
REMARK                            x       y       z     vdW  Elec       q    Type
REMARK                         _______ _______ _______ _____ _____    ______ ____
ROOT
ATOM      1  C   UNL A   1      64.239 -24.776  -6.530  0.00  0.00    +0.149 A 
ATOM      2  C   UNL A   1      63.103 -24.250  -7.133  0.00  0.00    -0.016 A 
ATOM      3  C   UNL A   1      62.046 -25.102  -7.432  0.00  0.00    -0.042 A 
ATOM      4  C   UNL A   1      62.142 -26.454  -7.113  0.00  0.00    +0.004 A 
ATOM      5  N   UNL A   1      63.246 -26.940  -6.500  0.00  0.00    -0.353 N 
ATOM      6  C   UNL A   1      63.344 -28.375  -6.188  0.00  0.00    +0.011 C 
ATOM      7  C   UNL A   1      64.286 -26.129  -6.198  0.00  0.00    +0.047 A 
ENDROOT
BRANCH   1   8
ATOM      8  O   UNL A   1      65.280 -23.881  -6.241  0.00  0.00    -0.410 OA
BRANCH   8  12
ATOM      9  C   UNL A   1      65.058 -21.158  -6.377  0.00  0.00    +0.006 C 
ATOM     10  N   UNL A   1      65.080 -21.867  -5.107  0.00  0.00    -0.273 N 
ATOM     11  C   UNL A   1      65.147 -21.047  -3.910  0.00  0.00    +0.006 C 
ATOM     12  C   UNL A   1      65.254 -23.235  -5.001  0.00  0.00    +0.408 C 
ATOM     13  O   UNL A   1      65.367 -23.840  -3.939  0.00  0.00    -0.226 OA
ENDBRANCH   8  12
ENDBRANCH   1   8
TORSDOF 2
ENDMDL
MODEL 10
REMARK VINA RESULT:    -4.661      6.346      9.203
REMARK INTER + INTRA:          -5.218
REMARK INTER:                  -4.969
REMARK INTRA:                  -0.249
REMARK UNBOUND:                -0.012
REMARK  Name = cpd62.pdb
REMARK  5 active torsions:
REMARK  status: ('A' for Active; 'I' for Inactive)
REMARK    1  A    between atoms: C_1  and  N_2
REMARK    2  A    between atoms: N_2  and  C_3
REMARK    3  A    between atoms: C_4  and  O_6
REMARK    4  A    between atoms: O_6  and  C_7
REMARK    5  A    between atoms: N_11  and  C_12
REMARK                            x       y       z     vdW  Elec       q    Type
REMARK                         _______ _______ _______ _____ _____    ______ ____
ROOT
ATOM      1  C   UNL A   1      36.514 -35.709 -30.835  0.00  0.00    +0.149 A 
ATOM      2  C   UNL A   1      37.690 -35.899 -31.550  0.00  0.00    -0.016 A 
ATOM      3  C   UNL A   1      38.699 -36.672 -30.988  0.00  0.00    -0.042 A 
ATOM      4  C   UNL A   1      38.508 -37.246 -29.734  0.00  0.00    +0.004 A 
ATOM      5  N   UNL A   1      37.344 -37.072 -29.068  0.00  0.00    -0.353 N 
ATOM      6  C   UNL A   1      37.162 -37.666 -27.733  0.00  0.00    +0.011 C 
ATOM      7  C   UNL A   1      36.347 -36.325 -29.597  0.00  0.00    +0.047 A 
ENDROOT
BRANCH   1   8
ATOM      8  O   UNL A   1      35.519 -34.927 -31.440  0.00  0.00    -0.410 OA
BRANCH   8  12
ATOM      9  C   UNL A   1      33.072 -34.367 -30.353  0.00  0.00    +0.006 C 
ATOM     10  N   UNL A   1      34.140 -33.382 -30.394  0.00  0.00    -0.273 N 
ATOM     11  C   UNL A   1      33.793 -32.033 -29.982  0.00  0.00    +0.006 C 
ATOM     12  C   UNL A   1      35.366 -33.611 -30.992  0.00  0.00    +0.408 C 
ATOM     13  O   UNL A   1      36.247 -32.765 -31.118  0.00  0.00    -0.226 OA
ENDBRANCH   8  12
ENDBRANCH   1   8
TORSDOF 2
ENDMDL
MODEL 11
REMARK VINA RESULT:    -4.660     32.829     34.914
REMARK INTER + INTRA:          -5.217
REMARK INTER:                  -5.259
REMARK INTRA:                   0.043
REMARK UNBOUND:                -0.012
REMARK  Name = cpd62.pdb
REMARK  5 active torsions:
REMARK  status: ('A' for Active; 'I' for Inactive)
REMARK    1  A    between atoms: C_1  and  N_2
REMARK    2  A    between atoms: N_2  and  C_3
REMARK    3  A    between atoms: C_4  and  O_6
REMARK    4  A    between atoms: O_6  and  C_7
REMARK    5  A    between atoms: N_11  and  C_12
REMARK                            x       y       z     vdW  Elec       q    Type
REMARK                         _______ _______ _______ _____ _____    ______ ____
ROOT
ATOM      1  C   UNL A   1      64.050 -24.947  -6.887  0.00  0.00    +0.149 A 
ATOM      2  C   UNL A   1      62.841 -25.603  -6.690  0.00  0.00    -0.016 A 
ATOM      3  C   UNL A   1      61.877 -25.549  -7.690  0.00  0.00    -0.042 A 
ATOM      4  C   UNL A   1      62.145 -24.853  -8.866  0.00  0.00    +0.004 A 
ATOM      5  N   UNL A   1      63.341 -24.245  -9.049  0.00  0.00    -0.353 N 
ATOM      6  C   UNL A   1      63.604 -23.495 -10.288  0.00  0.00    +0.011 C 
ATOM      7  C   UNL A   1      64.294 -24.287  -8.089  0.00  0.00    +0.047 A 
ENDROOT
BRANCH   1   8
ATOM      8  O   UNL A   1      64.997 -25.031  -5.855  0.00  0.00    -0.410 OA
BRANCH   8  12
ATOM      9  C   UNL A   1      66.008 -22.544  -5.325  0.00  0.00    +0.006 C 
ATOM     10  N   UNL A   1      65.121 -23.230  -4.398  0.00  0.00    -0.273 N 
ATOM     11  C   UNL A   1      64.931 -22.603  -3.101  0.00  0.00    +0.006 C 
ATOM     12  C   UNL A   1      64.644 -24.511  -4.606  0.00  0.00    +0.408 C 
ATOM     13  O   UNL A   1      63.971 -25.142  -3.796  0.00  0.00    -0.226 OA
ENDBRANCH   8  12
ENDBRANCH   1   8
TORSDOF 2
ENDMDL
MODEL 12
REMARK VINA RESULT:    -4.537     30.906     32.188
REMARK INTER + INTRA:          -5.079
REMARK INTER:                  -4.886
REMARK INTRA:                  -0.193
REMARK UNBOUND:                -0.012
REMARK  Name = cpd62.pdb
REMARK  5 active torsions:
REMARK  status: ('A' for Active; 'I' for Inactive)
REMARK    1  A    between atoms: C_1  and  N_2
REMARK    2  A    between atoms: N_2  and  C_3
REMARK    3  A    between atoms: C_4  and  O_6
REMARK    4  A    between atoms: O_6  and  C_7
REMARK    5  A    between atoms: N_11  and  C_12
REMARK                            x       y       z     vdW  Elec       q    Type
REMARK                         _______ _______ _______ _____ _____    ______ ____
ROOT
ATOM      1  C   UNL A   1      63.634 -13.997 -29.950  0.00  0.00    +0.149 A 
ATOM      2  C   UNL A   1      63.642 -14.087 -28.564  0.00  0.00    -0.016 A 
ATOM      3  C   UNL A   1      62.432 -14.042 -27.881  0.00  0.00    -0.042 A 
ATOM      4  C   UNL A   1      61.244 -13.920 -28.597  0.00  0.00    +0.004 A 
ATOM      5  N   UNL A   1      61.257 -13.863 -29.948  0.00  0.00    -0.353 N 
ATOM      6  C   UNL A   1      59.996 -13.714 -30.692  0.00  0.00    +0.011 C 
ATOM      7  C   UNL A   1      62.424 -13.907 -30.634  0.00  0.00    +0.047 A 
ENDROOT
BRANCH   1   8
ATOM      8  O   UNL A   1      64.877 -14.051 -30.600  0.00  0.00    -0.410 OA
BRANCH   8  12
ATOM      9  C   UNL A   1      67.280 -13.178 -29.628  0.00  0.00    +0.006 C 
ATOM     10  N   UNL A   1      66.939 -14.591 -29.685  0.00  0.00    -0.273 N 
ATOM     11  C   UNL A   1      68.000 -15.526 -29.358  0.00  0.00    +0.006 C 
ATOM     12  C   UNL A   1      65.760 -15.069 -30.228  0.00  0.00    +0.408 C 
ATOM     13  O   UNL A   1      65.492 -16.258 -30.369  0.00  0.00    -0.226 OA
ENDBRANCH   8  12
ENDBRANCH   1   8
TORSDOF 2
ENDMDL
MODEL 13
REMARK VINA RESULT:    -4.536     22.683     23.798
REMARK INTER + INTRA:          -5.078
REMARK INTER:                  -4.812
REMARK INTRA:                  -0.267
REMARK UNBOUND:                -0.012
REMARK  Name = cpd62.pdb
REMARK  5 active torsions:
REMARK  status: ('A' for Active; 'I' for Inactive)
REMARK    1  A    between atoms: C_1  and  N_2
REMARK    2  A    between atoms: N_2  and  C_3
REMARK    3  A    between atoms: C_4  and  O_6
REMARK    4  A    between atoms: O_6  and  C_7
REMARK    5  A    between atoms: N_11  and  C_12
REMARK                            x       y       z     vdW  Elec       q    Type
REMARK                         _______ _______ _______ _____ _____    ______ ____
ROOT
ATOM      1  C   UNL A   1      56.357 -34.706 -48.881  0.00  0.00    +0.149 A 
ATOM      2  C   UNL A   1      56.424 -33.959 -47.711  0.00  0.00    -0.016 A 
ATOM      3  C   UNL A   1      55.723 -34.398 -46.594  0.00  0.00    -0.042 A 
ATOM      4  C   UNL A   1      54.982 -35.574 -46.666  0.00  0.00    +0.004 A 
ATOM      5  N   UNL A   1      54.954 -36.302 -47.806  0.00  0.00    -0.353 N 
ATOM      6  C   UNL A   1      54.151 -37.533 -47.875  0.00  0.00    +0.011 C 
ATOM      7  C   UNL A   1      55.631 -35.895 -48.906  0.00  0.00    +0.047 A 
ENDROOT
BRANCH   1   8
ATOM      8  O   UNL A   1      57.083 -34.232 -49.984  0.00  0.00    -0.410 OA
BRANCH   8  12
ATOM      9  C   UNL A   1      57.510 -35.651 -52.283  0.00  0.00    +0.006 C 
ATOM     10  N   UNL A   1      56.553 -34.558 -52.219  0.00  0.00    -0.273 N 
ATOM     11  C   UNL A   1      55.956 -34.146 -53.477  0.00  0.00    +0.006 C 
ATOM     12  C   UNL A   1      56.359 -33.781 -51.092  0.00  0.00    +0.408 C 
ATOM     13  O   UNL A   1      55.625 -32.798 -51.044  0.00  0.00    -0.226 OA
ENDBRANCH   8  12
ENDBRANCH   1   8
TORSDOF 2
ENDMDL
MODEL 14
REMARK VINA RESULT:    -4.511     19.852     20.549
REMARK INTER + INTRA:          -5.050
REMARK INTER:                  -4.961
REMARK INTRA:                  -0.089
REMARK UNBOUND:                -0.012
REMARK  Name = cpd62.pdb
REMARK  5 active torsions:
REMARK  status: ('A' for Active; 'I' for Inactive)
REMARK    1  A    between atoms: C_1  and  N_2
REMARK    2  A    between atoms: N_2  and  C_3
REMARK    3  A    between atoms: C_4  and  O_6
REMARK    4  A    between atoms: O_6  and  C_7
REMARK    5  A    between atoms: N_11  and  C_12
REMARK                            x       y       z     vdW  Elec       q    Type
REMARK                         _______ _______ _______ _____ _____    ______ ____
ROOT
ATOM      1  C   UNL A   1      46.346 -21.201 -39.092  0.00  0.00    +0.149 A 
ATOM      2  C   UNL A   1      45.083 -21.054 -39.651  0.00  0.00    -0.016 A 
ATOM      3  C   UNL A   1      44.846 -21.572 -40.919  0.00  0.00    -0.042 A 
ATOM      4  C   UNL A   1      45.869 -22.233 -41.593  0.00  0.00    +0.004 A 
ATOM      5  N   UNL A   1      47.084 -22.391 -41.018  0.00  0.00    -0.353 N 
ATOM      6  C   UNL A   1      48.163 -23.073 -41.750  0.00  0.00    +0.011 C 
ATOM      7  C   UNL A   1      47.336 -21.896 -39.784  0.00  0.00    +0.047 A 
ENDROOT
BRANCH   1   8
ATOM      8  O   UNL A   1      46.542 -20.668 -37.809  0.00  0.00    -0.410 OA
BRANCH   8  12
ATOM      9  C   UNL A   1      47.119 -19.820 -35.272  0.00  0.00    +0.006 C 
ATOM     10  N   UNL A   1      47.273 -18.952 -36.429  0.00  0.00    -0.273 N 
ATOM     11  C   UNL A   1      47.587 -17.560 -36.156  0.00  0.00    +0.006 C 
ATOM     12  C   UNL A   1      46.931 -19.328 -37.715  0.00  0.00    +0.408 C 
ATOM     13  O   UNL A   1      46.966 -18.582 -38.689  0.00  0.00    -0.226 OA
ENDBRANCH   8  12
ENDBRANCH   1   8
TORSDOF 2
ENDMDL
MODEL 15
REMARK VINA RESULT:    -4.309     33.000     35.081
REMARK INTER + INTRA:          -4.825
REMARK INTER:                  -4.562
REMARK INTRA:                  -0.263
REMARK UNBOUND:                -0.012
REMARK  Name = cpd62.pdb
REMARK  5 active torsions:
REMARK  status: ('A' for Active; 'I' for Inactive)
REMARK    1  A    between atoms: C_1  and  N_2
REMARK    2  A    between atoms: N_2  and  C_3
REMARK    3  A    between atoms: C_4  and  O_6
REMARK    4  A    between atoms: O_6  and  C_7
REMARK    5  A    between atoms: N_11  and  C_12
REMARK                            x       y       z     vdW  Elec       q    Type
REMARK                         _______ _______ _______ _____ _____    ______ ____
ROOT
ATOM      1  C   UNL A   1      63.458 -23.312  -6.993  0.00  0.00    +0.149 A 
ATOM      2  C   UNL A   1      63.096 -22.796  -8.230  0.00  0.00    -0.016 A 
ATOM      3  C   UNL A   1      62.408 -23.610  -9.122  0.00  0.00    -0.042 A 
ATOM      4  C   UNL A   1      62.089 -24.915  -8.755  0.00  0.00    +0.004 A 
ATOM      5  N   UNL A   1      62.426 -25.389  -7.534  0.00  0.00    -0.353 N 
ATOM      6  C   UNL A   1      62.102 -26.776  -7.166  0.00  0.00    +0.011 C 
ATOM      7  C   UNL A   1      63.095 -24.613  -6.649  0.00  0.00    +0.047 A 
ENDROOT
BRANCH   1   8
ATOM      8  O   UNL A   1      64.147 -22.456  -6.120  0.00  0.00    -0.410 OA
BRANCH   8  12
ATOM      9  C   UNL A   1      65.193 -23.304  -3.739  0.00  0.00    +0.006 C 
ATOM     10  N   UNL A   1      64.058 -22.396  -3.803  0.00  0.00    -0.273 N 
ATOM     11  C   UNL A   1      63.400 -22.094  -2.544  0.00  0.00    +0.006 C 
ATOM     12  C   UNL A   1      63.467 -21.999  -4.988  0.00  0.00    +0.408 C 
ATOM     13  O   UNL A   1      62.454 -21.308  -5.061  0.00  0.00    -0.226 OA
ENDBRANCH   8  12
ENDBRANCH   1   8
TORSDOF 2
ENDMDL
MODEL 16
REMARK VINA RESULT:    -4.289     20.264     21.404
REMARK INTER + INTRA:          -4.802
REMARK INTER:                  -4.529
REMARK INTRA:                  -0.273
REMARK UNBOUND:                -0.012
REMARK  Name = cpd62.pdb
REMARK  5 active torsions:
REMARK  status: ('A' for Active; 'I' for Inactive)
REMARK    1  A    between atoms: C_1  and  N_2
REMARK    2  A    between atoms: N_2  and  C_3
REMARK    3  A    between atoms: C_4  and  O_6
REMARK    4  A    between atoms: O_6  and  C_7
REMARK    5  A    between atoms: N_11  and  C_12
REMARK                            x       y       z     vdW  Elec       q    Type
REMARK                         _______ _______ _______ _____ _____    ______ ____
ROOT
ATOM      1  C   UNL A   1      45.679 -20.970 -41.609  0.00  0.00    +0.149 A 
ATOM      2  C   UNL A   1      45.259 -21.910 -42.541  0.00  0.00    -0.016 A 
ATOM      3  C   UNL A   1      46.105 -22.967 -42.857  0.00  0.00    -0.042 A 
ATOM      4  C   UNL A   1      47.343 -23.067 -42.229  0.00  0.00    +0.004 A 
ATOM      5  N   UNL A   1      47.721 -22.156 -41.302  0.00  0.00    -0.353 N 
ATOM      6  C   UNL A   1      49.042 -22.261 -40.661  0.00  0.00    +0.011 C 
ATOM      7  C   UNL A   1      46.912 -21.120 -40.978  0.00  0.00    +0.047 A 
ENDROOT
BRANCH   1   8
ATOM      8  O   UNL A   1      44.793 -19.922 -41.315  0.00  0.00    -0.410 OA
BRANCH   8  12
ATOM      9  C   UNL A   1      45.371 -17.610 -39.972  0.00  0.00    +0.006 C 
ATOM     10  N   UNL A   1      44.534 -18.649 -39.393  0.00  0.00    -0.273 N 
ATOM     11  C   UNL A   1      44.157 -18.476 -38.001  0.00  0.00    +0.006 C 
ATOM     12  C   UNL A   1      44.275 -19.855 -40.018  0.00  0.00    +0.408 C 
ATOM     13  O   UNL A   1      43.648 -20.781 -39.510  0.00  0.00    -0.226 OA
ENDBRANCH   8  12
ENDBRANCH   1   8
TORSDOF 2
ENDMDL
MODEL 17
REMARK VINA RESULT:    -4.241     20.590     21.673
REMARK INTER + INTRA:          -4.749
REMARK INTER:                  -4.478
REMARK INTRA:                  -0.271
REMARK UNBOUND:                -0.012
REMARK  Name = cpd62.pdb
REMARK  5 active torsions:
REMARK  status: ('A' for Active; 'I' for Inactive)
REMARK    1  A    between atoms: C_1  and  N_2
REMARK    2  A    between atoms: N_2  and  C_3
REMARK    3  A    between atoms: C_4  and  O_6
REMARK    4  A    between atoms: O_6  and  C_7
REMARK    5  A    between atoms: N_11  and  C_12
REMARK                            x       y       z     vdW  Elec       q    Type
REMARK                         _______ _______ _______ _____ _____    ______ ____
ROOT
ATOM      1  C   UNL A   1      55.194 -35.830 -47.892  0.00  0.00    +0.149 A 
ATOM      2  C   UNL A   1      56.127 -34.807 -47.774  0.00  0.00    -0.016 A 
ATOM      3  C   UNL A   1      56.014 -33.915 -46.714  0.00  0.00    -0.042 A 
ATOM      4  C   UNL A   1      54.982 -34.070 -45.792  0.00  0.00    +0.004 A 
ATOM      5  N   UNL A   1      54.102 -35.091 -45.910  0.00  0.00    -0.353 N 
ATOM      6  C   UNL A   1      53.003 -35.232 -44.940  0.00  0.00    +0.011 C 
ATOM      7  C   UNL A   1      54.194 -35.973 -46.933  0.00  0.00    +0.047 A 
ENDROOT
BRANCH   1   8
ATOM      8  O   UNL A   1      55.347 -36.712 -48.973  0.00  0.00    -0.410 OA
BRANCH   8  12
ATOM      9  C   UNL A   1      54.274 -39.200 -49.347  0.00  0.00    +0.006 C 
ATOM     10  N   UNL A   1      53.757 -38.027 -50.034  0.00  0.00    -0.273 N 
ATOM     11  C   UNL A   1      52.753 -38.265 -51.055  0.00  0.00    +0.006 C 
ATOM     12  C   UNL A   1      54.316 -36.767 -49.916  0.00  0.00    +0.408 C 
ATOM     13  O   UNL A   1      53.953 -35.784 -50.555  0.00  0.00    -0.226 OA
ENDBRANCH   8  12
ENDBRANCH   1   8
TORSDOF 2
ENDMDL
MODEL 18
REMARK VINA RESULT:    -4.184     20.616     23.056
REMARK INTER + INTRA:          -4.686
REMARK INTER:                  -4.409
REMARK INTRA:                  -0.277
REMARK UNBOUND:                -0.012
REMARK  Name = cpd62.pdb
REMARK  5 active torsions:
REMARK  status: ('A' for Active; 'I' for Inactive)
REMARK    1  A    between atoms: C_1  and  N_2
REMARK    2  A    between atoms: N_2  and  C_3
REMARK    3  A    between atoms: C_4  and  O_6
REMARK    4  A    between atoms: O_6  and  C_7
REMARK    5  A    between atoms: N_11  and  C_12
REMARK                            x       y       z     vdW  Elec       q    Type
REMARK                         _______ _______ _______ _____ _____    ______ ____
ROOT
ATOM      1  C   UNL A   1      45.710 -19.565 -41.128  0.00  0.00    +0.149 A 
ATOM      2  C   UNL A   1      44.710 -19.398 -42.077  0.00  0.00    -0.016 A 
ATOM      3  C   UNL A   1      44.438 -20.440 -42.955  0.00  0.00    -0.042 A 
ATOM      4  C   UNL A   1      45.160 -21.627 -42.858  0.00  0.00    +0.004 A 
ATOM      5  N   UNL A   1      46.110 -21.779 -41.906  0.00  0.00    -0.353 N 
ATOM      6  C   UNL A   1      46.881 -23.030 -41.827  0.00  0.00    +0.011 C 
ATOM      7  C   UNL A   1      46.390 -20.777 -41.040  0.00  0.00    +0.047 A 
ENDROOT
BRANCH   1   8
ATOM      8  O   UNL A   1      45.950 -18.489 -40.258  0.00  0.00    -0.410 OA
BRANCH   8  12
ATOM      9  C   UNL A   1      44.546 -16.158 -39.980  0.00  0.00    +0.006 C 
ATOM     10  N   UNL A   1      45.875 -16.192 -40.570  0.00  0.00    -0.273 N 
ATOM     11  C   UNL A   1      46.354 -14.953 -41.158  0.00  0.00    +0.006 C 
ATOM     12  C   UNL A   1      46.585 -17.360 -40.782  0.00  0.00    +0.408 C 
ATOM     13  O   UNL A   1      47.667 -17.420 -41.360  0.00  0.00    -0.226 OA
ENDBRANCH   8  12
ENDBRANCH   1   8
TORSDOF 2
ENDMDL
MODEL 19
REMARK VINA RESULT:    -4.167     19.776     20.947
REMARK INTER + INTRA:          -4.667
REMARK INTER:                  -4.418
REMARK INTRA:                  -0.249
REMARK UNBOUND:                -0.012
REMARK  Name = cpd62.pdb
REMARK  5 active torsions:
REMARK  status: ('A' for Active; 'I' for Inactive)
REMARK    1  A    between atoms: C_1  and  N_2
REMARK    2  A    between atoms: N_2  and  C_3
REMARK    3  A    between atoms: C_4  and  O_6
REMARK    4  A    between atoms: O_6  and  C_7
REMARK    5  A    between atoms: N_11  and  C_12
REMARK                            x       y       z     vdW  Elec       q    Type
REMARK                         _______ _______ _______ _____ _____    ______ ____
ROOT
ATOM      1  C   UNL A   1      45.325 -20.005 -40.501  0.00  0.00    +0.149 A 
ATOM      2  C   UNL A   1      44.422 -19.623 -41.484  0.00  0.00    -0.016 A 
ATOM      3  C   UNL A   1      44.324 -20.390 -42.639  0.00  0.00    -0.042 A 
ATOM      4  C   UNL A   1      45.120 -21.524 -42.781  0.00  0.00    +0.004 A 
ATOM      5  N   UNL A   1      45.973 -21.893 -41.798  0.00  0.00    -0.353 N 
ATOM      6  C   UNL A   1      46.824 -23.082 -41.969  0.00  0.00    +0.011 C 
ATOM      7  C   UNL A   1      46.083 -21.162 -40.664  0.00  0.00    +0.047 A 
ENDROOT
BRANCH   1   8
ATOM      8  O   UNL A   1      45.389 -19.206 -39.348  0.00  0.00    -0.410 OA
BRANCH   8  12
ATOM      9  C   UNL A   1      47.283 -18.926 -37.393  0.00  0.00    +0.006 C 
ATOM     10  N   UNL A   1      46.012 -19.588 -37.146  0.00  0.00    -0.273 N 
ATOM     11  C   UNL A   1      45.863 -20.241 -35.858  0.00  0.00    +0.006 C 
ATOM     12  C   UNL A   1      45.060 -19.801 -38.127  0.00  0.00    +0.408 C 
ATOM     13  O   UNL A   1      44.023 -20.436 -37.962  0.00  0.00    -0.226 OA
ENDBRANCH   8  12
ENDBRANCH   1   8
TORSDOF 2
ENDMDL
MODEL 20
REMARK VINA RESULT:    -4.154     19.664     20.706
REMARK INTER + INTRA:          -4.652
REMARK INTER:                  -4.390
REMARK INTRA:                  -0.262
REMARK UNBOUND:                -0.012
REMARK  Name = cpd62.pdb
REMARK  5 active torsions:
REMARK  status: ('A' for Active; 'I' for Inactive)
REMARK    1  A    between atoms: C_1  and  N_2
REMARK    2  A    between atoms: N_2  and  C_3
REMARK    3  A    between atoms: C_4  and  O_6
REMARK    4  A    between atoms: O_6  and  C_7
REMARK    5  A    between atoms: N_11  and  C_12
REMARK                            x       y       z     vdW  Elec       q    Type
REMARK                         _______ _______ _______ _____ _____    ______ ____
ROOT
ATOM      1  C   UNL A   1      46.308 -21.132 -39.223  0.00  0.00    +0.149 A 
ATOM      2  C   UNL A   1      47.226 -21.993 -39.811  0.00  0.00    -0.016 A 
ATOM      3  C   UNL A   1      47.237 -22.116 -41.196  0.00  0.00    -0.042 A 
ATOM      4  C   UNL A   1      46.342 -21.371 -41.960  0.00  0.00    +0.004 A 
ATOM      5  N   UNL A   1      45.477 -20.517 -41.367  0.00  0.00    -0.353 N 
ATOM      6  C   UNL A   1      44.522 -19.750 -42.184  0.00  0.00    +0.011 C 
ATOM      7  C   UNL A   1      45.449 -20.379 -40.021  0.00  0.00    +0.047 A 
ENDROOT
BRANCH   1   8
ATOM      8  O   UNL A   1      46.333 -21.033 -37.823  0.00  0.00    -0.410 OA
BRANCH   8  12
ATOM      9  C   UNL A   1      44.380 -20.107 -36.146  0.00  0.00    +0.006 C 
ATOM     10  N   UNL A   1      45.611 -19.368 -36.377  0.00  0.00    -0.273 N 
ATOM     11  C   UNL A   1      45.683 -18.035 -35.806  0.00  0.00    +0.006 C 
ATOM     12  C   UNL A   1      46.589 -19.777 -37.266  0.00  0.00    +0.408 C 
ATOM     13  O   UNL A   1      47.591 -19.124 -37.544  0.00  0.00    -0.226 OA
ENDBRANCH   8  12
ENDBRANCH   1   8
TORSDOF 2
ENDMDL
