REMARK  Name = cpd156.pdb
REMARK  13 active torsions:
REMARK  status: ('A' for Active; 'I' for Inactive)
REMARK    1  A    between atoms: C_2  and  C_3
REMARK    2  A    between atoms: C_3  and  S_4
REMARK    3  A    between atoms: S_4  and  C_5
REMARK    4  A    between atoms: C_5  and  C_6
REMARK    5  A    between atoms: C_6  and  N_7
REMARK    6  A    between atoms: C_6  and  C_30
REMARK    7  A    between atoms: C_8  and  C_10
REMARK    8  A    between atoms: C_10  and  C_11
REMARK    9  A    between atoms: C_11  and  C_12
REMARK   10  A    between atoms: C_12  and  C_13
REMARK   11  A    between atoms: C_13  and  C_14
REMARK   12  A    between atoms: C_14  and  N_15
REMARK   13  A    between atoms: N_15  and  C_16
REMARK                            x       y       z     vdW  Elec       q    Type
REMARK                         _______ _______ _______ _____ _____    ______ ____
ROOT
ATOM      1  N   UNL A   1       2.745   2.072  -0.295  0.00  0.00    -0.303 N 
ATOM      2  C   UNL A   1       3.285   1.307   0.717  0.00  0.00    +0.214 C 
ATOM      3  O   UNL A   1       2.850   1.306   1.863  0.00  0.00    -0.276 OA
ATOM      4  H   UNL A   1       3.222   2.168  -1.151  0.00  0.00    +0.000 HD
ENDROOT
BRANCH   1   5
ATOM      5  C   UNL A   1       1.459   2.741  -0.090  0.00  0.00    +0.109 C 
BRANCH   5   6
ATOM      6  C   UNL A   1       0.373   1.745  -0.548  0.00  0.00    +0.240 C 
ATOM      7  O   UNL A   1       0.601   0.976  -1.483  0.00  0.00    -0.273 OA
ATOM      8  N   UNL A   1      -0.812   1.888   0.137  0.00  0.00    -0.263 N 
ATOM      9  C   UNL A   1      -1.965   1.167  -0.040  0.00  0.00    +0.165 A 
ATOM     10  N   UNL A   1      -3.014   1.399   0.710  0.00  0.00    -0.225 NA
ATOM     11  C   UNL A   1      -4.043   0.544   0.349  0.00  0.00    +0.080 A 
ATOM     12  C   UNL A   1      -5.324   0.494   0.934  0.00  0.00    -0.035 A 
ATOM     13  C   UNL A   1      -6.267  -0.427   0.467  0.00  0.00    -0.060 A 
ATOM     14  C   UNL A   1      -5.949  -1.295  -0.573  0.00  0.00    -0.061 A 
ATOM     15  C   UNL A   1      -4.686  -1.265  -1.173  0.00  0.00    -0.046 A 
ATOM     16  C   UNL A   1      -3.748  -0.335  -0.695  0.00  0.00    +0.041 A 
ATOM     17  S   UNL A   1      -2.133  -0.050  -1.214  0.00  0.00    -0.052 S 
ATOM     18  H   UNL A   1      -0.834   2.586   0.831  0.00  0.00    +0.000 HD
ENDBRANCH   5   6
BRANCH   5  19
ATOM     19  C   UNL A   1       1.319   4.012  -0.939  0.00  0.00    +0.021 C 
BRANCH  19  20
ATOM     20  S   UNL A   1       2.120   5.496  -0.227  0.00  0.00    -0.154 S 
BRANCH  20  21
ATOM     21  C   UNL A   1       3.861   4.985  -0.269  0.00  0.00    +0.012 C 
BRANCH  21  23
ATOM     22  C   UNL A   1       4.647   7.438  -0.208  0.00  0.00    -0.102 C 
ATOM     23  C   UNL A   1       4.848   6.114  -0.150  0.00  0.00    -0.081 C 
ENDBRANCH  21  23
ENDBRANCH  20  21
ENDBRANCH  19  20
ENDBRANCH   5  19
ENDBRANCH   1   5
BRANCH   2  24
ATOM     24  C   UNL A   1       4.498   0.505   0.301  0.00  0.00    +0.024 C 
BRANCH  24  25
ATOM     25  C   UNL A   1       5.756   1.062   0.961  0.00  0.00    -0.045 C 
BRANCH  25  26
ATOM     26  C   UNL A   1       7.012   0.421   0.374  0.00  0.00    -0.051 C 
BRANCH  26  27
ATOM     27  C   UNL A   1       8.272   0.850   1.126  0.00  0.00    -0.037 C 
BRANCH  27  28
ATOM     28  C   UNL A   1       9.529   0.329   0.428  0.00  0.00    +0.009 C 
BRANCH  28  29
ATOM     29  N   UNL A   1      10.692   0.566   1.291  0.00  0.00    -0.343 N 
ATOM     30  H   UNL A   1      10.634   0.781   2.250  0.00  0.00    +0.000 HD
BRANCH  29  31
ATOM     31  C   UNL A   1      11.917   0.447   0.568  0.00  0.00    +0.041 A 
ATOM     32  C   UNL A   1      12.543  -0.804   0.390  0.00  0.00    -0.005 A 
ATOM     33  C   UNL A   1      13.664  -0.849  -0.445  0.00  0.00    +0.047 A 
ATOM     34  N   UNL A   1      14.184   0.242  -1.056  0.00  0.00    -0.251 NA
ATOM     35  C   UNL A   1      13.595   1.432  -0.874  0.00  0.00    +0.073 A 
ATOM     36  C   UNL A   1      14.141   2.543  -1.506  0.00  0.00    -0.036 A 
ATOM     37  C   UNL A   1      13.589   3.819  -1.368  0.00  0.00    -0.060 A 
ATOM     38  C   UNL A   1      12.462   3.996  -0.579  0.00  0.00    -0.061 A 
ATOM     39  C   UNL A   1      11.897   2.895   0.062  0.00  0.00    -0.051 A 
ATOM     40  C   UNL A   1      12.449   1.598  -0.076  0.00  0.00    +0.021 A 
ATOM     41  C   UNL A   1      14.418  -2.131  -0.696  0.00  0.00    -0.010 C 
ATOM     42  C   UNL A   1      13.601  -3.381  -0.396  0.00  0.00    -0.047 C 
ATOM     43  C   UNL A   1      12.961  -3.254   0.978  0.00  0.00    -0.049 C 
ATOM     44  C   UNL A   1      11.996  -2.069   1.009  0.00  0.00    -0.024 C 
ENDBRANCH  29  31
ENDBRANCH  28  29
ENDBRANCH  27  28
ENDBRANCH  26  27
ENDBRANCH  25  26
ENDBRANCH  24  25
ENDBRANCH   2  24
TORSDOF 13
