MODEL 1
REMARK VINA RESULT:    -7.383      0.000      0.000
REMARK INTER + INTRA:         -15.356
REMARK INTER:                 -12.993
REMARK INTRA:                  -2.363
REMARK UNBOUND:                -2.363
REMARK  Name = cpd156.pdb
REMARK  13 active torsions:
REMARK  status: ('A' for Active; 'I' for Inactive)
REMARK    1  A    between atoms: C_2  and  C_3
REMARK    2  A    between atoms: C_3  and  S_4
REMARK    3  A    between atoms: S_4  and  C_5
REMARK    4  A    between atoms: C_5  and  C_6
REMARK    5  A    between atoms: C_6  and  N_7
REMARK    6  A    between atoms: C_6  and  C_30
REMARK    7  A    between atoms: C_8  and  C_10
REMARK    8  A    between atoms: C_10  and  C_11
REMARK    9  A    between atoms: C_11  and  C_12
REMARK   10  A    between atoms: C_12  and  C_13
REMARK   11  A    between atoms: C_13  and  C_14
REMARK   12  A    between atoms: C_14  and  N_15
REMARK   13  A    between atoms: N_15  and  C_16
REMARK                            x       y       z     vdW  Elec       q    Type
REMARK                         _______ _______ _______ _____ _____    ______ ____
ROOT
ATOM      1  N   UNL A   1      33.800 -35.663 -32.211  0.00  0.00    -0.303 N 
ATOM      2  C   UNL A   1      33.241 -35.556 -33.467  0.00  0.00    +0.214 C 
ATOM      3  O   UNL A   1      33.379 -34.571 -34.182  0.00  0.00    -0.276 OA
ATOM      4  H   UNL A   1      33.531 -36.394 -31.610  0.00  0.00    +0.000 HD
ENDROOT
BRANCH   1   5
ATOM      5  C   UNL A   1      34.797 -34.682 -31.777  0.00  0.00    +0.109 C 
BRANCH   5   6
ATOM      6  C   UNL A   1      35.956 -35.487 -31.153  0.00  0.00    +0.240 C 
ATOM      7  O   UNL A   1      35.794 -36.058 -30.073  0.00  0.00    -0.273 OA
ATOM      8  N   UNL A   1      37.119 -35.413 -31.885  0.00  0.00    -0.263 N 
ATOM      9  C   UNL A   1      38.321 -36.004 -31.594  0.00  0.00    +0.165 A 
ATOM     10  N   UNL A   1      39.342 -35.865 -32.404  0.00  0.00    -0.225 NA
ATOM     11  C   UNL A   1      40.432 -36.557 -31.902  0.00  0.00    +0.080 A 
ATOM     12  C   UNL A   1      41.706 -36.644 -32.499  0.00  0.00    -0.035 A 
ATOM     13  C   UNL A   1      42.717 -37.383 -31.877  0.00  0.00    -0.060 A 
ATOM     14  C   UNL A   1      42.474 -38.034 -30.671  0.00  0.00    -0.061 A 
ATOM     15  C   UNL A   1      41.220 -37.963 -30.056  0.00  0.00    -0.046 A 
ATOM     16  C   UNL A   1      40.213 -37.216 -30.691  0.00  0.00    +0.041 A 
ATOM     17  S   UNL A   1      38.589 -36.936 -30.198  0.00  0.00    -0.052 S 
ATOM     18  H   UNL A   1      37.083 -34.875 -32.708  0.00  0.00    +0.000 HD
ENDBRANCH   5   6
BRANCH   5  19
ATOM     19  C   UNL A   1      34.252 -33.731 -30.702  0.00  0.00    +0.021 C 
BRANCH  19  20
ATOM     20  S   UNL A   1      34.001 -32.008 -31.266  0.00  0.00    -0.154 S 
BRANCH  20  21
ATOM     21  C   UNL A   1      32.415 -31.628 -30.469  0.00  0.00    +0.012 C 
BRANCH  21  23
ATOM     22  C   UNL A   1      30.881 -33.158 -31.865  0.00  0.00    -0.102 C 
ATOM     23  C   UNL A   1      31.202 -31.994 -31.281  0.00  0.00    -0.081 C 
ENDBRANCH  21  23
ENDBRANCH  20  21
ENDBRANCH  19  20
ENDBRANCH   5  19
ENDBRANCH   1   5
BRANCH   2  24
ATOM     24  C   UNL A   1      32.395 -36.745 -33.866  0.00  0.00    +0.024 C 
BRANCH  24  25
ATOM     25  C   UNL A   1      32.003 -37.556 -32.634  0.00  0.00    -0.045 C 
BRANCH  25  26
ATOM     26  C   UNL A   1      30.526 -37.362 -32.298  0.00  0.00    -0.051 C 
BRANCH  26  27
ATOM     27  C   UNL A   1      30.336 -36.747 -30.911  0.00  0.00    -0.037 C 
BRANCH  27  28
ATOM     28  C   UNL A   1      31.633 -36.810 -30.103  0.00  0.00    +0.009 C 
BRANCH  28  29
ATOM     29  N   UNL A   1      31.642 -38.040 -29.303  0.00  0.00    -0.343 N 
ATOM     30  H   UNL A   1      30.907 -38.696 -29.288  0.00  0.00    +0.000 HD
BRANCH  29  31
ATOM     31  C   UNL A   1      32.846 -38.167 -28.547  0.00  0.00    +0.041 A 
ATOM     32  C   UNL A   1      32.951 -37.640 -27.243  0.00  0.00    -0.005 A 
ATOM     33  C   UNL A   1      34.115 -37.928 -26.525  0.00  0.00    +0.047 A 
ATOM     34  N   UNL A   1      35.143 -38.653 -27.028  0.00  0.00    -0.251 NA
ATOM     35  C   UNL A   1      35.046 -39.141 -28.272  0.00  0.00    +0.073 A 
ATOM     36  C   UNL A   1      36.109 -39.882 -28.775  0.00  0.00    -0.036 A 
ATOM     37  C   UNL A   1      36.089 -40.426 -30.062  0.00  0.00    -0.060 A 
ATOM     38  C   UNL A   1      34.981 -40.227 -30.872  0.00  0.00    -0.061 A 
ATOM     39  C   UNL A   1      33.903 -39.489 -30.387  0.00  0.00    -0.051 A 
ATOM     40  C   UNL A   1      33.915 -38.938 -29.082  0.00  0.00    +0.021 A 
ATOM     41  C   UNL A   1      34.338 -37.405 -25.128  0.00  0.00    -0.010 C 
ATOM     42  C   UNL A   1      33.051 -36.998 -24.422  0.00  0.00    -0.047 C 
ATOM     43  C   UNL A   1      32.231 -36.101 -25.336  0.00  0.00    -0.049 C 
ATOM     44  C   UNL A   1      31.829 -36.855 -26.604  0.00  0.00    -0.024 C 
ENDBRANCH  29  31
ENDBRANCH  28  29
ENDBRANCH  27  28
ENDBRANCH  26  27
ENDBRANCH  25  26
ENDBRANCH  24  25
ENDBRANCH   2  24
TORSDOF 13
ENDMDL
MODEL 2
REMARK VINA RESULT:    -7.276      2.471      6.934
REMARK INTER + INTRA:         -15.169
REMARK INTER:                 -12.724
REMARK INTRA:                  -2.445
REMARK UNBOUND:                -2.363
REMARK  Name = cpd156.pdb
REMARK  13 active torsions:
REMARK  status: ('A' for Active; 'I' for Inactive)
REMARK    1  A    between atoms: C_2  and  C_3
REMARK    2  A    between atoms: C_3  and  S_4
REMARK    3  A    between atoms: S_4  and  C_5
REMARK    4  A    between atoms: C_5  and  C_6
REMARK    5  A    between atoms: C_6  and  N_7
REMARK    6  A    between atoms: C_6  and  C_30
REMARK    7  A    between atoms: C_8  and  C_10
REMARK    8  A    between atoms: C_10  and  C_11
REMARK    9  A    between atoms: C_11  and  C_12
REMARK   10  A    between atoms: C_12  and  C_13
REMARK   11  A    between atoms: C_13  and  C_14
REMARK   12  A    between atoms: C_14  and  N_15
REMARK   13  A    between atoms: N_15  and  C_16
REMARK                            x       y       z     vdW  Elec       q    Type
REMARK                         _______ _______ _______ _____ _____    ______ ____
ROOT
ATOM      1  N   UNL A   1      33.709 -37.861 -28.826  0.00  0.00    -0.303 N 
ATOM      2  C   UNL A   1      33.317 -37.328 -27.616  0.00  0.00    +0.214 C 
ATOM      3  O   UNL A   1      33.328 -37.964 -26.568  0.00  0.00    -0.276 OA
ATOM      4  H   UNL A   1      33.530 -37.373 -29.662  0.00  0.00    +0.000 HD
ENDROOT
BRANCH   1   5
ATOM      5  C   UNL A   1      34.393 -39.155 -28.860  0.00  0.00    +0.109 C 
BRANCH   5   6
ATOM      6  C   UNL A   1      35.905 -38.847 -28.878  0.00  0.00    +0.240 C 
ATOM      7  O   UNL A   1      36.632 -39.289 -27.987  0.00  0.00    -0.273 OA
ATOM      8  N   UNL A   1      36.272 -38.012 -29.908  0.00  0.00    -0.263 N 
ATOM      9  C   UNL A   1      37.531 -37.545 -30.190  0.00  0.00    +0.165 A 
ATOM     10  N   UNL A   1      37.735 -36.772 -31.228  0.00  0.00    -0.225 NA
ATOM     11  C   UNL A   1      39.078 -36.442 -31.306  0.00  0.00    +0.080 A 
ATOM     12  C   UNL A   1      39.677 -35.631 -32.290  0.00  0.00    -0.035 A 
ATOM     13  C   UNL A   1      41.053 -35.383 -32.245  0.00  0.00    -0.060 A 
ATOM     14  C   UNL A   1      41.835 -35.932 -31.234  0.00  0.00    -0.061 A 
ATOM     15  C   UNL A   1      41.266 -36.738 -30.243  0.00  0.00    -0.046 A 
ATOM     16  C   UNL A   1      39.883 -36.979 -30.299  0.00  0.00    +0.041 A 
ATOM     17  S   UNL A   1      38.895 -37.912 -29.244  0.00  0.00    -0.052 S 
ATOM     18  H   UNL A   1      35.551 -37.717 -30.510  0.00  0.00    +0.000 HD
ENDBRANCH   5   6
BRANCH   5  19
ATOM     19  C   UNL A   1      34.062 -39.958 -30.126  0.00  0.00    +0.021 C 
BRANCH  19  20
ATOM     20  S   UNL A   1      33.328 -41.605 -29.813  0.00  0.00    -0.154 S 
BRANCH  20  21
ATOM     21  C   UNL A   1      33.136 -41.545 -28.009  0.00  0.00    +0.012 C 
BRANCH  21  23
ATOM     22  C   UNL A   1      34.782 -43.229 -26.965  0.00  0.00    -0.102 C 
ATOM     23  C   UNL A   1      33.555 -42.799 -27.292  0.00  0.00    -0.081 C 
ENDBRANCH  21  23
ENDBRANCH  20  21
ENDBRANCH  19  20
ENDBRANCH   5  19
ENDBRANCH   1   5
BRANCH   2  24
ATOM     24  C   UNL A   1      32.821 -35.902 -27.704  0.00  0.00    +0.024 C 
BRANCH  24  25
ATOM     25  C   UNL A   1      33.165 -35.302 -29.064  0.00  0.00    -0.045 C 
BRANCH  25  26
ATOM     26  C   UNL A   1      34.345 -34.338 -28.954  0.00  0.00    -0.051 C 
BRANCH  26  27
ATOM     27  C   UNL A   1      35.237 -34.390 -30.194  0.00  0.00    -0.037 C 
BRANCH  27  28
ATOM     28  C   UNL A   1      34.529 -35.103 -31.347  0.00  0.00    +0.009 C 
BRANCH  28  29
ATOM     29  N   UNL A   1      34.140 -34.113 -32.358  0.00  0.00    -0.343 N 
ATOM     30  H   UNL A   1      34.777 -33.624 -32.927  0.00  0.00    +0.000 HD
BRANCH  29  31
ATOM     31  C   UNL A   1      32.723 -33.946 -32.414  0.00  0.00    +0.041 A 
ATOM     32  C   UNL A   1      31.899 -34.896 -33.051  0.00  0.00    -0.005 A 
ATOM     33  C   UNL A   1      30.515 -34.724 -32.940  0.00  0.00    +0.047 A 
ATOM     34  N   UNL A   1      29.942 -33.687 -32.284  0.00  0.00    -0.251 NA
ATOM     35  C   UNL A   1      30.728 -32.778 -31.691  0.00  0.00    +0.073 A 
ATOM     36  C   UNL A   1      30.125 -31.719 -31.024  0.00  0.00    -0.036 A 
ATOM     37  C   UNL A   1      30.872 -30.728 -30.381  0.00  0.00    -0.060 A 
ATOM     38  C   UNL A   1      32.257 -30.793 -30.402  0.00  0.00    -0.061 A 
ATOM     39  C   UNL A   1      32.882 -31.848 -31.063  0.00  0.00    -0.051 A 
ATOM     40  C   UNL A   1      32.132 -32.857 -31.715  0.00  0.00    +0.021 A 
ATOM     41  C   UNL A   1      29.541 -35.674 -33.592  0.00  0.00    -0.010 C 
ATOM     42  C   UNL A   1      30.149 -37.031 -33.921  0.00  0.00    -0.047 C 
ATOM     43  C   UNL A   1      31.466 -36.835 -34.656  0.00  0.00    -0.049 C 
ATOM     44  C   UNL A   1      32.468 -36.099 -33.767  0.00  0.00    -0.024 C 
ENDBRANCH  29  31
ENDBRANCH  28  29
ENDBRANCH  27  28
ENDBRANCH  26  27
ENDBRANCH  25  26
ENDBRANCH  24  25
ENDBRANCH   2  24
TORSDOF 13
ENDMDL
MODEL 3
REMARK VINA RESULT:    -7.257     17.516     21.416
REMARK INTER + INTRA:         -15.135
REMARK INTER:                 -12.550
REMARK INTRA:                  -2.585
REMARK UNBOUND:                -2.363
REMARK  Name = cpd156.pdb
REMARK  13 active torsions:
REMARK  status: ('A' for Active; 'I' for Inactive)
REMARK    1  A    between atoms: C_2  and  C_3
REMARK    2  A    between atoms: C_3  and  S_4
REMARK    3  A    between atoms: S_4  and  C_5
REMARK    4  A    between atoms: C_5  and  C_6
REMARK    5  A    between atoms: C_6  and  N_7
REMARK    6  A    between atoms: C_6  and  C_30
REMARK    7  A    between atoms: C_8  and  C_10
REMARK    8  A    between atoms: C_10  and  C_11
REMARK    9  A    between atoms: C_11  and  C_12
REMARK   10  A    between atoms: C_12  and  C_13
REMARK   11  A    between atoms: C_13  and  C_14
REMARK   12  A    between atoms: C_14  and  N_15
REMARK   13  A    between atoms: N_15  and  C_16
REMARK                            x       y       z     vdW  Elec       q    Type
REMARK                         _______ _______ _______ _____ _____    ______ ____
ROOT
ATOM      1  N   UNL A   1      44.592 -18.412 -35.741  0.00  0.00    -0.303 N 
ATOM      2  C   UNL A   1      45.824 -19.028 -35.805  0.00  0.00    +0.214 C 
ATOM      3  O   UNL A   1      46.637 -18.999 -34.888  0.00  0.00    -0.276 OA
ATOM      4  H   UNL A   1      44.042 -18.320 -36.553  0.00  0.00    +0.000 HD
ENDROOT
BRANCH   1   5
ATOM      5  C   UNL A   1      44.107 -17.893 -34.461  0.00  0.00    +0.109 C 
BRANCH   5   6
ATOM      6  C   UNL A   1      43.165 -18.970 -33.884  0.00  0.00    +0.240 C 
ATOM      7  O   UNL A   1      43.136 -19.173 -32.669  0.00  0.00    -0.273 OA
ATOM      8  N   UNL A   1      42.479 -19.662 -34.856  0.00  0.00    -0.263 N 
ATOM      9  C   UNL A   1      41.580 -20.681 -34.671  0.00  0.00    +0.165 A 
ATOM     10  N   UNL A   1      40.981 -21.231 -35.699  0.00  0.00    -0.225 NA
ATOM     11  C   UNL A   1      40.120 -22.223 -35.259  0.00  0.00    +0.080 A 
ATOM     12  C   UNL A   1      39.300 -23.031 -36.072  0.00  0.00    -0.035 A 
ATOM     13  C   UNL A   1      38.474 -23.996 -35.487  0.00  0.00    -0.060 A 
ATOM     14  C   UNL A   1      38.457 -24.165 -34.106  0.00  0.00    -0.061 A 
ATOM     15  C   UNL A   1      39.262 -23.379 -33.276  0.00  0.00    -0.046 A 
ATOM     16  C   UNL A   1      40.087 -22.413 -33.876  0.00  0.00    +0.041 A 
ATOM     17  S   UNL A   1      41.180 -21.305 -33.143  0.00  0.00    -0.052 S 
ATOM     18  H   UNL A   1      42.654 -19.396 -35.788  0.00  0.00    +0.000 HD
ENDBRANCH   5   6
BRANCH   5  19
ATOM     19  C   UNL A   1      43.298 -16.599 -34.623  0.00  0.00    +0.021 C 
BRANCH  19  20
ATOM     20  S   UNL A   1      43.568 -15.360 -33.304  0.00  0.00    -0.154 S 
BRANCH  20  21
ATOM     21  C   UNL A   1      41.881 -15.191 -32.656  0.00  0.00    +0.012 C 
BRANCH  21  23
ATOM     22  C   UNL A   1      39.943 -16.827 -32.205  0.00  0.00    -0.102 C 
ATOM     23  C   UNL A   1      40.993 -16.379 -32.907  0.00  0.00    -0.081 C 
ENDBRANCH  21  23
ENDBRANCH  20  21
ENDBRANCH  19  20
ENDBRANCH   5  19
ENDBRANCH   1   5
BRANCH   2  24
ATOM     24  C   UNL A   1      46.106 -19.703 -37.128  0.00  0.00    +0.024 C 
BRANCH  24  25
ATOM     25  C   UNL A   1      47.271 -19.019 -37.837  0.00  0.00    -0.045 C 
BRANCH  25  26
ATOM     26  C   UNL A   1      46.996 -17.529 -38.028  0.00  0.00    -0.051 C 
BRANCH  26  27
ATOM     27  C   UNL A   1      46.991 -17.138 -39.507  0.00  0.00    -0.037 C 
BRANCH  27  28
ATOM     28  C   UNL A   1      45.561 -16.984 -40.026  0.00  0.00    +0.009 C 
BRANCH  28  29
ATOM     29  N   UNL A   1      45.365 -17.882 -41.170  0.00  0.00    -0.343 N 
ATOM     30  H   UNL A   1      45.430 -17.601 -42.111  0.00  0.00    +0.000 HD
BRANCH  29  31
ATOM     31  C   UNL A   1      45.069 -19.214 -40.750  0.00  0.00    +0.041 A 
ATOM     32  C   UNL A   1      43.846 -19.527 -40.121  0.00  0.00    -0.005 A 
ATOM     33  C   UNL A   1      43.581 -20.877 -39.867  0.00  0.00    +0.047 A 
ATOM     34  N   UNL A   1      44.445 -21.876 -40.165  0.00  0.00    -0.251 NA
ATOM     35  C   UNL A   1      45.613 -21.574 -40.750  0.00  0.00    +0.073 A 
ATOM     36  C   UNL A   1      46.490 -22.610 -41.048  0.00  0.00    -0.036 A 
ATOM     37  C   UNL A   1      47.726 -22.380 -41.657  0.00  0.00    -0.060 A 
ATOM     38  C   UNL A   1      48.102 -21.084 -41.978  0.00  0.00    -0.061 A 
ATOM     39  C   UNL A   1      47.236 -20.031 -41.690  0.00  0.00    -0.051 A 
ATOM     40  C   UNL A   1      45.980 -20.256 -41.076  0.00  0.00    +0.021 A 
ATOM     41  C   UNL A   1      42.311 -21.324 -39.188  0.00  0.00    -0.010 C 
ATOM     42  C   UNL A   1      41.189 -20.297 -39.268  0.00  0.00    -0.047 C 
ATOM     43  C   UNL A   1      41.715 -18.934 -38.844  0.00  0.00    -0.049 C 
ATOM     44  C   UNL A   1      42.818 -18.469 -39.795  0.00  0.00    -0.024 C 
ENDBRANCH  29  31
ENDBRANCH  28  29
ENDBRANCH  27  28
ENDBRANCH  26  27
ENDBRANCH  25  26
ENDBRANCH  24  25
ENDBRANCH   2  24
TORSDOF 13
ENDMDL
MODEL 4
REMARK VINA RESULT:    -7.104     17.340     20.883
REMARK INTER + INTRA:         -14.866
REMARK INTER:                 -11.683
REMARK INTRA:                  -3.184
REMARK UNBOUND:                -2.363
REMARK  Name = cpd156.pdb
REMARK  13 active torsions:
REMARK  status: ('A' for Active; 'I' for Inactive)
REMARK    1  A    between atoms: C_2  and  C_3
REMARK    2  A    between atoms: C_3  and  S_4
REMARK    3  A    between atoms: S_4  and  C_5
REMARK    4  A    between atoms: C_5  and  C_6
REMARK    5  A    between atoms: C_6  and  N_7
REMARK    6  A    between atoms: C_6  and  C_30
REMARK    7  A    between atoms: C_8  and  C_10
REMARK    8  A    between atoms: C_10  and  C_11
REMARK    9  A    between atoms: C_11  and  C_12
REMARK   10  A    between atoms: C_12  and  C_13
REMARK   11  A    between atoms: C_13  and  C_14
REMARK   12  A    between atoms: C_14  and  N_15
REMARK   13  A    between atoms: N_15  and  C_16
REMARK                            x       y       z     vdW  Elec       q    Type
REMARK                         _______ _______ _______ _____ _____    ______ ____
ROOT
ATOM      1  N   UNL A   1      39.459 -20.520 -35.063  0.00  0.00    -0.303 N 
ATOM      2  C   UNL A   1      38.667 -19.725 -35.866  0.00  0.00    +0.214 C 
ATOM      3  O   UNL A   1      37.954 -18.830 -35.428  0.00  0.00    -0.276 OA
ATOM      4  H   UNL A   1      39.885 -21.326 -35.433  0.00  0.00    +0.000 HD
ENDROOT
BRANCH   1   5
ATOM      5  C   UNL A   1      39.661 -20.157 -33.659  0.00  0.00    +0.109 C 
BRANCH   5   6
ATOM      6  C   UNL A   1      41.004 -19.398 -33.596  0.00  0.00    +0.240 C 
ATOM      7  O   UNL A   1      41.071 -18.319 -33.006  0.00  0.00    -0.273 OA
ATOM      8  N   UNL A   1      42.008 -20.020 -34.303  0.00  0.00    -0.263 N 
ATOM      9  C   UNL A   1      43.304 -19.597 -34.450  0.00  0.00    +0.165 A 
ATOM     10  N   UNL A   1      44.161 -20.312 -35.136  0.00  0.00    -0.225 NA
ATOM     11  C   UNL A   1      45.397 -19.685 -35.133  0.00  0.00    +0.080 A 
ATOM     12  C   UNL A   1      46.567 -20.156 -35.762  0.00  0.00    -0.035 A 
ATOM     13  C   UNL A   1      47.751 -19.416 -35.673  0.00  0.00    -0.060 A 
ATOM     14  C   UNL A   1      47.781 -18.217 -34.969  0.00  0.00    -0.061 A 
ATOM     15  C   UNL A   1      46.633 -17.725 -34.338  0.00  0.00    -0.046 A 
ATOM     16  C   UNL A   1      45.451 -18.477 -34.435  0.00  0.00    +0.041 A 
ATOM     17  S   UNL A   1      43.894 -18.150 -33.782  0.00  0.00    -0.052 S 
ATOM     18  H   UNL A   1      41.768 -20.862 -34.753  0.00  0.00    +0.000 HD
ENDBRANCH   5   6
BRANCH   5  19
ATOM     19  C   UNL A   1      39.773 -21.387 -32.748  0.00  0.00    +0.021 C 
BRANCH  19  20
ATOM     20  S   UNL A   1      39.646 -22.993 -33.617  0.00  0.00    -0.154 S 
BRANCH  20  21
ATOM     21  C   UNL A   1      37.916 -23.420 -33.273  0.00  0.00    +0.012 C 
BRANCH  21  23
ATOM     22  C   UNL A   1      37.008 -25.829 -33.168  0.00  0.00    -0.102 C 
ATOM     23  C   UNL A   1      37.480 -24.754 -33.815  0.00  0.00    -0.081 C 
ENDBRANCH  21  23
ENDBRANCH  20  21
ENDBRANCH  19  20
ENDBRANCH   5  19
ENDBRANCH   1   5
BRANCH   2  24
ATOM     24  C   UNL A   1      38.717 -20.090 -37.332  0.00  0.00    +0.024 C 
BRANCH  24  25
ATOM     25  C   UNL A   1      38.579 -18.840 -38.197  0.00  0.00    -0.045 C 
BRANCH  25  26
ATOM     26  C   UNL A   1      39.928 -18.426 -38.780  0.00  0.00    -0.051 C 
BRANCH  26  27
ATOM     27  C   UNL A   1      41.088 -19.150 -38.095  0.00  0.00    -0.037 C 
BRANCH  27  28
ATOM     28  C   UNL A   1      42.209 -19.451 -39.092  0.00  0.00    +0.009 C 
BRANCH  28  29
ATOM     29  N   UNL A   1      43.415 -19.845 -38.355  0.00  0.00    -0.343 N 
ATOM     30  H   UNL A   1      43.409 -20.403 -37.544  0.00  0.00    +0.000 HD
BRANCH  29  31
ATOM     31  C   UNL A   1      44.596 -19.320 -38.959  0.00  0.00    +0.041 A 
ATOM     32  C   UNL A   1      45.136 -18.082 -38.555  0.00  0.00    -0.005 A 
ATOM     33  C   UNL A   1      46.368 -17.708 -39.102  0.00  0.00    +0.047 A 
ATOM     34  N   UNL A   1      47.039 -18.456 -40.010  0.00  0.00    -0.251 NA
ATOM     35  C   UNL A   1      46.517 -19.626 -40.402  0.00  0.00    +0.073 A 
ATOM     36  C   UNL A   1      47.216 -20.381 -41.336  0.00  0.00    -0.036 A 
ATOM     37  C   UNL A   1      46.741 -21.611 -41.799  0.00  0.00    -0.060 A 
ATOM     38  C   UNL A   1      45.536 -22.104 -41.320  0.00  0.00    -0.061 A 
ATOM     39  C   UNL A   1      44.820 -21.363 -40.381  0.00  0.00    -0.051 A 
ATOM     40  C   UNL A   1      45.297 -20.118 -39.905  0.00  0.00    +0.021 A 
ATOM     41  C   UNL A   1      47.031 -16.400 -38.749  0.00  0.00    -0.010 C 
ATOM     42  C   UNL A   1      46.529 -15.801 -37.442  0.00  0.00    -0.047 C 
ATOM     43  C   UNL A   1      45.008 -15.788 -37.439  0.00  0.00    -0.049 C 
ATOM     44  C   UNL A   1      44.462 -17.214 -37.518  0.00  0.00    -0.024 C 
ENDBRANCH  29  31
ENDBRANCH  28  29
ENDBRANCH  27  28
ENDBRANCH  26  27
ENDBRANCH  25  26
ENDBRANCH  24  25
ENDBRANCH   2  24
TORSDOF 13
ENDMDL
MODEL 5
REMARK VINA RESULT:    -6.990     16.901     19.877
REMARK INTER + INTRA:         -14.665
REMARK INTER:                 -11.532
REMARK INTRA:                  -3.133
REMARK UNBOUND:                -2.363
REMARK  Name = cpd156.pdb
REMARK  13 active torsions:
REMARK  status: ('A' for Active; 'I' for Inactive)
REMARK    1  A    between atoms: C_2  and  C_3
REMARK    2  A    between atoms: C_3  and  S_4
REMARK    3  A    between atoms: S_4  and  C_5
REMARK    4  A    between atoms: C_5  and  C_6
REMARK    5  A    between atoms: C_6  and  N_7
REMARK    6  A    between atoms: C_6  and  C_30
REMARK    7  A    between atoms: C_8  and  C_10
REMARK    8  A    between atoms: C_10  and  C_11
REMARK    9  A    between atoms: C_11  and  C_12
REMARK   10  A    between atoms: C_12  and  C_13
REMARK   11  A    between atoms: C_13  and  C_14
REMARK   12  A    between atoms: C_14  and  N_15
REMARK   13  A    between atoms: N_15  and  C_16
REMARK                            x       y       z     vdW  Elec       q    Type
REMARK                         _______ _______ _______ _____ _____    ______ ____
ROOT
ATOM      1  N   UNL A   1      42.298 -17.631 -37.941  0.00  0.00    -0.303 N 
ATOM      2  C   UNL A   1      42.026 -16.311 -38.233  0.00  0.00    +0.214 C 
ATOM      3  O   UNL A   1      42.262 -15.390 -37.459  0.00  0.00    -0.276 OA
ATOM      4  H   UNL A   1      41.945 -18.348 -38.516  0.00  0.00    +0.000 HD
ENDROOT
BRANCH   1   5
ATOM      5  C   UNL A   1      43.114 -17.960 -36.770  0.00  0.00    +0.109 C 
BRANCH   5   6
ATOM      6  C   UNL A   1      44.204 -18.937 -37.261  0.00  0.00    +0.240 C 
ATOM      7  O   UNL A   1      45.164 -19.199 -36.536  0.00  0.00    -0.273 OA
ATOM      8  N   UNL A   1      43.996 -19.372 -38.550  0.00  0.00    -0.263 N 
ATOM      9  C   UNL A   1      44.783 -20.230 -39.273  0.00  0.00    +0.165 A 
ATOM     10  N   UNL A   1      44.443 -20.577 -40.490  0.00  0.00    -0.225 NA
ATOM     11  C   UNL A   1      45.385 -21.452 -41.006  0.00  0.00    +0.080 A 
ATOM     12  C   UNL A   1      45.356 -22.044 -42.285  0.00  0.00    -0.035 A 
ATOM     13  C   UNL A   1      46.379 -22.914 -42.673  0.00  0.00    -0.060 A 
ATOM     14  C   UNL A   1      47.428 -23.201 -41.804  0.00  0.00    -0.061 A 
ATOM     15  C   UNL A   1      47.482 -22.626 -40.530  0.00  0.00    -0.046 A 
ATOM     16  C   UNL A   1      46.449 -21.753 -40.153  0.00  0.00    +0.041 A 
ATOM     17  S   UNL A   1      46.229 -20.895 -38.678  0.00  0.00    -0.052 S 
ATOM     18  H   UNL A   1      43.192 -19.028 -39.003  0.00  0.00    +0.000 HD
ENDBRANCH   5   6
BRANCH   5  19
ATOM     19  C   UNL A   1      42.306 -18.670 -35.675  0.00  0.00    +0.021 C 
BRANCH  19  20
ATOM     20  S   UNL A   1      42.443 -17.911 -34.015  0.00  0.00    -0.154 S 
BRANCH  20  21
ATOM     21  C   UNL A   1      41.047 -18.707 -33.171  0.00  0.00    +0.012 C 
BRANCH  21  23
ATOM     22  C   UNL A   1      39.223 -16.922 -33.526  0.00  0.00    -0.102 C 
ATOM     23  C   UNL A   1      39.939 -17.770 -32.775  0.00  0.00    -0.081 C 
ENDBRANCH  21  23
ENDBRANCH  20  21
ENDBRANCH  19  20
ENDBRANCH   5  19
ENDBRANCH   1   5
BRANCH   2  24
ATOM     24  C   UNL A   1      41.362 -16.103 -39.576  0.00  0.00    +0.024 C 
BRANCH  24  25
ATOM     25  C   UNL A   1      40.230 -17.107 -39.770  0.00  0.00    -0.045 C 
BRANCH  25  26
ATOM     26  C   UNL A   1      38.877 -16.401 -39.840  0.00  0.00    -0.051 C 
BRANCH  26  27
ATOM     27  C   UNL A   1      37.760 -17.255 -39.240  0.00  0.00    -0.037 C 
BRANCH  27  28
ATOM     28  C   UNL A   1      38.204 -17.886 -37.920  0.00  0.00    +0.009 C 
BRANCH  28  29
ATOM     29  N   UNL A   1      37.629 -19.232 -37.813  0.00  0.00    -0.343 N 
ATOM     30  H   UNL A   1      36.790 -19.511 -38.246  0.00  0.00    +0.000 HD
BRANCH  29  31
ATOM     31  C   UNL A   1      38.437 -20.086 -37.004  0.00  0.00    +0.041 A 
ATOM     32  C   UNL A   1      38.116 -20.334 -35.653  0.00  0.00    -0.005 A 
ATOM     33  C   UNL A   1      38.881 -21.288 -34.975  0.00  0.00    +0.047 A 
ATOM     34  N   UNL A   1      39.918 -21.952 -35.539  0.00  0.00    -0.251 NA
ATOM     35  C   UNL A   1      40.230 -21.705 -36.818  0.00  0.00    +0.073 A 
ATOM     36  C   UNL A   1      41.298 -22.392 -37.383  0.00  0.00    -0.036 A 
ATOM     37  C   UNL A   1      41.689 -22.193 -38.709  0.00  0.00    -0.060 A 
ATOM     38  C   UNL A   1      40.998 -21.283 -39.497  0.00  0.00    -0.061 A 
ATOM     39  C   UNL A   1      39.923 -20.585 -38.952  0.00  0.00    -0.051 A 
ATOM     40  C   UNL A   1      39.519 -20.784 -37.609  0.00  0.00    +0.021 A 
ATOM     41  C   UNL A   1      38.632 -21.622 -33.525  0.00  0.00    -0.010 C 
ATOM     42  C   UNL A   1      37.239 -21.235 -33.046  0.00  0.00    -0.047 C 
ATOM     43  C   UNL A   1      36.943 -19.798 -33.449  0.00  0.00    -0.049 C 
ATOM     44  C   UNL A   1      36.949 -19.659 -34.971  0.00  0.00    -0.024 C 
ENDBRANCH  29  31
ENDBRANCH  28  29
ENDBRANCH  27  28
ENDBRANCH  26  27
ENDBRANCH  25  26
ENDBRANCH  24  25
ENDBRANCH   2  24
TORSDOF 13
ENDMDL
MODEL 6
REMARK VINA RESULT:    -6.927     17.064     20.310
REMARK INTER + INTRA:         -14.555
REMARK INTER:                 -12.202
REMARK INTRA:                  -2.353
REMARK UNBOUND:                -2.363
REMARK  Name = cpd156.pdb
REMARK  13 active torsions:
REMARK  status: ('A' for Active; 'I' for Inactive)
REMARK    1  A    between atoms: C_2  and  C_3
REMARK    2  A    between atoms: C_3  and  S_4
REMARK    3  A    between atoms: S_4  and  C_5
REMARK    4  A    between atoms: C_5  and  C_6
REMARK    5  A    between atoms: C_6  and  N_7
REMARK    6  A    between atoms: C_6  and  C_30
REMARK    7  A    between atoms: C_8  and  C_10
REMARK    8  A    between atoms: C_10  and  C_11
REMARK    9  A    between atoms: C_11  and  C_12
REMARK   10  A    between atoms: C_12  and  C_13
REMARK   11  A    between atoms: C_13  and  C_14
REMARK   12  A    between atoms: C_14  and  N_15
REMARK   13  A    between atoms: N_15  and  C_16
REMARK                            x       y       z     vdW  Elec       q    Type
REMARK                         _______ _______ _______ _____ _____    ______ ____
ROOT
ATOM      1  N   UNL A   1      43.322 -18.578 -36.379  0.00  0.00    -0.303 N 
ATOM      2  C   UNL A   1      42.631 -17.840 -35.442  0.00  0.00    +0.214 C 
ATOM      3  O   UNL A   1      42.884 -16.667 -35.192  0.00  0.00    -0.276 OA
ATOM      4  H   UNL A   1      43.197 -19.553 -36.431  0.00  0.00    +0.000 HD
ENDROOT
BRANCH   1   5
ATOM      5  C   UNL A   1      44.243 -17.905 -37.296  0.00  0.00    +0.109 C 
BRANCH   5   6
ATOM      6  C   UNL A   1      44.356 -18.810 -38.541  0.00  0.00    +0.240 C 
ATOM      7  O   UNL A   1      43.454 -18.815 -39.379  0.00  0.00    -0.273 OA
ATOM      8  N   UNL A   1      45.484 -19.598 -38.533  0.00  0.00    -0.263 N 
ATOM      9  C   UNL A   1      45.866 -20.510 -39.483  0.00  0.00    +0.165 A 
ATOM     10  N   UNL A   1      46.989 -21.173 -39.353  0.00  0.00    -0.225 NA
ATOM     11  C   UNL A   1      47.157 -22.021 -40.435  0.00  0.00    +0.080 A 
ATOM     12  C   UNL A   1      48.247 -22.889 -40.648  0.00  0.00    -0.035 A 
ATOM     13  C   UNL A   1      48.286 -23.690 -41.793  0.00  0.00    -0.060 A 
ATOM     14  C   UNL A   1      47.254 -23.637 -42.725  0.00  0.00    -0.061 A 
ATOM     15  C   UNL A   1      46.159 -22.787 -42.538  0.00  0.00    -0.046 A 
ATOM     16  C   UNL A   1      46.132 -21.987 -41.383  0.00  0.00    +0.041 A 
ATOM     17  S   UNL A   1      44.944 -20.856 -40.868  0.00  0.00    -0.052 S 
ATOM     18  H   UNL A   1      46.084 -19.495 -37.759  0.00  0.00    +0.000 HD
ENDBRANCH   5   6
BRANCH   5  19
ATOM     19  C   UNL A   1      45.649 -17.746 -36.701  0.00  0.00    +0.021 C 
BRANCH  19  20
ATOM     20  S   UNL A   1      46.261 -16.022 -36.642  0.00  0.00    -0.154 S 
BRANCH  20  21
ATOM     21  C   UNL A   1      46.337 -15.636 -38.414  0.00  0.00    +0.012 C 
BRANCH  21  23
ATOM     22  C   UNL A   1      47.270 -16.750 -40.542  0.00  0.00    -0.102 C 
ATOM     23  C   UNL A   1      47.220 -16.551 -39.217  0.00  0.00    -0.081 C 
ENDBRANCH  21  23
ENDBRANCH  20  21
ENDBRANCH  19  20
ENDBRANCH   5  19
ENDBRANCH   1   5
BRANCH   2  24
ATOM     24  C   UNL A   1      41.562 -18.621 -34.710  0.00  0.00    +0.024 C 
BRANCH  24  25
ATOM     25  C   UNL A   1      42.199 -19.612 -33.739  0.00  0.00    -0.045 C 
BRANCH  25  26
ATOM     26  C   UNL A   1      41.237 -19.961 -32.605  0.00  0.00    -0.051 C 
BRANCH  26  27
ATOM     27  C   UNL A   1      41.127 -21.472 -32.401  0.00  0.00    -0.037 C 
BRANCH  27  28
ATOM     28  C   UNL A   1      41.167 -22.209 -33.740  0.00  0.00    +0.009 C 
BRANCH  28  29
ATOM     29  N   UNL A   1      39.796 -22.521 -34.160  0.00  0.00    -0.343 N 
ATOM     30  H   UNL A   1      39.288 -23.305 -33.849  0.00  0.00    +0.000 HD
BRANCH  29  31
ATOM     31  C   UNL A   1      39.291 -21.548 -35.074  0.00  0.00    +0.041 A 
ATOM     32  C   UNL A   1      39.778 -21.463 -36.395  0.00  0.00    -0.005 A 
ATOM     33  C   UNL A   1      39.134 -20.574 -37.262  0.00  0.00    +0.047 A 
ATOM     34  N   UNL A   1      38.100 -19.784 -36.887  0.00  0.00    -0.251 NA
ATOM     35  C   UNL A   1      37.649 -19.857 -35.628  0.00  0.00    +0.073 A 
ATOM     36  C   UNL A   1      36.588 -19.038 -35.258  0.00  0.00    -0.036 A 
ATOM     37  C   UNL A   1      36.058 -19.052 -33.965  0.00  0.00    -0.060 A 
ATOM     38  C   UNL A   1      36.598 -19.904 -33.013  0.00  0.00    -0.061 A 
ATOM     39  C   UNL A   1      37.660 -20.735 -33.363  0.00  0.00    -0.051 A 
ATOM     40  C   UNL A   1      38.200 -20.729 -34.672  0.00  0.00    +0.021 A 
ATOM     41  C   UNL A   1      39.580 -20.394 -38.691  0.00  0.00    -0.010 C 
ATOM     42  C   UNL A   1      40.403 -21.562 -39.220  0.00  0.00    -0.047 C 
ATOM     43  C   UNL A   1      41.504 -21.899 -38.226  0.00  0.00    -0.049 C 
ATOM     44  C   UNL A   1      40.902 -22.341 -36.893  0.00  0.00    -0.024 C 
ENDBRANCH  29  31
ENDBRANCH  28  29
ENDBRANCH  27  28
ENDBRANCH  26  27
ENDBRANCH  25  26
ENDBRANCH  24  25
ENDBRANCH   2  24
TORSDOF 13
ENDMDL
MODEL 7
REMARK VINA RESULT:    -6.927     18.481     22.305
REMARK INTER + INTRA:         -14.555
REMARK INTER:                 -11.865
REMARK INTRA:                  -2.690
REMARK UNBOUND:                -2.363
REMARK  Name = cpd156.pdb
REMARK  13 active torsions:
REMARK  status: ('A' for Active; 'I' for Inactive)
REMARK    1  A    between atoms: C_2  and  C_3
REMARK    2  A    between atoms: C_3  and  S_4
REMARK    3  A    between atoms: S_4  and  C_5
REMARK    4  A    between atoms: C_5  and  C_6
REMARK    5  A    between atoms: C_6  and  N_7
REMARK    6  A    between atoms: C_6  and  C_30
REMARK    7  A    between atoms: C_8  and  C_10
REMARK    8  A    between atoms: C_10  and  C_11
REMARK    9  A    between atoms: C_11  and  C_12
REMARK   10  A    between atoms: C_12  and  C_13
REMARK   11  A    between atoms: C_13  and  C_14
REMARK   12  A    between atoms: C_14  and  N_15
REMARK   13  A    between atoms: N_15  and  C_16
REMARK                            x       y       z     vdW  Elec       q    Type
REMARK                         _______ _______ _______ _____ _____    ______ ____
ROOT
ATOM      1  N   UNL A   1      43.685 -17.313 -33.930  0.00  0.00    -0.303 N 
ATOM      2  C   UNL A   1      44.970 -17.400 -33.437  0.00  0.00    +0.214 C 
ATOM      3  O   UNL A   1      45.227 -17.750 -32.291  0.00  0.00    -0.276 OA
ATOM      4  H   UNL A   1      43.516 -16.874 -34.795  0.00  0.00    +0.000 HD
ENDROOT
BRANCH   1   5
ATOM      5  C   UNL A   1      42.574 -17.877 -33.161  0.00  0.00    +0.109 C 
BRANCH   5   6
ATOM      6  C   UNL A   1      41.894 -18.915 -34.077  0.00  0.00    +0.240 C 
ATOM      7  O   UNL A   1      40.974 -19.608 -33.641  0.00  0.00    -0.273 OA
ATOM      8  N   UNL A   1      42.474 -18.996 -35.323  0.00  0.00    -0.263 N 
ATOM      9  C   UNL A   1      42.111 -19.823 -36.355  0.00  0.00    +0.165 A 
ATOM     10  N   UNL A   1      42.743 -19.769 -37.502  0.00  0.00    -0.225 NA
ATOM     11  C   UNL A   1      42.192 -20.688 -38.381  0.00  0.00    +0.080 A 
ATOM     12  C   UNL A   1      42.604 -20.915 -39.709  0.00  0.00    -0.035 A 
ATOM     13  C   UNL A   1      41.951 -21.878 -40.485  0.00  0.00    -0.060 A 
ATOM     14  C   UNL A   1      40.896 -22.614 -39.954  0.00  0.00    -0.061 A 
ATOM     15  C   UNL A   1      40.468 -22.410 -38.638  0.00  0.00    -0.046 A 
ATOM     16  C   UNL A   1      41.133 -21.440 -37.869  0.00  0.00    +0.041 A 
ATOM     17  S   UNL A   1      40.852 -20.959 -36.242  0.00  0.00    -0.052 S 
ATOM     18  H   UNL A   1      43.233 -18.393 -35.491  0.00  0.00    +0.000 HD
ENDBRANCH   5   6
BRANCH   5  19
ATOM     19  C   UNL A   1      41.525 -16.820 -32.789  0.00  0.00    +0.021 C 
BRANCH  19  20
ATOM     20  S   UNL A   1      41.193 -15.583 -34.096  0.00  0.00    -0.154 S 
BRANCH  20  21
ATOM     21  C   UNL A   1      41.785 -14.073 -33.281  0.00  0.00    +0.012 C 
BRANCH  21  23
ATOM     22  C   UNL A   1      43.751 -14.183 -31.619  0.00  0.00    -0.102 C 
ATOM     23  C   UNL A   1      43.226 -14.117 -32.851  0.00  0.00    -0.081 C 
ENDBRANCH  21  23
ENDBRANCH  20  21
ENDBRANCH  19  20
ENDBRANCH   5  19
ENDBRANCH   1   5
BRANCH   2  24
ATOM     24  C   UNL A   1      46.037 -16.975 -34.422  0.00  0.00    +0.024 C 
BRANCH  24  25
ATOM     25  C   UNL A   1      47.149 -18.018 -34.484  0.00  0.00    -0.045 C 
BRANCH  25  26
ATOM     26  C   UNL A   1      46.617 -19.357 -34.992  0.00  0.00    -0.051 C 
BRANCH  26  27
ATOM     27  C   UNL A   1      47.372 -19.834 -36.232  0.00  0.00    -0.037 C 
BRANCH  27  28
ATOM     28  C   UNL A   1      46.429 -19.969 -37.428  0.00  0.00    +0.009 C 
BRANCH  28  29
ATOM     29  N   UNL A   1      47.184 -19.736 -38.665  0.00  0.00    -0.343 N 
ATOM     30  H   UNL A   1      48.159 -19.603 -38.701  0.00  0.00    +0.000 HD
BRANCH  29  31
ATOM     31  C   UNL A   1      46.330 -19.726 -39.809  0.00  0.00    +0.041 A 
ATOM     32  C   UNL A   1      45.560 -18.590 -40.137  0.00  0.00    -0.005 A 
ATOM     33  C   UNL A   1      44.858 -18.617 -41.346  0.00  0.00    +0.047 A 
ATOM     34  N   UNL A   1      44.861 -19.678 -42.188  0.00  0.00    -0.251 NA
ATOM     35  C   UNL A   1      45.582 -20.761 -41.867  0.00  0.00    +0.073 A 
ATOM     36  C   UNL A   1      45.574 -21.843 -42.739  0.00  0.00    -0.036 A 
ATOM     37  C   UNL A   1      46.298 -23.009 -42.479  0.00  0.00    -0.060 A 
ATOM     38  C   UNL A   1      47.051 -23.103 -41.318  0.00  0.00    -0.061 A 
ATOM     39  C   UNL A   1      47.076 -22.029 -40.431  0.00  0.00    -0.051 A 
ATOM     40  C   UNL A   1      46.347 -20.842 -40.689  0.00  0.00    +0.021 A 
ATOM     41  C   UNL A   1      43.994 -17.463 -41.790  0.00  0.00    -0.010 C 
ATOM     42  C   UNL A   1      44.342 -16.149 -41.103  0.00  0.00    -0.047 C 
ATOM     43  C   UNL A   1      44.425 -16.367 -39.600  0.00  0.00    -0.049 C 
ATOM     44  C   UNL A   1      45.541 -17.357 -39.265  0.00  0.00    -0.024 C 
ENDBRANCH  29  31
ENDBRANCH  28  29
ENDBRANCH  27  28
ENDBRANCH  26  27
ENDBRANCH  25  26
ENDBRANCH  24  25
ENDBRANCH   2  24
TORSDOF 13
ENDMDL
MODEL 8
REMARK VINA RESULT:    -6.863     18.165     21.978
REMARK INTER + INTRA:         -14.442
REMARK INTER:                 -10.869
REMARK INTRA:                  -3.573
REMARK UNBOUND:                -2.363
REMARK  Name = cpd156.pdb
REMARK  13 active torsions:
REMARK  status: ('A' for Active; 'I' for Inactive)
REMARK    1  A    between atoms: C_2  and  C_3
REMARK    2  A    between atoms: C_3  and  S_4
REMARK    3  A    between atoms: S_4  and  C_5
REMARK    4  A    between atoms: C_5  and  C_6
REMARK    5  A    between atoms: C_6  and  N_7
REMARK    6  A    between atoms: C_6  and  C_30
REMARK    7  A    between atoms: C_8  and  C_10
REMARK    8  A    between atoms: C_10  and  C_11
REMARK    9  A    between atoms: C_11  and  C_12
REMARK   10  A    between atoms: C_12  and  C_13
REMARK   11  A    between atoms: C_13  and  C_14
REMARK   12  A    between atoms: C_14  and  N_15
REMARK   13  A    between atoms: N_15  and  C_16
REMARK                            x       y       z     vdW  Elec       q    Type
REMARK                         _______ _______ _______ _____ _____    ______ ____
ROOT
ATOM      1  N   UNL A   1      45.864 -18.036 -36.465  0.00  0.00    -0.303 N 
ATOM      2  C   UNL A   1      47.032 -18.699 -36.779  0.00  0.00    +0.214 C 
ATOM      3  O   UNL A   1      47.922 -18.913 -35.964  0.00  0.00    -0.276 OA
ATOM      4  H   UNL A   1      45.254 -17.743 -37.181  0.00  0.00    +0.000 HD
ENDROOT
BRANCH   1   5
ATOM      5  C   UNL A   1      45.536 -17.771 -35.063  0.00  0.00    +0.109 C 
BRANCH   5   6
ATOM      6  C   UNL A   1      44.493 -18.831 -34.653  0.00  0.00    +0.240 C 
ATOM      7  O   UNL A   1      44.865 -19.921 -34.217  0.00  0.00    -0.273 OA
ATOM      8  N   UNL A   1      43.198 -18.436 -34.899  0.00  0.00    -0.263 N 
ATOM      9  C   UNL A   1      42.052 -19.150 -34.658  0.00  0.00    +0.165 A 
ATOM     10  N   UNL A   1      40.878 -18.630 -34.922  0.00  0.00    -0.225 NA
ATOM     11  C   UNL A   1      39.883 -19.534 -34.587  0.00  0.00    +0.080 A 
ATOM     12  C   UNL A   1      38.495 -19.328 -34.724  0.00  0.00    -0.035 A 
ATOM     13  C   UNL A   1      37.602 -20.333 -34.341  0.00  0.00    -0.060 A 
ATOM     14  C   UNL A   1      38.073 -21.536 -33.826  0.00  0.00    -0.061 A 
ATOM     15  C   UNL A   1      39.445 -21.768 -33.681  0.00  0.00    -0.046 A 
ATOM     16  C   UNL A   1      40.332 -20.750 -34.070  0.00  0.00    +0.041 A 
ATOM     17  S   UNL A   1      42.052 -20.725 -34.021  0.00  0.00    -0.052 S 
ATOM     18  H   UNL A   1      43.081 -17.541 -35.293  0.00  0.00    +0.000 HD
ENDBRANCH   5   6
BRANCH   5  19
ATOM     19  C   UNL A   1      44.903 -16.387 -34.863  0.00  0.00    +0.021 C 
BRANCH  19  20
ATOM     20  S   UNL A   1      44.669 -15.426 -36.403  0.00  0.00    -0.154 S 
BRANCH  20  21
ATOM     21  C   UNL A   1      46.339 -14.754 -36.632  0.00  0.00    +0.012 C 
BRANCH  21  23
ATOM     22  C   UNL A   1      48.112 -14.645 -38.498  0.00  0.00    -0.102 C 
ATOM     23  C   UNL A   1      46.980 -15.104 -37.948  0.00  0.00    -0.081 C 
ENDBRANCH  21  23
ENDBRANCH  20  21
ENDBRANCH  19  20
ENDBRANCH   5  19
ENDBRANCH   1   5
BRANCH   2  24
ATOM     24  C   UNL A   1      47.142 -19.096 -38.234  0.00  0.00    +0.024 C 
BRANCH  24  25
ATOM     25  C   UNL A   1      46.749 -20.558 -38.418  0.00  0.00    -0.045 C 
BRANCH  25  26
ATOM     26  C   UNL A   1      47.425 -21.156 -39.651  0.00  0.00    -0.051 C 
BRANCH  26  27
ATOM     27  C   UNL A   1      46.465 -22.034 -40.454  0.00  0.00    -0.037 C 
BRANCH  27  28
ATOM     28  C   UNL A   1      45.051 -21.970 -39.875  0.00  0.00    +0.009 C 
BRANCH  28  29
ATOM     29  N   UNL A   1      44.143 -21.411 -40.883  0.00  0.00    -0.343 N 
ATOM     30  H   UNL A   1      44.116 -21.701 -41.824  0.00  0.00    +0.000 HD
BRANCH  29  31
ATOM     31  C   UNL A   1      43.304 -20.396 -40.332  0.00  0.00    +0.041 A 
ATOM     32  C   UNL A   1      42.127 -20.723 -39.627  0.00  0.00    -0.005 A 
ATOM     33  C   UNL A   1      41.439 -19.677 -39.004  0.00  0.00    +0.047 A 
ATOM     34  N   UNL A   1      41.830 -18.382 -39.072  0.00  0.00    -0.251 NA
ATOM     35  C   UNL A   1      42.941 -18.073 -39.754  0.00  0.00    +0.073 A 
ATOM     36  C   UNL A   1      43.329 -16.739 -39.816  0.00  0.00    -0.036 A 
ATOM     37  C   UNL A   1      44.473 -16.332 -40.507  0.00  0.00    -0.060 A 
ATOM     38  C   UNL A   1      45.255 -17.278 -41.154  0.00  0.00    -0.061 A 
ATOM     39  C   UNL A   1      44.885 -18.621 -41.103  0.00  0.00    -0.051 A 
ATOM     40  C   UNL A   1      43.729 -19.041 -40.402  0.00  0.00    +0.021 A 
ATOM     41  C   UNL A   1      40.163 -19.910 -38.234  0.00  0.00    -0.010 C 
ATOM     42  C   UNL A   1      39.983 -21.355 -37.788  0.00  0.00    -0.047 C 
ATOM     43  C   UNL A   1      40.218 -22.286 -38.968  0.00  0.00    -0.049 C 
ATOM     44  C   UNL A   1      41.652 -22.150 -39.477  0.00  0.00    -0.024 C 
ENDBRANCH  29  31
ENDBRANCH  28  29
ENDBRANCH  27  28
ENDBRANCH  26  27
ENDBRANCH  25  26
ENDBRANCH  24  25
ENDBRANCH   2  24
TORSDOF 13
ENDMDL
MODEL 9
REMARK VINA RESULT:    -6.845     16.772     19.885
REMARK INTER + INTRA:         -14.410
REMARK INTER:                 -12.275
REMARK INTRA:                  -2.135
REMARK UNBOUND:                -2.363
REMARK  Name = cpd156.pdb
REMARK  13 active torsions:
REMARK  status: ('A' for Active; 'I' for Inactive)
REMARK    1  A    between atoms: C_2  and  C_3
REMARK    2  A    between atoms: C_3  and  S_4
REMARK    3  A    between atoms: S_4  and  C_5
REMARK    4  A    between atoms: C_5  and  C_6
REMARK    5  A    between atoms: C_6  and  N_7
REMARK    6  A    between atoms: C_6  and  C_30
REMARK    7  A    between atoms: C_8  and  C_10
REMARK    8  A    between atoms: C_10  and  C_11
REMARK    9  A    between atoms: C_11  and  C_12
REMARK   10  A    between atoms: C_12  and  C_13
REMARK   11  A    between atoms: C_13  and  C_14
REMARK   12  A    between atoms: C_14  and  N_15
REMARK   13  A    between atoms: N_15  and  C_16
REMARK                            x       y       z     vdW  Elec       q    Type
REMARK                         _______ _______ _______ _____ _____    ______ ____
ROOT
ATOM      1  N   UNL A   1      41.916 -18.321 -37.877  0.00  0.00    -0.303 N 
ATOM      2  C   UNL A   1      41.322 -19.561 -37.786  0.00  0.00    +0.214 C 
ATOM      3  O   UNL A   1      41.172 -20.306 -38.748  0.00  0.00    -0.276 OA
ATOM      4  H   UNL A   1      41.868 -17.692 -37.120  0.00  0.00    +0.000 HD
ENDROOT
BRANCH   1   5
ATOM      5  C   UNL A   1      42.617 -17.942 -39.105  0.00  0.00    +0.109 C 
BRANCH   5   6
ATOM      6  C   UNL A   1      43.952 -18.717 -39.100  0.00  0.00    +0.240 C 
ATOM      7  O   UNL A   1      44.813 -18.450 -38.261  0.00  0.00    -0.273 OA
ATOM      8  N   UNL A   1      44.054 -19.620 -40.134  0.00  0.00    -0.263 N 
ATOM      9  C   UNL A   1      45.111 -20.448 -40.411  0.00  0.00    +0.165 A 
ATOM     10  N   UNL A   1      45.054 -21.280 -41.422  0.00  0.00    -0.225 NA
ATOM     11  C   UNL A   1      46.230 -22.010 -41.490  0.00  0.00    +0.080 A 
ATOM     12  C   UNL A   1      46.535 -23.004 -42.442  0.00  0.00    -0.035 A 
ATOM     13  C   UNL A   1      47.766 -23.665 -42.388  0.00  0.00    -0.060 A 
ATOM     14  C   UNL A   1      48.694 -23.346 -41.400  0.00  0.00    -0.061 A 
ATOM     15  C   UNL A   1      48.418 -22.363 -40.445  0.00  0.00    -0.046 A 
ATOM     16  C   UNL A   1      47.177 -21.706 -40.511  0.00  0.00    +0.041 A 
ATOM     17  S   UNL A   1      46.545 -20.467 -39.500  0.00  0.00    -0.052 S 
ATOM     18  H   UNL A   1      43.282 -19.676 -40.743  0.00  0.00    +0.000 HD
ENDBRANCH   5   6
BRANCH   5  19
ATOM     19  C   UNL A   1      42.945 -16.443 -39.153  0.00  0.00    +0.021 C 
BRANCH  19  20
ATOM     20  S   UNL A   1      42.118 -15.525 -40.504  0.00  0.00    -0.154 S 
BRANCH  20  21
ATOM     21  C   UNL A   1      40.443 -15.370 -39.822  0.00  0.00    +0.012 C 
BRANCH  21  23
ATOM     22  C   UNL A   1      38.790 -17.296 -39.383  0.00  0.00    -0.102 C 
ATOM     23  C   UNL A   1      39.515 -16.498 -40.179  0.00  0.00    -0.081 C 
ENDBRANCH  21  23
ENDBRANCH  20  21
ENDBRANCH  19  20
ENDBRANCH   5  19
ENDBRANCH   1   5
BRANCH   2  24
ATOM     24  C   UNL A   1      40.823 -19.904 -36.400  0.00  0.00    +0.024 C 
BRANCH  24  25
ATOM     25  C   UNL A   1      39.470 -20.605 -36.479  0.00  0.00    -0.045 C 
BRANCH  25  26
ATOM     26  C   UNL A   1      39.616 -22.106 -36.233  0.00  0.00    -0.051 C 
BRANCH  26  27
ATOM     27  C   UNL A   1      40.606 -22.402 -35.106  0.00  0.00    -0.037 C 
BRANCH  27  28
ATOM     28  C   UNL A   1      39.873 -22.680 -33.794  0.00  0.00    +0.009 C 
BRANCH  28  29
ATOM     29  N   UNL A   1      40.489 -21.890 -32.721  0.00  0.00    -0.343 N 
ATOM     30  H   UNL A   1      41.121 -22.254 -32.060  0.00  0.00    +0.000 HD
BRANCH  29  31
ATOM     31  C   UNL A   1      40.058 -20.530 -32.755  0.00  0.00    +0.041 A 
ATOM     32  C   UNL A   1      40.981 -19.472 -32.890  0.00  0.00    -0.005 A 
ATOM     33  C   UNL A   1      40.463 -18.183 -33.052  0.00  0.00    +0.047 A 
ATOM     34  N   UNL A   1      39.138 -17.906 -33.055  0.00  0.00    -0.251 NA
ATOM     35  C   UNL A   1      38.263 -18.911 -32.913  0.00  0.00    +0.073 A 
ATOM     36  C   UNL A   1      36.906 -18.611 -32.916  0.00  0.00    -0.036 A 
ATOM     37  C   UNL A   1      35.929 -19.599 -32.773  0.00  0.00    -0.060 A 
ATOM     38  C   UNL A   1      36.311 -20.924 -32.622  0.00  0.00    -0.061 A 
ATOM     39  C   UNL A   1      37.667 -21.247 -32.618  0.00  0.00    -0.051 A 
ATOM     40  C   UNL A   1      38.663 -20.251 -32.766  0.00  0.00    +0.021 A 
ATOM     41  C   UNL A   1      41.360 -16.978 -33.192  0.00  0.00    -0.010 C 
ATOM     42  C   UNL A   1      42.775 -17.326 -33.633  0.00  0.00    -0.047 C 
ATOM     43  C   UNL A   1      43.318 -18.450 -32.764  0.00  0.00    -0.049 C 
ATOM     44  C   UNL A   1      42.472 -19.712 -32.934  0.00  0.00    -0.024 C 
ENDBRANCH  29  31
ENDBRANCH  28  29
ENDBRANCH  27  28
ENDBRANCH  26  27
ENDBRANCH  25  26
ENDBRANCH  24  25
ENDBRANCH   2  24
TORSDOF 13
ENDMDL
MODEL 10
REMARK VINA RESULT:    -6.761     18.626     21.658
REMARK INTER + INTRA:         -14.263
REMARK INTER:                 -11.445
REMARK INTRA:                  -2.818
REMARK UNBOUND:                -2.363
REMARK  Name = cpd156.pdb
REMARK  13 active torsions:
REMARK  status: ('A' for Active; 'I' for Inactive)
REMARK    1  A    between atoms: C_2  and  C_3
REMARK    2  A    between atoms: C_3  and  S_4
REMARK    3  A    between atoms: S_4  and  C_5
REMARK    4  A    between atoms: C_5  and  C_6
REMARK    5  A    between atoms: C_6  and  N_7
REMARK    6  A    between atoms: C_6  and  C_30
REMARK    7  A    between atoms: C_8  and  C_10
REMARK    8  A    between atoms: C_10  and  C_11
REMARK    9  A    between atoms: C_11  and  C_12
REMARK   10  A    between atoms: C_12  and  C_13
REMARK   11  A    between atoms: C_13  and  C_14
REMARK   12  A    between atoms: C_14  and  N_15
REMARK   13  A    between atoms: N_15  and  C_16
REMARK                            x       y       z     vdW  Elec       q    Type
REMARK                         _______ _______ _______ _____ _____    ______ ____
ROOT
ATOM      1  N   UNL A   1      44.084 -15.301 -38.479  0.00  0.00    -0.303 N 
ATOM      2  C   UNL A   1      42.754 -15.109 -38.169  0.00  0.00    +0.214 C 
ATOM      3  O   UNL A   1      41.965 -14.545 -38.919  0.00  0.00    -0.276 OA
ATOM      4  H   UNL A   1      44.714 -15.607 -37.786  0.00  0.00    +0.000 HD
ENDROOT
BRANCH   1   5
ATOM      5  C   UNL A   1      44.555 -15.046 -39.841  0.00  0.00    +0.109 C 
BRANCH   5   6
ATOM      6  C   UNL A   1      44.410 -16.377 -40.607  0.00  0.00    +0.240 C 
ATOM      7  O   UNL A   1      43.407 -16.585 -41.292  0.00  0.00    -0.273 OA
ATOM      8  N   UNL A   1      45.446 -17.251 -40.368  0.00  0.00    -0.263 N 
ATOM      9  C   UNL A   1      45.604 -18.511 -40.886  0.00  0.00    +0.165 A 
ATOM     10  N   UNL A   1      46.663 -19.223 -40.587  0.00  0.00    -0.225 NA
ATOM     11  C   UNL A   1      46.600 -20.446 -41.234  0.00  0.00    +0.080 A 
ATOM     12  C   UNL A   1      47.560 -21.475 -41.159  0.00  0.00    -0.035 A 
ATOM     13  C   UNL A   1      47.366 -22.662 -41.872  0.00  0.00    -0.060 A 
ATOM     14  C   UNL A   1      46.229 -22.835 -42.655  0.00  0.00    -0.061 A 
ATOM     15  C   UNL A   1      45.259 -21.832 -42.746  0.00  0.00    -0.046 A 
ATOM     16  C   UNL A   1      45.466 -20.644 -42.024  0.00  0.00    +0.041 A 
ATOM     17  S   UNL A   1      44.475 -19.242 -41.925  0.00  0.00    -0.052 S 
ATOM     18  H   UNL A   1      46.151 -16.937 -39.757  0.00  0.00    +0.000 HD
ENDBRANCH   5   6
BRANCH   5  19
ATOM     19  C   UNL A   1      46.035 -14.639 -39.882  0.00  0.00    +0.021 C 
BRANCH  19  20
ATOM     20  S   UNL A   1      46.629 -13.777 -38.381  0.00  0.00    -0.154 S 
BRANCH  20  21
ATOM     21  C   UNL A   1      47.849 -14.975 -37.772  0.00  0.00    +0.012 C 
BRANCH  21  23
ATOM     22  C   UNL A   1      47.087 -17.366 -37.187  0.00  0.00    -0.102 C 
ATOM     23  C   UNL A   1      47.276 -16.068 -36.911  0.00  0.00    -0.081 C 
ENDBRANCH  21  23
ENDBRANCH  20  21
ENDBRANCH  19  20
ENDBRANCH   5  19
ENDBRANCH   1   5
BRANCH   2  24
ATOM     24  C   UNL A   1      42.363 -15.611 -36.797  0.00  0.00    +0.024 C 
BRANCH  24  25
ATOM     25  C   UNL A   1      42.854 -17.041 -36.594  0.00  0.00    -0.045 C 
BRANCH  25  26
ATOM     26  C   UNL A   1      43.548 -17.196 -35.243  0.00  0.00    -0.051 C 
BRANCH  26  27
ATOM     27  C   UNL A   1      44.346 -18.497 -35.160  0.00  0.00    -0.037 C 
BRANCH  27  28
ATOM     28  C   UNL A   1      44.062 -19.390 -36.369  0.00  0.00    +0.009 C 
BRANCH  28  29
ATOM     29  N   UNL A   1      43.787 -20.755 -35.905  0.00  0.00    -0.343 N 
ATOM     30  H   UNL A   1      44.458 -21.343 -35.489  0.00  0.00    +0.000 HD
BRANCH  29  31
ATOM     31  C   UNL A   1      42.427 -21.125 -36.134  0.00  0.00    +0.041 A 
ATOM     32  C   UNL A   1      41.489 -21.147 -35.082  0.00  0.00    -0.005 A 
ATOM     33  C   UNL A   1      40.152 -21.387 -35.417  0.00  0.00    +0.047 A 
ATOM     34  N   UNL A   1      39.732 -21.625 -36.682  0.00  0.00    -0.251 NA
ATOM     35  C   UNL A   1      40.628 -21.617 -37.678  0.00  0.00    +0.073 A 
ATOM     36  C   UNL A   1      40.182 -21.865 -38.971  0.00  0.00    -0.036 A 
ATOM     37  C   UNL A   1      41.051 -21.875 -40.065  0.00  0.00    -0.060 A 
ATOM     38  C   UNL A   1      42.402 -21.633 -39.868  0.00  0.00    -0.061 A 
ATOM     39  C   UNL A   1      42.871 -21.380 -38.581  0.00  0.00    -0.051 A 
ATOM     40  C   UNL A   1      41.995 -21.364 -37.467  0.00  0.00    +0.021 A 
ATOM     41  C   UNL A   1      39.068 -21.445 -34.371  0.00  0.00    -0.010 C 
ATOM     42  C   UNL A   1      39.447 -20.752 -33.069  0.00  0.00    -0.047 C 
ATOM     43  C   UNL A   1      40.819 -21.229 -32.618  0.00  0.00    -0.049 C 
ATOM     44  C   UNL A   1      41.880 -20.852 -33.652  0.00  0.00    -0.024 C 
ENDBRANCH  29  31
ENDBRANCH  28  29
ENDBRANCH  27  28
ENDBRANCH  26  27
ENDBRANCH  25  26
ENDBRANCH  24  25
ENDBRANCH   2  24
TORSDOF 13
ENDMDL
MODEL 11
REMARK VINA RESULT:    -6.650     19.076     22.128
REMARK INTER + INTRA:         -14.066
REMARK INTER:                 -11.892
REMARK INTRA:                  -2.174
REMARK UNBOUND:                -2.363
REMARK  Name = cpd156.pdb
REMARK  13 active torsions:
REMARK  status: ('A' for Active; 'I' for Inactive)
REMARK    1  A    between atoms: C_2  and  C_3
REMARK    2  A    between atoms: C_3  and  S_4
REMARK    3  A    between atoms: S_4  and  C_5
REMARK    4  A    between atoms: C_5  and  C_6
REMARK    5  A    between atoms: C_6  and  N_7
REMARK    6  A    between atoms: C_6  and  C_30
REMARK    7  A    between atoms: C_8  and  C_10
REMARK    8  A    between atoms: C_10  and  C_11
REMARK    9  A    between atoms: C_11  and  C_12
REMARK   10  A    between atoms: C_12  and  C_13
REMARK   11  A    between atoms: C_13  and  C_14
REMARK   12  A    between atoms: C_14  and  N_15
REMARK   13  A    between atoms: N_15  and  C_16
REMARK                            x       y       z     vdW  Elec       q    Type
REMARK                         _______ _______ _______ _____ _____    ______ ____
ROOT
ATOM      1  N   UNL A   1      45.804 -15.410 -38.131  0.00  0.00    -0.303 N 
ATOM      2  C   UNL A   1      45.056 -15.777 -37.033  0.00  0.00    +0.214 C 
ATOM      3  O   UNL A   1      43.842 -15.619 -36.965  0.00  0.00    -0.276 OA
ATOM      4  H   UNL A   1      46.787 -15.402 -38.080  0.00  0.00    +0.000 HD
ENDROOT
BRANCH   1   5
ATOM      5  C   UNL A   1      45.129 -15.034 -39.375  0.00  0.00    +0.109 C 
BRANCH   5   6
ATOM      6  C   UNL A   1      45.092 -16.303 -40.251  0.00  0.00    +0.240 C 
ATOM      7  O   UNL A   1      44.446 -16.306 -41.300  0.00  0.00    -0.273 OA
ATOM      8  N   UNL A   1      45.769 -17.363 -39.692  0.00  0.00    -0.263 N 
ATOM      9  C   UNL A   1      45.912 -18.624 -40.213  0.00  0.00    +0.165 A 
ATOM     10  N   UNL A   1      46.612 -19.529 -39.576  0.00  0.00    -0.225 NA
ATOM     11  C   UNL A   1      46.617 -20.710 -40.301  0.00  0.00    +0.080 A 
ATOM     12  C   UNL A   1      47.269 -21.905 -39.936  0.00  0.00    -0.035 A 
ATOM     13  C   UNL A   1      47.190 -23.024 -40.771  0.00  0.00    -0.060 A 
ATOM     14  C   UNL A   1      46.471 -22.965 -41.961  0.00  0.00    -0.061 A 
ATOM     15  C   UNL A   1      45.813 -21.793 -42.346  0.00  0.00    -0.046 A 
ATOM     16  C   UNL A   1      45.900 -20.676 -41.498  0.00  0.00    +0.041 A 
ATOM     17  S   UNL A   1      45.212 -19.110 -41.683  0.00  0.00    -0.052 S 
ATOM     18  H   UNL A   1      46.197 -17.198 -38.822  0.00  0.00    +0.000 HD
ENDBRANCH   5   6
BRANCH   5  19
ATOM     19  C   UNL A   1      45.892 -13.950 -40.149  0.00  0.00    +0.021 C 
BRANCH  19  20
ATOM     20  S   UNL A   1      47.615 -13.685 -39.591  0.00  0.00    -0.154 S 
BRANCH  20  21
ATOM     21  C   UNL A   1      48.387 -13.149 -41.144  0.00  0.00    +0.012 C 
BRANCH  21  23
ATOM     22  C   UNL A   1      49.086 -14.947 -42.853  0.00  0.00    -0.102 C 
ATOM     23  C   UNL A   1      49.290 -14.171 -41.779  0.00  0.00    -0.081 C 
ENDBRANCH  21  23
ENDBRANCH  20  21
ENDBRANCH  19  20
ENDBRANCH   5  19
ENDBRANCH   1   5
BRANCH   2  24
ATOM     24  C   UNL A   1      45.873 -16.344 -35.894  0.00  0.00    +0.024 C 
BRANCH  24  25
ATOM     25  C   UNL A   1      47.012 -17.204 -36.433  0.00  0.00    -0.045 C 
BRANCH  25  26
ATOM     26  C   UNL A   1      46.952 -18.617 -35.856  0.00  0.00    -0.051 C 
BRANCH  26  27
ATOM     27  C   UNL A   1      45.669 -18.850 -35.057  0.00  0.00    -0.037 C 
BRANCH  27  28
ATOM     28  C   UNL A   1      44.834 -19.969 -35.679  0.00  0.00    +0.009 C 
BRANCH  28  29
ATOM     29  N   UNL A   1      43.495 -19.456 -35.989  0.00  0.00    -0.343 N 
ATOM     30  H   UNL A   1      43.276 -18.500 -36.076  0.00  0.00    +0.000 HD
BRANCH  29  31
ATOM     31  C   UNL A   1      42.549 -20.513 -36.146  0.00  0.00    +0.041 A 
ATOM     32  C   UNL A   1      41.799 -20.992 -35.052  0.00  0.00    -0.005 A 
ATOM     33  C   UNL A   1      40.799 -21.933 -35.321  0.00  0.00    +0.047 A 
ATOM     34  N   UNL A   1      40.544 -22.418 -36.559  0.00  0.00    -0.251 NA
ATOM     35  C   UNL A   1      41.268 -21.971 -37.595  0.00  0.00    +0.073 A 
ATOM     36  C   UNL A   1      40.996 -22.479 -38.859  0.00  0.00    -0.036 A 
ATOM     37  C   UNL A   1      41.704 -22.067 -39.991  0.00  0.00    -0.060 A 
ATOM     38  C   UNL A   1      42.711 -21.123 -39.862  0.00  0.00    -0.061 A 
ATOM     39  C   UNL A   1      42.999 -20.598 -38.603  0.00  0.00    -0.051 A 
ATOM     40  C   UNL A   1      42.283 -21.009 -37.452  0.00  0.00    +0.021 A 
ATOM     41  C   UNL A   1      39.946 -22.522 -34.225  0.00  0.00    -0.010 C 
ATOM     42  C   UNL A   1      39.920 -21.676 -32.959  0.00  0.00    -0.047 C 
ATOM     43  C   UNL A   1      41.342 -21.312 -32.560  0.00  0.00    -0.049 C 
ATOM     44  C   UNL A   1      42.002 -20.468 -33.650  0.00  0.00    -0.024 C 
ENDBRANCH  29  31
ENDBRANCH  28  29
ENDBRANCH  27  28
ENDBRANCH  26  27
ENDBRANCH  25  26
ENDBRANCH  24  25
ENDBRANCH   2  24
TORSDOF 13
ENDMDL
MODEL 12
REMARK VINA RESULT:    -6.636     17.712     21.571
REMARK INTER + INTRA:         -14.043
REMARK INTER:                 -10.485
REMARK INTRA:                  -3.559
REMARK UNBOUND:                -2.363
REMARK  Name = cpd156.pdb
REMARK  13 active torsions:
REMARK  status: ('A' for Active; 'I' for Inactive)
REMARK    1  A    between atoms: C_2  and  C_3
REMARK    2  A    between atoms: C_3  and  S_4
REMARK    3  A    between atoms: S_4  and  C_5
REMARK    4  A    between atoms: C_5  and  C_6
REMARK    5  A    between atoms: C_6  and  N_7
REMARK    6  A    between atoms: C_6  and  C_30
REMARK    7  A    between atoms: C_8  and  C_10
REMARK    8  A    between atoms: C_10  and  C_11
REMARK    9  A    between atoms: C_11  and  C_12
REMARK   10  A    between atoms: C_12  and  C_13
REMARK   11  A    between atoms: C_13  and  C_14
REMARK   12  A    between atoms: C_14  and  N_15
REMARK   13  A    between atoms: N_15  and  C_16
REMARK                            x       y       z     vdW  Elec       q    Type
REMARK                         _______ _______ _______ _____ _____    ______ ____
ROOT
ATOM      1  N   UNL A   1      44.097 -18.021 -39.428  0.00  0.00    -0.303 N 
ATOM      2  C   UNL A   1      44.263 -17.364 -40.629  0.00  0.00    +0.214 C 
ATOM      3  O   UNL A   1      44.215 -17.930 -41.715  0.00  0.00    -0.276 OA
ATOM      4  H   UNL A   1      44.305 -17.564 -38.581  0.00  0.00    +0.000 HD
ENDROOT
BRANCH   1   5
ATOM      5  C   UNL A   1      43.609 -19.401 -39.418  0.00  0.00    +0.109 C 
BRANCH   5   6
ATOM      6  C   UNL A   1      42.346 -19.410 -38.532  0.00  0.00    +0.240 C 
ATOM      7  O   UNL A   1      41.559 -18.463 -38.576  0.00  0.00    -0.273 OA
ATOM      8  N   UNL A   1      42.279 -20.505 -37.701  0.00  0.00    -0.263 N 
ATOM      9  C   UNL A   1      41.295 -20.798 -36.792  0.00  0.00    +0.165 A 
ATOM     10  N   UNL A   1      41.353 -21.899 -36.084  0.00  0.00    -0.225 NA
ATOM     11  C   UNL A   1      40.249 -21.975 -35.249  0.00  0.00    +0.080 A 
ATOM     12  C   UNL A   1      39.963 -23.016 -34.344  0.00  0.00    -0.035 A 
ATOM     13  C   UNL A   1      38.805 -22.960 -33.562  0.00  0.00    -0.060 A 
ATOM     14  C   UNL A   1      37.933 -21.882 -33.671  0.00  0.00    -0.061 A 
ATOM     15  C   UNL A   1      38.194 -20.834 -34.560  0.00  0.00    -0.046 A 
ATOM     16  C   UNL A   1      39.361 -20.901 -35.339  0.00  0.00    +0.041 A 
ATOM     17  S   UNL A   1      39.959 -19.789 -36.506  0.00  0.00    -0.052 S 
ATOM     18  H   UNL A   1      43.020 -21.150 -37.767  0.00  0.00    +0.000 HD
ENDBRANCH   5   6
BRANCH   5  19
ATOM     19  C   UNL A   1      44.622 -20.375 -38.802  0.00  0.00    +0.021 C 
BRANCH  19  20
ATOM     20  S   UNL A   1      46.148 -20.612 -39.786  0.00  0.00    -0.154 S 
BRANCH  20  21
ATOM     21  C   UNL A   1      45.728 -22.131 -40.687  0.00  0.00    +0.012 C 
BRANCH  21  23
ATOM     22  C   UNL A   1      47.913 -22.869 -41.835  0.00  0.00    -0.102 C 
ATOM     23  C   UNL A   1      46.898 -23.031 -40.975  0.00  0.00    -0.081 C 
ENDBRANCH  21  23
ENDBRANCH  20  21
ENDBRANCH  19  20
ENDBRANCH   5  19
ENDBRANCH   1   5
BRANCH   2  24
ATOM     24  C   UNL A   1      44.562 -15.889 -40.486  0.00  0.00    +0.024 C 
BRANCH  24  25
ATOM     25  C   UNL A   1      44.635 -15.500 -39.012  0.00  0.00    -0.045 C 
BRANCH  25  26
ATOM     26  C   UNL A   1      43.690 -14.340 -38.705  0.00  0.00    -0.051 C 
BRANCH  26  27
ATOM     27  C   UNL A   1      43.188 -14.385 -37.261  0.00  0.00    -0.037 C 
BRANCH  27  28
ATOM     28  C   UNL A   1      43.030 -15.829 -36.782  0.00  0.00    +0.009 C 
BRANCH  28  29
ATOM     29  N   UNL A   1      43.656 -15.970 -35.463  0.00  0.00    -0.343 N 
ATOM     30  H   UNL A   1      43.906 -15.212 -34.886  0.00  0.00    +0.000 HD
BRANCH  29  31
ATOM     31  C   UNL A   1      43.859 -17.340 -35.120  0.00  0.00    +0.041 A 
ATOM     32  C   UNL A   1      45.029 -18.026 -35.506  0.00  0.00    -0.005 A 
ATOM     33  C   UNL A   1      45.207 -19.322 -35.012  0.00  0.00    +0.047 A 
ATOM     34  N   UNL A   1      44.307 -19.949 -34.217  0.00  0.00    -0.251 NA
ATOM     35  C   UNL A   1      43.189 -19.300 -33.863  0.00  0.00    +0.073 A 
ATOM     36  C   UNL A   1      42.274 -19.956 -33.049  0.00  0.00    -0.036 A 
ATOM     37  C   UNL A   1      41.084 -19.351 -32.636  0.00  0.00    -0.060 A 
ATOM     38  C   UNL A   1      40.796 -18.057 -33.043  0.00  0.00    -0.061 A 
ATOM     39  C   UNL A   1      41.701 -17.380 -33.858  0.00  0.00    -0.051 A 
ATOM     40  C   UNL A   1      42.911 -17.985 -34.278  0.00  0.00    +0.021 A 
ATOM     41  C   UNL A   1      46.416 -20.151 -35.370  0.00  0.00    -0.010 C 
ATOM     42  C   UNL A   1      47.594 -19.320 -35.862  0.00  0.00    -0.047 C 
ATOM     43  C   UNL A   1      47.121 -18.351 -36.935  0.00  0.00    -0.049 C 
ATOM     44  C   UNL A   1      46.095 -17.376 -36.357  0.00  0.00    -0.024 C 
ENDBRANCH  29  31
ENDBRANCH  28  29
ENDBRANCH  27  28
ENDBRANCH  26  27
ENDBRANCH  25  26
ENDBRANCH  24  25
ENDBRANCH   2  24
TORSDOF 13
ENDMDL
MODEL 13
REMARK VINA RESULT:    -6.628     17.499     21.262
REMARK INTER + INTRA:         -14.029
REMARK INTER:                 -10.545
REMARK INTRA:                  -3.484
REMARK UNBOUND:                -2.363
REMARK  Name = cpd156.pdb
REMARK  13 active torsions:
REMARK  status: ('A' for Active; 'I' for Inactive)
REMARK    1  A    between atoms: C_2  and  C_3
REMARK    2  A    between atoms: C_3  and  S_4
REMARK    3  A    between atoms: S_4  and  C_5
REMARK    4  A    between atoms: C_5  and  C_6
REMARK    5  A    between atoms: C_6  and  N_7
REMARK    6  A    between atoms: C_6  and  C_30
REMARK    7  A    between atoms: C_8  and  C_10
REMARK    8  A    between atoms: C_10  and  C_11
REMARK    9  A    between atoms: C_11  and  C_12
REMARK   10  A    between atoms: C_12  and  C_13
REMARK   11  A    between atoms: C_13  and  C_14
REMARK   12  A    between atoms: C_14  and  N_15
REMARK   13  A    between atoms: N_15  and  C_16
REMARK                            x       y       z     vdW  Elec       q    Type
REMARK                         _______ _______ _______ _____ _____    ______ ____
ROOT
ATOM      1  N   UNL A   1      44.091 -19.529 -40.405  0.00  0.00    -0.303 N 
ATOM      2  C   UNL A   1      44.221 -18.867 -41.608  0.00  0.00    +0.214 C 
ATOM      3  O   UNL A   1      44.259 -19.442 -42.690  0.00  0.00    -0.276 OA
ATOM      4  H   UNL A   1      44.229 -19.047 -39.558  0.00  0.00    +0.000 HD
ENDROOT
BRANCH   1   5
ATOM      5  C   UNL A   1      43.746 -20.952 -40.395  0.00  0.00    +0.109 C 
BRANCH   5   6
ATOM      6  C   UNL A   1      42.505 -21.092 -39.489  0.00  0.00    +0.240 C 
ATOM      7  O   UNL A   1      41.382 -21.147 -39.992  0.00  0.00    -0.273 OA
ATOM      8  N   UNL A   1      42.812 -21.071 -38.148  0.00  0.00    -0.263 N 
ATOM      9  C   UNL A   1      41.938 -21.163 -37.095  0.00  0.00    +0.165 A 
ATOM     10  N   UNL A   1      42.382 -21.154 -35.862  0.00  0.00    -0.225 NA
ATOM     11  C   UNL A   1      41.316 -21.267 -34.983  0.00  0.00    +0.080 A 
ATOM     12  C   UNL A   1      41.401 -21.298 -33.577  0.00  0.00    -0.035 A 
ATOM     13  C   UNL A   1      40.236 -21.418 -32.812  0.00  0.00    -0.060 A 
ATOM     14  C   UNL A   1      38.993 -21.507 -33.431  0.00  0.00    -0.061 A 
ATOM     15  C   UNL A   1      38.881 -21.476 -34.824  0.00  0.00    -0.046 A 
ATOM     16  C   UNL A   1      40.058 -21.355 -35.581  0.00  0.00    +0.041 A 
ATOM     17  S   UNL A   1      40.254 -21.287 -37.289  0.00  0.00    -0.052 S 
ATOM     18  H   UNL A   1      43.765 -20.978 -37.919  0.00  0.00    +0.000 HD
ENDBRANCH   5   6
BRANCH   5  19
ATOM     19  C   UNL A   1      44.863 -21.820 -39.799  0.00  0.00    +0.021 C 
BRANCH  19  20
ATOM     20  S   UNL A   1      46.385 -20.904 -39.354  0.00  0.00    -0.154 S 
BRANCH  20  21
ATOM     21  C   UNL A   1      47.618 -21.820 -40.321  0.00  0.00    +0.012 C 
BRANCH  21  23
ATOM     22  C   UNL A   1      47.110 -23.342 -42.336  0.00  0.00    -0.102 C 
ATOM     23  C   UNL A   1      47.191 -22.152 -41.724  0.00  0.00    -0.081 C 
ENDBRANCH  21  23
ENDBRANCH  20  21
ENDBRANCH  19  20
ENDBRANCH   5  19
ENDBRANCH   1   5
BRANCH   2  24
ATOM     24  C   UNL A   1      44.364 -17.368 -41.472  0.00  0.00    +0.024 C 
BRANCH  24  25
ATOM     25  C   UNL A   1      43.896 -16.911 -40.093  0.00  0.00    -0.045 C 
BRANCH  25  26
ATOM     26  C   UNL A   1      42.453 -16.411 -40.143  0.00  0.00    -0.051 C 
BRANCH  26  27
ATOM     27  C   UNL A   1      41.999 -15.856 -38.793  0.00  0.00    -0.037 C 
BRANCH  27  28
ATOM     28  C   UNL A   1      42.946 -16.295 -37.675  0.00  0.00    +0.009 C 
BRANCH  28  29
ATOM     29  N   UNL A   1      42.601 -17.659 -37.260  0.00  0.00    -0.343 N 
ATOM     30  H   UNL A   1      42.491 -18.415 -37.881  0.00  0.00    +0.000 HD
BRANCH  29  31
ATOM     31  C   UNL A   1      42.444 -17.755 -35.844  0.00  0.00    +0.041 A 
ATOM     32  C   UNL A   1      43.559 -17.752 -34.982  0.00  0.00    -0.005 A 
ATOM     33  C   UNL A   1      43.309 -17.712 -33.607  0.00  0.00    +0.047 A 
ATOM     34  N   UNL A   1      42.064 -17.704 -33.074  0.00  0.00    -0.251 NA
ATOM     35  C   UNL A   1      41.005 -17.720 -33.896  0.00  0.00    +0.073 A 
ATOM     36  C   UNL A   1      39.734 -17.714 -33.335  0.00  0.00    -0.036 A 
ATOM     37  C   UNL A   1      38.578 -17.730 -34.120  0.00  0.00    -0.060 A 
ATOM     38  C   UNL A   1      38.690 -17.754 -35.503  0.00  0.00    -0.061 A 
ATOM     39  C   UNL A   1      39.955 -17.758 -36.086  0.00  0.00    -0.051 A 
ATOM     40  C   UNL A   1      41.131 -17.738 -35.296  0.00  0.00    +0.021 A 
ATOM     41  C   UNL A   1      44.427 -17.718 -32.594  0.00  0.00    -0.010 C 
ATOM     42  C   UNL A   1      45.767 -17.279 -33.171  0.00  0.00    -0.047 C 
ATOM     43  C   UNL A   1      46.042 -18.041 -34.458  0.00  0.00    -0.049 C 
ATOM     44  C   UNL A   1      44.976 -17.721 -35.505  0.00  0.00    -0.024 C 
ENDBRANCH  29  31
ENDBRANCH  28  29
ENDBRANCH  27  28
ENDBRANCH  26  27
ENDBRANCH  25  26
ENDBRANCH  24  25
ENDBRANCH   2  24
TORSDOF 13
ENDMDL
MODEL 14
REMARK VINA RESULT:    -6.627     17.906     21.851
REMARK INTER + INTRA:         -14.027
REMARK INTER:                 -11.425
REMARK INTRA:                  -2.602
REMARK UNBOUND:                -2.363
REMARK  Name = cpd156.pdb
REMARK  13 active torsions:
REMARK  status: ('A' for Active; 'I' for Inactive)
REMARK    1  A    between atoms: C_2  and  C_3
REMARK    2  A    between atoms: C_3  and  S_4
REMARK    3  A    between atoms: S_4  and  C_5
REMARK    4  A    between atoms: C_5  and  C_6
REMARK    5  A    between atoms: C_6  and  N_7
REMARK    6  A    between atoms: C_6  and  C_30
REMARK    7  A    between atoms: C_8  and  C_10
REMARK    8  A    between atoms: C_10  and  C_11
REMARK    9  A    between atoms: C_11  and  C_12
REMARK   10  A    between atoms: C_12  and  C_13
REMARK   11  A    between atoms: C_13  and  C_14
REMARK   12  A    between atoms: C_14  and  N_15
REMARK   13  A    between atoms: N_15  and  C_16
REMARK                            x       y       z     vdW  Elec       q    Type
REMARK                         _______ _______ _______ _____ _____    ______ ____
ROOT
ATOM      1  N   UNL A   1      45.680 -17.498 -34.599  0.00  0.00    -0.303 N 
ATOM      2  C   UNL A   1      46.964 -17.912 -34.884  0.00  0.00    +0.214 C 
ATOM      3  O   UNL A   1      47.712 -18.404 -34.047  0.00  0.00    -0.276 OA
ATOM      4  H   UNL A   1      45.176 -16.962 -35.254  0.00  0.00    +0.000 HD
ENDROOT
BRANCH   1   5
ATOM      5  C   UNL A   1      45.070 -17.859 -33.318  0.00  0.00    +0.109 C 
BRANCH   5   6
ATOM      6  C   UNL A   1      44.067 -18.992 -33.619  0.00  0.00    +0.240 C 
ATOM      7  O   UNL A   1      44.413 -19.951 -34.310  0.00  0.00    -0.273 OA
ATOM      8  N   UNL A   1      42.813 -18.751 -33.105  0.00  0.00    -0.263 N 
ATOM      9  C   UNL A   1      41.706 -19.554 -33.209  0.00  0.00    +0.165 A 
ATOM     10  N   UNL A   1      40.577 -19.204 -32.642  0.00  0.00    -0.225 NA
ATOM     11  C   UNL A   1      39.617 -20.174 -32.878  0.00  0.00    +0.080 A 
ATOM     12  C   UNL A   1      38.283 -20.150 -32.423  0.00  0.00    -0.035 A 
ATOM     13  C   UNL A   1      37.421 -21.205 -32.737  0.00  0.00    -0.060 A 
ATOM     14  C   UNL A   1      37.871 -22.280 -33.497  0.00  0.00    -0.061 A 
ATOM     15  C   UNL A   1      39.189 -22.329 -33.963  0.00  0.00    -0.046 A 
ATOM     16  C   UNL A   1      40.045 -21.263 -33.641  0.00  0.00    +0.041 A 
ATOM     17  S   UNL A   1      41.697 -21.026 -34.058  0.00  0.00    -0.052 S 
ATOM     18  H   UNL A   1      42.698 -17.909 -32.610  0.00  0.00    +0.000 HD
ENDBRANCH   5   6
BRANCH   5  19
ATOM     19  C   UNL A   1      44.290 -16.694 -32.693  0.00  0.00    +0.021 C 
BRANCH  19  20
ATOM     20  S   UNL A   1      44.028 -15.267 -33.808  0.00  0.00    -0.154 S 
BRANCH  20  21
ATOM     21  C   UNL A   1      42.216 -15.262 -33.921  0.00  0.00    +0.012 C 
BRANCH  21  23
ATOM     22  C   UNL A   1      41.424 -16.790 -35.838  0.00  0.00    -0.102 C 
ATOM     23  C   UNL A   1      41.673 -15.596 -35.284  0.00  0.00    -0.081 C 
ENDBRANCH  21  23
ENDBRANCH  20  21
ENDBRANCH  19  20
ENDBRANCH   5  19
ENDBRANCH   1   5
BRANCH   2  24
ATOM     24  C   UNL A   1      47.389 -17.657 -36.313  0.00  0.00    +0.024 C 
BRANCH  24  25
ATOM     25  C   UNL A   1      46.996 -16.246 -36.742  0.00  0.00    -0.045 C 
BRANCH  25  26
ATOM     26  C   UNL A   1      46.529 -16.226 -38.196  0.00  0.00    -0.051 C 
BRANCH  26  27
ATOM     27  C   UNL A   1      45.045 -15.876 -38.311  0.00  0.00    -0.037 C 
BRANCH  27  28
ATOM     28  C   UNL A   1      44.179 -17.132 -38.212  0.00  0.00    +0.009 C 
BRANCH  28  29
ATOM     29  N   UNL A   1      43.589 -17.414 -39.526  0.00  0.00    -0.343 N 
ATOM     30  H   UNL A   1      43.246 -16.723 -40.137  0.00  0.00    +0.000 HD
BRANCH  29  31
ATOM     31  C   UNL A   1      43.573 -18.814 -39.807  0.00  0.00    +0.041 A 
ATOM     32  C   UNL A   1      44.716 -19.473 -40.305  0.00  0.00    -0.005 A 
ATOM     33  C   UNL A   1      44.655 -20.865 -40.422  0.00  0.00    +0.047 A 
ATOM     34  N   UNL A   1      43.556 -21.593 -40.112  0.00  0.00    -0.251 NA
ATOM     35  C   UNL A   1      42.467 -20.963 -39.652  0.00  0.00    +0.073 A 
ATOM     36  C   UNL A   1      41.346 -21.723 -39.340  0.00  0.00    -0.036 A 
ATOM     37  C   UNL A   1      40.170 -21.144 -38.856  0.00  0.00    -0.060 A 
ATOM     38  C   UNL A   1      40.106 -19.770 -38.678  0.00  0.00    -0.061 A 
ATOM     39  C   UNL A   1      41.220 -18.989 -38.982  0.00  0.00    -0.051 A 
ATOM     40  C   UNL A   1      42.416 -19.569 -39.470  0.00  0.00    +0.021 A 
ATOM     41  C   UNL A   1      45.815 -21.670 -40.954  0.00  0.00    -0.010 C 
ATOM     42  C   UNL A   1      47.148 -20.938 -40.870  0.00  0.00    -0.047 C 
ATOM     43  C   UNL A   1      46.999 -19.539 -41.448  0.00  0.00    -0.049 C 
ATOM     44  C   UNL A   1      45.990 -18.730 -40.634  0.00  0.00    -0.024 C 
ENDBRANCH  29  31
ENDBRANCH  28  29
ENDBRANCH  27  28
ENDBRANCH  26  27
ENDBRANCH  25  26
ENDBRANCH  24  25
ENDBRANCH   2  24
TORSDOF 13
ENDMDL
MODEL 15
REMARK VINA RESULT:    -6.598     16.911     20.247
REMARK INTER + INTRA:         -13.975
REMARK INTER:                 -10.753
REMARK INTRA:                  -3.222
REMARK UNBOUND:                -2.363
REMARK  Name = cpd156.pdb
REMARK  13 active torsions:
REMARK  status: ('A' for Active; 'I' for Inactive)
REMARK    1  A    between atoms: C_2  and  C_3
REMARK    2  A    between atoms: C_3  and  S_4
REMARK    3  A    between atoms: S_4  and  C_5
REMARK    4  A    between atoms: C_5  and  C_6
REMARK    5  A    between atoms: C_6  and  N_7
REMARK    6  A    between atoms: C_6  and  C_30
REMARK    7  A    between atoms: C_8  and  C_10
REMARK    8  A    between atoms: C_10  and  C_11
REMARK    9  A    between atoms: C_11  and  C_12
REMARK   10  A    between atoms: C_12  and  C_13
REMARK   11  A    between atoms: C_13  and  C_14
REMARK   12  A    between atoms: C_14  and  N_15
REMARK   13  A    between atoms: N_15  and  C_16
REMARK                            x       y       z     vdW  Elec       q    Type
REMARK                         _______ _______ _______ _____ _____    ______ ____
ROOT
ATOM      1  N   UNL A   1      43.469 -17.557 -36.279  0.00  0.00    -0.303 N 
ATOM      2  C   UNL A   1      43.585 -16.202 -36.506  0.00  0.00    +0.214 C 
ATOM      3  O   UNL A   1      44.385 -15.488 -35.912  0.00  0.00    -0.276 OA
ATOM      4  H   UNL A   1      42.709 -18.059 -36.654  0.00  0.00    +0.000 HD
ENDROOT
BRANCH   1   5
ATOM      5  C   UNL A   1      44.482 -18.247 -35.478  0.00  0.00    +0.109 C 
BRANCH   5   6
ATOM      6  C   UNL A   1      45.190 -19.235 -36.429  0.00  0.00    +0.240 C 
ATOM      7  O   UNL A   1      46.219 -19.807 -36.065  0.00  0.00    -0.273 OA
ATOM      8  N   UNL A   1      44.592 -19.313 -37.666  0.00  0.00    -0.263 N 
ATOM      9  C   UNL A   1      44.984 -20.085 -38.730  0.00  0.00    +0.165 A 
ATOM     10  N   UNL A   1      44.296 -20.076 -39.845  0.00  0.00    -0.225 NA
ATOM     11  C   UNL A   1      44.880 -20.938 -40.759  0.00  0.00    +0.080 A 
ATOM     12  C   UNL A   1      44.421 -21.196 -42.066  0.00  0.00    -0.035 A 
ATOM     13  C   UNL A   1      45.113 -22.097 -42.882  0.00  0.00    -0.060 A 
ATOM     14  C   UNL A   1      46.254 -22.740 -42.412  0.00  0.00    -0.061 A 
ATOM     15  C   UNL A   1      46.732 -22.500 -41.120  0.00  0.00    -0.046 A 
ATOM     16  C   UNL A   1      46.028 -21.593 -40.310  0.00  0.00    +0.041 A 
ATOM     17  S   UNL A   1      46.355 -21.088 -38.699  0.00  0.00    -0.052 S 
ATOM     18  H   UNL A   1      43.795 -18.751 -37.803  0.00  0.00    +0.000 HD
ENDBRANCH   5   6
BRANCH   5  19
ATOM     19  C   UNL A   1      43.867 -19.059 -34.330  0.00  0.00    +0.021 C 
BRANCH  19  20
ATOM     20  S   UNL A   1      42.093 -19.455 -34.542  0.00  0.00    -0.154 S 
BRANCH  20  21
ATOM     21  C   UNL A   1      41.333 -17.998 -33.772  0.00  0.00    +0.012 C 
BRANCH  21  23
ATOM     22  C   UNL A   1      39.957 -19.160 -31.929  0.00  0.00    -0.102 C 
ATOM     23  C   UNL A   1      40.115 -18.293 -32.940  0.00  0.00    -0.081 C 
ENDBRANCH  21  23
ENDBRANCH  20  21
ENDBRANCH  19  20
ENDBRANCH   5  19
ENDBRANCH   1   5
BRANCH   2  24
ATOM     24  C   UNL A   1      42.599 -15.662 -37.518  0.00  0.00    +0.024 C 
BRANCH  24  25
ATOM     25  C   UNL A   1      41.599 -16.744 -37.916  0.00  0.00    -0.045 C 
BRANCH  25  26
ATOM     26  C   UNL A   1      40.373 -16.133 -38.592  0.00  0.00    -0.051 C 
BRANCH  26  27
ATOM     27  C   UNL A   1      39.199 -15.998 -37.622  0.00  0.00    -0.037 C 
BRANCH  27  28
ATOM     28  C   UNL A   1      39.130 -17.198 -36.677  0.00  0.00    +0.009 C 
BRANCH  28  29
ATOM     29  N   UNL A   1      38.139 -18.154 -37.184  0.00  0.00    -0.343 N 
ATOM     30  H   UNL A   1      37.374 -17.908 -37.752  0.00  0.00    +0.000 HD
BRANCH  29  31
ATOM     31  C   UNL A   1      38.422 -19.485 -36.752  0.00  0.00    +0.041 A 
ATOM     32  C   UNL A   1      39.283 -20.325 -37.487  0.00  0.00    -0.005 A 
ATOM     33  C   UNL A   1      39.612 -21.561 -36.921  0.00  0.00    +0.047 A 
ATOM     34  N   UNL A   1      39.125 -21.992 -35.733  0.00  0.00    -0.251 NA
ATOM     35  C   UNL A   1      38.295 -21.197 -35.044  0.00  0.00    +0.073 A 
ATOM     36  C   UNL A   1      37.801 -21.654 -33.827  0.00  0.00    -0.036 A 
ATOM     37  C   UNL A   1      36.931 -20.888 -33.047  0.00  0.00    -0.060 A 
ATOM     38  C   UNL A   1      36.541 -19.632 -33.489  0.00  0.00    -0.061 A 
ATOM     39  C   UNL A   1      37.026 -19.154 -34.705  0.00  0.00    -0.051 A 
ATOM     40  C   UNL A   1      37.911 -19.923 -35.499  0.00  0.00    +0.021 A 
ATOM     41  C   UNL A   1      40.515 -22.544 -37.625  0.00  0.00    -0.010 C 
ATOM     42  C   UNL A   1      41.391 -21.901 -38.693  0.00  0.00    -0.047 C 
ATOM     43  C   UNL A   1      40.534 -21.030 -39.599  0.00  0.00    -0.049 C 
ATOM     44  C   UNL A   1      39.895 -19.895 -38.799  0.00  0.00    -0.024 C 
ENDBRANCH  29  31
ENDBRANCH  28  29
ENDBRANCH  27  28
ENDBRANCH  26  27
ENDBRANCH  25  26
ENDBRANCH  24  25
ENDBRANCH   2  24
TORSDOF 13
ENDMDL
MODEL 16
REMARK VINA RESULT:    -6.548     17.324     21.302
REMARK INTER + INTRA:         -13.887
REMARK INTER:                 -10.118
REMARK INTRA:                  -3.769
REMARK UNBOUND:                -2.363
REMARK  Name = cpd156.pdb
REMARK  13 active torsions:
REMARK  status: ('A' for Active; 'I' for Inactive)
REMARK    1  A    between atoms: C_2  and  C_3
REMARK    2  A    between atoms: C_3  and  S_4
REMARK    3  A    between atoms: S_4  and  C_5
REMARK    4  A    between atoms: C_5  and  C_6
REMARK    5  A    between atoms: C_6  and  N_7
REMARK    6  A    between atoms: C_6  and  C_30
REMARK    7  A    between atoms: C_8  and  C_10
REMARK    8  A    between atoms: C_10  and  C_11
REMARK    9  A    between atoms: C_11  and  C_12
REMARK   10  A    between atoms: C_12  and  C_13
REMARK   11  A    between atoms: C_13  and  C_14
REMARK   12  A    between atoms: C_14  and  N_15
REMARK   13  A    between atoms: N_15  and  C_16
REMARK                            x       y       z     vdW  Elec       q    Type
REMARK                         _______ _______ _______ _____ _____    ______ ____
ROOT
ATOM      1  N   UNL A   1      45.578 -19.978 -37.941  0.00  0.00    -0.303 N 
ATOM      2  C   UNL A   1      46.543 -18.996 -38.011  0.00  0.00    +0.214 C 
ATOM      3  O   UNL A   1      46.853 -18.433 -39.054  0.00  0.00    -0.276 OA
ATOM      4  H   UNL A   1      45.477 -20.515 -37.122  0.00  0.00    +0.000 HD
ENDROOT
BRANCH   1   5
ATOM      5  C   UNL A   1      44.705 -20.220 -39.091  0.00  0.00    +0.109 C 
BRANCH   5   6
ATOM      6  C   UNL A   1      43.300 -20.503 -38.519  0.00  0.00    +0.240 C 
ATOM      7  O   UNL A   1      42.313 -20.429 -39.253  0.00  0.00    -0.273 OA
ATOM      8  N   UNL A   1      43.310 -20.752 -37.166  0.00  0.00    -0.263 N 
ATOM      9  C   UNL A   1      42.232 -21.026 -36.365  0.00  0.00    +0.165 A 
ATOM     10  N   UNL A   1      42.399 -21.271 -35.089  0.00  0.00    -0.225 NA
ATOM     11  C   UNL A   1      41.171 -21.526 -34.499  0.00  0.00    +0.080 A 
ATOM     12  C   UNL A   1      40.951 -21.834 -33.141  0.00  0.00    -0.035 A 
ATOM     13  C   UNL A   1      39.651 -22.072 -32.684  0.00  0.00    -0.060 A 
ATOM     14  C   UNL A   1      38.572 -22.006 -33.560  0.00  0.00    -0.061 A 
ATOM     15  C   UNL A   1      38.762 -21.700 -34.912  0.00  0.00    -0.046 A 
ATOM     16  C   UNL A   1      40.073 -21.463 -35.359  0.00  0.00    +0.041 A 
ATOM     17  S   UNL A   1      40.632 -21.067 -36.936  0.00  0.00    -0.052 S 
ATOM     18  H   UNL A   1      44.190 -20.731 -36.724  0.00  0.00    +0.000 HD
ENDBRANCH   5   6
BRANCH   5  19
ATOM     19  C   UNL A   1      45.137 -21.447 -39.906  0.00  0.00    +0.021 C 
BRANCH  19  20
ATOM     20  S   UNL A   1      45.490 -21.106 -41.669  0.00  0.00    -0.154 S 
BRANCH  20  21
ATOM     21  C   UNL A   1      47.272 -20.773 -41.592  0.00  0.00    +0.012 C 
BRANCH  21  23
ATOM     22  C   UNL A   1      47.878 -23.276 -41.678  0.00  0.00    -0.102 C 
ATOM     23  C   UNL A   1      48.145 -21.973 -41.843  0.00  0.00    -0.081 C 
ENDBRANCH  21  23
ENDBRANCH  20  21
ENDBRANCH  19  20
ENDBRANCH   5  19
ENDBRANCH   1   5
BRANCH   2  24
ATOM     24  C   UNL A   1      47.223 -18.708 -36.691  0.00  0.00    +0.024 C 
BRANCH  24  25
ATOM     25  C   UNL A   1      47.086 -17.231 -36.332  0.00  0.00    -0.045 C 
BRANCH  25  26
ATOM     26  C   UNL A   1      46.061 -17.031 -35.218  0.00  0.00    -0.051 C 
BRANCH  26  27
ATOM     27  C   UNL A   1      45.046 -15.943 -35.569  0.00  0.00    -0.037 C 
BRANCH  27  28
ATOM     28  C   UNL A   1      43.715 -16.186 -34.855  0.00  0.00    +0.009 C 
BRANCH  28  29
ATOM     29  N   UNL A   1      43.285 -17.568 -35.095  0.00  0.00    -0.343 N 
ATOM     30  H   UNL A   1      43.876 -18.352 -35.022  0.00  0.00    +0.000 HD
BRANCH  29  31
ATOM     31  C   UNL A   1      41.904 -17.635 -35.450  0.00  0.00    +0.041 A 
ATOM     32  C   UNL A   1      40.907 -17.847 -34.475  0.00  0.00    -0.005 A 
ATOM     33  C   UNL A   1      39.574 -17.762 -34.889  0.00  0.00    +0.047 A 
ATOM     34  N   UNL A   1      39.204 -17.519 -36.169  0.00  0.00    -0.251 NA
ATOM     35  C   UNL A   1      40.153 -17.331 -37.096  0.00  0.00    +0.073 A 
ATOM     36  C   UNL A   1      39.758 -17.084 -38.406  0.00  0.00    -0.036 A 
ATOM     37  C   UNL A   1      40.684 -16.879 -39.432  0.00  0.00    -0.060 A 
ATOM     38  C   UNL A   1      42.041 -16.920 -39.149  0.00  0.00    -0.061 A 
ATOM     39  C   UNL A   1      42.459 -17.164 -37.842  0.00  0.00    -0.051 A 
ATOM     40  C   UNL A   1      41.527 -17.369 -36.796  0.00  0.00    +0.021 A 
ATOM     41  C   UNL A   1      38.429 -17.984 -33.933  0.00  0.00    -0.010 C 
ATOM     42  C   UNL A   1      38.819 -17.806 -32.472  0.00  0.00    -0.047 C 
ATOM     43  C   UNL A   1      40.081 -18.604 -32.181  0.00  0.00    -0.049 C 
ATOM     44  C   UNL A   1      41.246 -18.085 -33.022  0.00  0.00    -0.024 C 
ENDBRANCH  29  31
ENDBRANCH  28  29
ENDBRANCH  27  28
ENDBRANCH  26  27
ENDBRANCH  25  26
ENDBRANCH  24  25
ENDBRANCH   2  24
TORSDOF 13
ENDMDL
MODEL 17
REMARK VINA RESULT:    -6.476     17.857     21.639
REMARK INTER + INTRA:         -13.761
REMARK INTER:                 -10.870
REMARK INTRA:                  -2.892
REMARK UNBOUND:                -2.363
REMARK  Name = cpd156.pdb
REMARK  13 active torsions:
REMARK  status: ('A' for Active; 'I' for Inactive)
REMARK    1  A    between atoms: C_2  and  C_3
REMARK    2  A    between atoms: C_3  and  S_4
REMARK    3  A    between atoms: S_4  and  C_5
REMARK    4  A    between atoms: C_5  and  C_6
REMARK    5  A    between atoms: C_6  and  N_7
REMARK    6  A    between atoms: C_6  and  C_30
REMARK    7  A    between atoms: C_8  and  C_10
REMARK    8  A    between atoms: C_10  and  C_11
REMARK    9  A    between atoms: C_11  and  C_12
REMARK   10  A    between atoms: C_12  and  C_13
REMARK   11  A    between atoms: C_13  and  C_14
REMARK   12  A    between atoms: C_14  and  N_15
REMARK   13  A    between atoms: N_15  and  C_16
REMARK                            x       y       z     vdW  Elec       q    Type
REMARK                         _______ _______ _______ _____ _____    ______ ____
ROOT
ATOM      1  N   UNL A   1      44.711 -16.850 -34.265  0.00  0.00    -0.303 N 
ATOM      2  C   UNL A   1      45.514 -17.831 -34.806  0.00  0.00    +0.214 C 
ATOM      3  O   UNL A   1      46.074 -18.687 -34.131  0.00  0.00    -0.276 OA
ATOM      4  H   UNL A   1      44.417 -16.090 -34.819  0.00  0.00    +0.000 HD
ENDROOT
BRANCH   1   5
ATOM      5  C   UNL A   1      44.296 -16.942 -32.864  0.00  0.00    +0.109 C 
BRANCH   5   6
ATOM      6  C   UNL A   1      42.878 -17.552 -32.870  0.00  0.00    +0.240 C 
ATOM      7  O   UNL A   1      41.909 -16.851 -32.575  0.00  0.00    -0.273 OA
ATOM      8  N   UNL A   1      42.872 -18.898 -33.154  0.00  0.00    -0.263 N 
ATOM      9  C   UNL A   1      41.781 -19.726 -33.224  0.00  0.00    +0.165 A 
ATOM     10  N   UNL A   1      41.928 -20.991 -33.534  0.00  0.00    -0.225 NA
ATOM     11  C   UNL A   1      40.690 -21.613 -33.549  0.00  0.00    +0.080 A 
ATOM     12  C   UNL A   1      40.446 -22.970 -33.844  0.00  0.00    -0.035 A 
ATOM     13  C   UNL A   1      39.138 -23.462 -33.823  0.00  0.00    -0.060 A 
ATOM     14  C   UNL A   1      38.073 -22.622 -33.513  0.00  0.00    -0.061 A 
ATOM     15  C   UNL A   1      38.287 -21.272 -33.214  0.00  0.00    -0.046 A 
ATOM     16  C   UNL A   1      39.606 -20.790 -33.237  0.00  0.00    +0.041 A 
ATOM     17  S   UNL A   1      40.193 -19.205 -32.920  0.00  0.00    -0.052 S 
ATOM     18  H   UNL A   1      43.749 -19.312 -33.326  0.00  0.00    +0.000 HD
ENDBRANCH   5   6
BRANCH   5  19
ATOM     19  C   UNL A   1      44.214 -15.568 -32.186  0.00  0.00    +0.021 C 
BRANCH  19  20
ATOM     20  S   UNL A   1      44.132 -14.151 -33.343  0.00  0.00    -0.154 S 
BRANCH  20  21
ATOM     21  C   UNL A   1      42.610 -13.345 -32.771  0.00  0.00    +0.012 C 
BRANCH  21  23
ATOM     22  C   UNL A   1      42.802 -12.562 -30.324  0.00  0.00    -0.102 C 
ATOM     23  C   UNL A   1      42.391 -13.402 -31.284  0.00  0.00    -0.081 C 
ENDBRANCH  21  23
ENDBRANCH  20  21
ENDBRANCH  19  20
ENDBRANCH   5  19
ENDBRANCH   1   5
BRANCH   2  24
ATOM     24  C   UNL A   1      45.688 -17.727 -36.305  0.00  0.00    +0.024 C 
BRANCH  24  25
ATOM     25  C   UNL A   1      45.883 -19.112 -36.915  0.00  0.00    -0.045 C 
BRANCH  25  26
ATOM     26  C   UNL A   1      46.828 -19.054 -38.113  0.00  0.00    -0.051 C 
BRANCH  26  27
ATOM     27  C   UNL A   1      46.564 -20.192 -39.100  0.00  0.00    -0.037 C 
BRANCH  27  28
ATOM     28  C   UNL A   1      45.271 -20.929 -38.749  0.00  0.00    +0.009 C 
BRANCH  28  29
ATOM     29  N   UNL A   1      44.295 -20.730 -39.826  0.00  0.00    -0.343 N 
ATOM     30  H   UNL A   1      44.350 -21.163 -40.709  0.00  0.00    +0.000 HD
BRANCH  29  31
ATOM     31  C   UNL A   1      43.258 -19.830 -39.438  0.00  0.00    +0.041 A 
ATOM     32  C   UNL A   1      43.252 -18.488 -39.872  0.00  0.00    -0.005 A 
ATOM     33  C   UNL A   1      42.130 -17.715 -39.557  0.00  0.00    +0.047 A 
ATOM     34  N   UNL A   1      41.080 -18.181 -38.840  0.00  0.00    -0.251 NA
ATOM     35  C   UNL A   1      41.094 -19.453 -38.417  0.00  0.00    +0.073 A 
ATOM     36  C   UNL A   1      40.010 -19.916 -37.681  0.00  0.00    -0.036 A 
ATOM     37  C   UNL A   1      39.947 -21.227 -37.201  0.00  0.00    -0.060 A 
ATOM     38  C   UNL A   1      40.991 -22.102 -37.461  0.00  0.00    -0.061 A 
ATOM     39  C   UNL A   1      42.087 -21.659 -38.200  0.00  0.00    -0.051 A 
ATOM     40  C   UNL A   1      42.156 -20.333 -38.692  0.00  0.00    +0.021 A 
ATOM     41  C   UNL A   1      42.023 -16.266 -39.962  0.00  0.00    -0.010 C 
ATOM     42  C   UNL A   1      42.950 -15.890 -41.111  0.00  0.00    -0.047 C 
ATOM     43  C   UNL A   1      44.356 -16.388 -40.816  0.00  0.00    -0.049 C 
ATOM     44  C   UNL A   1      44.371 -17.912 -40.709  0.00  0.00    -0.024 C 
ENDBRANCH  29  31
ENDBRANCH  28  29
ENDBRANCH  27  28
ENDBRANCH  26  27
ENDBRANCH  25  26
ENDBRANCH  24  25
ENDBRANCH   2  24
TORSDOF 13
ENDMDL
MODEL 18
REMARK VINA RESULT:    -6.461     17.951     21.445
REMARK INTER + INTRA:         -13.734
REMARK INTER:                 -10.256
REMARK INTRA:                  -3.479
REMARK UNBOUND:                -2.363
REMARK  Name = cpd156.pdb
REMARK  13 active torsions:
REMARK  status: ('A' for Active; 'I' for Inactive)
REMARK    1  A    between atoms: C_2  and  C_3
REMARK    2  A    between atoms: C_3  and  S_4
REMARK    3  A    between atoms: S_4  and  C_5
REMARK    4  A    between atoms: C_5  and  C_6
REMARK    5  A    between atoms: C_6  and  N_7
REMARK    6  A    between atoms: C_6  and  C_30
REMARK    7  A    between atoms: C_8  and  C_10
REMARK    8  A    between atoms: C_10  and  C_11
REMARK    9  A    between atoms: C_11  and  C_12
REMARK   10  A    between atoms: C_12  and  C_13
REMARK   11  A    between atoms: C_13  and  C_14
REMARK   12  A    between atoms: C_14  and  N_15
REMARK   13  A    between atoms: N_15  and  C_16
REMARK                            x       y       z     vdW  Elec       q    Type
REMARK                         _______ _______ _______ _____ _____    ______ ____
ROOT
ATOM      1  N   UNL A   1      39.540 -19.085 -35.476  0.00  0.00    -0.303 N 
ATOM      2  C   UNL A   1      38.513 -18.636 -36.278  0.00  0.00    +0.214 C 
ATOM      3  O   UNL A   1      37.544 -18.022 -35.848  0.00  0.00    -0.276 OA
ATOM      4  H   UNL A   1      40.210 -19.712 -35.834  0.00  0.00    +0.000 HD
ENDROOT
BRANCH   1   5
ATOM      5  C   UNL A   1      39.629 -18.626 -34.089  0.00  0.00    +0.109 C 
BRANCH   5   6
ATOM      6  C   UNL A   1      41.123 -18.351 -33.817  0.00  0.00    +0.240 C 
ATOM      7  O   UNL A   1      41.464 -17.794 -32.773  0.00  0.00    -0.273 OA
ATOM      8  N   UNL A   1      41.937 -18.720 -34.863  0.00  0.00    -0.263 N 
ATOM      9  C   UNL A   1      43.301 -18.597 -34.937  0.00  0.00    +0.165 A 
ATOM     10  N   UNL A   1      43.949 -19.020 -35.994  0.00  0.00    -0.225 NA
ATOM     11  C   UNL A   1      45.307 -18.796 -35.829  0.00  0.00    +0.080 A 
ATOM     12  C   UNL A   1      46.320 -19.123 -36.752  0.00  0.00    -0.035 A 
ATOM     13  C   UNL A   1      47.655 -18.839 -36.450  0.00  0.00    -0.060 A 
ATOM     14  C   UNL A   1      47.991 -18.236 -35.242  0.00  0.00    -0.061 A 
ATOM     15  C   UNL A   1      47.005 -17.899 -34.308  0.00  0.00    -0.046 A 
ATOM     16  C   UNL A   1      45.668 -18.189 -34.625  0.00  0.00    +0.041 A 
ATOM     17  S   UNL A   1      44.243 -17.903 -33.704  0.00  0.00    -0.052 S 
ATOM     18  H   UNL A   1      41.490 -19.116 -35.646  0.00  0.00    +0.000 HD
ENDBRANCH   5   6
BRANCH   5  19
ATOM     19  C   UNL A   1      39.158 -19.691 -33.088  0.00  0.00    +0.021 C 
BRANCH  19  20
ATOM     20  S   UNL A   1      40.039 -21.291 -33.208  0.00  0.00    -0.154 S 
BRANCH  20  21
ATOM     21  C   UNL A   1      38.785 -22.298 -34.049  0.00  0.00    +0.012 C 
BRANCH  21  23
ATOM     22  C   UNL A   1      39.208 -22.536 -36.579  0.00  0.00    -0.102 C 
ATOM     23  C   UNL A   1      39.260 -22.965 -35.310  0.00  0.00    -0.081 C 
ENDBRANCH  21  23
ENDBRANCH  20  21
ENDBRANCH  19  20
ENDBRANCH   5  19
ENDBRANCH   1   5
BRANCH   2  24
ATOM     24  C   UNL A   1      38.660 -19.015 -37.735  0.00  0.00    +0.024 C 
BRANCH  24  25
ATOM     25  C   UNL A   1      38.210 -17.866 -38.632  0.00  0.00    -0.045 C 
BRANCH  25  26
ATOM     26  C   UNL A   1      39.354 -17.383 -39.520  0.00  0.00    -0.051 C 
BRANCH  26  27
ATOM     27  C   UNL A   1      40.365 -16.545 -38.737  0.00  0.00    -0.037 C 
BRANCH  27  28
ATOM     28  C   UNL A   1      41.770 -16.696 -39.322  0.00  0.00    +0.009 C 
BRANCH  28  29
ATOM     29  N   UNL A   1      42.497 -17.726 -38.570  0.00  0.00    -0.343 N 
ATOM     30  H   UNL A   1      42.382 -17.891 -37.606  0.00  0.00    +0.000 HD
BRANCH  29  31
ATOM     31  C   UNL A   1      43.390 -18.458 -39.408  0.00  0.00    +0.041 A 
ATOM     32  C   UNL A   1      42.993 -19.662 -40.027  0.00  0.00    -0.005 A 
ATOM     33  C   UNL A   1      43.883 -20.240 -40.938  0.00  0.00    +0.047 A 
ATOM     34  N   UNL A   1      45.100 -19.721 -41.225  0.00  0.00    -0.251 NA
ATOM     35  C   UNL A   1      45.480 -18.584 -40.626  0.00  0.00    +0.073 A 
ATOM     36  C   UNL A   1      46.733 -18.064 -40.930  0.00  0.00    -0.036 A 
ATOM     37  C   UNL A   1      47.205 -16.885 -40.349  0.00  0.00    -0.060 A 
ATOM     38  C   UNL A   1      46.410 -16.203 -39.439  0.00  0.00    -0.061 A 
ATOM     39  C   UNL A   1      45.150 -16.706 -39.122  0.00  0.00    -0.051 A 
ATOM     40  C   UNL A   1      44.663 -17.899 -39.710  0.00  0.00    +0.021 A 
ATOM     41  C   UNL A   1      43.566 -21.533 -41.647  0.00  0.00    -0.010 C 
ATOM     42  C   UNL A   1      42.078 -21.858 -41.674  0.00  0.00    -0.047 C 
ATOM     43  C   UNL A   1      41.500 -21.719 -40.274  0.00  0.00    -0.049 C 
ATOM     44  C   UNL A   1      41.636 -20.278 -39.783  0.00  0.00    -0.024 C 
ENDBRANCH  29  31
ENDBRANCH  28  29
ENDBRANCH  27  28
ENDBRANCH  26  27
ENDBRANCH  25  26
ENDBRANCH  24  25
ENDBRANCH   2  24
TORSDOF 13
ENDMDL
MODEL 19
REMARK VINA RESULT:    -6.449     17.444     21.171
REMARK INTER + INTRA:         -13.713
REMARK INTER:                 -10.156
REMARK INTRA:                  -3.557
REMARK UNBOUND:                -2.363
REMARK  Name = cpd156.pdb
REMARK  13 active torsions:
REMARK  status: ('A' for Active; 'I' for Inactive)
REMARK    1  A    between atoms: C_2  and  C_3
REMARK    2  A    between atoms: C_3  and  S_4
REMARK    3  A    between atoms: S_4  and  C_5
REMARK    4  A    between atoms: C_5  and  C_6
REMARK    5  A    between atoms: C_6  and  N_7
REMARK    6  A    between atoms: C_6  and  C_30
REMARK    7  A    between atoms: C_8  and  C_10
REMARK    8  A    between atoms: C_10  and  C_11
REMARK    9  A    between atoms: C_11  and  C_12
REMARK   10  A    between atoms: C_12  and  C_13
REMARK   11  A    between atoms: C_13  and  C_14
REMARK   12  A    between atoms: C_14  and  N_15
REMARK   13  A    between atoms: N_15  and  C_16
REMARK                            x       y       z     vdW  Elec       q    Type
REMARK                         _______ _______ _______ _____ _____    ______ ____
ROOT
ATOM      1  N   UNL A   1      44.074 -19.575 -40.430  0.00  0.00    -0.303 N 
ATOM      2  C   UNL A   1      44.228 -18.967 -41.657  0.00  0.00    +0.214 C 
ATOM      3  O   UNL A   1      44.297 -19.589 -42.711  0.00  0.00    -0.276 OA
ATOM      4  H   UNL A   1      44.187 -19.055 -39.602  0.00  0.00    +0.000 HD
ENDROOT
BRANCH   1   5
ATOM      5  C   UNL A   1      43.741 -20.999 -40.364  0.00  0.00    +0.109 C 
BRANCH   5   6
ATOM      6  C   UNL A   1      42.508 -21.116 -39.443  0.00  0.00    +0.240 C 
ATOM      7  O   UNL A   1      41.380 -21.177 -39.933  0.00  0.00    -0.273 OA
ATOM      8  N   UNL A   1      42.829 -21.067 -38.105  0.00  0.00    -0.263 N 
ATOM      9  C   UNL A   1      41.966 -21.133 -37.042  0.00  0.00    +0.165 A 
ATOM     10  N   UNL A   1      42.422 -21.100 -35.814  0.00  0.00    -0.225 NA
ATOM     11  C   UNL A   1      41.366 -21.190 -34.922  0.00  0.00    +0.080 A 
ATOM     12  C   UNL A   1      41.465 -21.191 -33.516  0.00  0.00    -0.035 A 
ATOM     13  C   UNL A   1      40.308 -21.291 -32.737  0.00  0.00    -0.060 A 
ATOM     14  C   UNL A   1      39.058 -21.388 -33.341  0.00  0.00    -0.061 A 
ATOM     15  C   UNL A   1      38.931 -21.386 -34.734  0.00  0.00    -0.046 A 
ATOM     16  C   UNL A   1      40.101 -21.285 -35.505  0.00  0.00    +0.041 A 
ATOM     17  S   UNL A   1      40.280 -21.254 -37.215  0.00  0.00    -0.052 S 
ATOM     18  H   UNL A   1      43.785 -20.973 -37.888  0.00  0.00    +0.000 HD
ENDBRANCH   5   6
BRANCH   5  19
ATOM     19  C   UNL A   1      44.870 -21.836 -39.746  0.00  0.00    +0.021 C 
BRANCH  19  20
ATOM     20  S   UNL A   1      46.381 -20.890 -39.333  0.00  0.00    -0.154 S 
BRANCH  20  21
ATOM     21  C   UNL A   1      47.611 -21.778 -40.330  0.00  0.00    +0.012 C 
BRANCH  21  23
ATOM     22  C   UNL A   1      47.115 -23.242 -42.392  0.00  0.00    -0.102 C 
ATOM     23  C   UNL A   1      47.179 -22.072 -41.741  0.00  0.00    -0.081 C 
ENDBRANCH  21  23
ENDBRANCH  20  21
ENDBRANCH  19  20
ENDBRANCH   5  19
ENDBRANCH   1   5
BRANCH   2  24
ATOM     24  C   UNL A   1      44.356 -17.461 -41.585  0.00  0.00    +0.024 C 
BRANCH  24  25
ATOM     25  C   UNL A   1      43.863 -16.949 -40.235  0.00  0.00    -0.045 C 
BRANCH  25  26
ATOM     26  C   UNL A   1      42.394 -16.539 -40.308  0.00  0.00    -0.051 C 
BRANCH  26  27
ATOM     27  C   UNL A   1      41.903 -15.949 -38.986  0.00  0.00    -0.037 C 
BRANCH  27  28
ATOM     28  C   UNL A   1      42.797 -16.390 -37.826  0.00  0.00    +0.009 C 
BRANCH  28  29
ATOM     29  N   UNL A   1      42.305 -17.669 -37.299  0.00  0.00    -0.343 N 
ATOM     30  H   UNL A   1      42.188 -18.482 -37.842  0.00  0.00    +0.000 HD
BRANCH  29  31
ATOM     31  C   UNL A   1      42.017 -17.588 -35.904  0.00  0.00    +0.041 A 
ATOM     32  C   UNL A   1      40.688 -17.555 -35.432  0.00  0.00    -0.005 A 
ATOM     33  C   UNL A   1      40.496 -17.614 -34.047  0.00  0.00    +0.047 A 
ATOM     34  N   UNL A   1      41.513 -17.669 -33.154  0.00  0.00    -0.251 NA
ATOM     35  C   UNL A   1      42.775 -17.686 -33.606  0.00  0.00    +0.073 A 
ATOM     36  C   UNL A   1      43.808 -17.742 -32.677  0.00  0.00    -0.036 A 
ATOM     37  C   UNL A   1      45.150 -17.762 -33.064  0.00  0.00    -0.060 A 
ATOM     38  C   UNL A   1      45.476 -17.727 -34.412  0.00  0.00    -0.061 A 
ATOM     39  C   UNL A   1      44.455 -17.673 -35.360  0.00  0.00    -0.051 A 
ATOM     40  C   UNL A   1      43.092 -17.655 -34.975  0.00  0.00    +0.021 A 
ATOM     41  C   UNL A   1      39.120 -17.573 -33.433  0.00  0.00    -0.010 C 
ATOM     42  C   UNL A   1      38.013 -17.960 -34.405  0.00  0.00    -0.047 C 
ATOM     43  C   UNL A   1      38.177 -17.180 -35.701  0.00  0.00    -0.049 C 
ATOM     44  C   UNL A   1      39.505 -17.532 -36.370  0.00  0.00    -0.024 C 
ENDBRANCH  29  31
ENDBRANCH  28  29
ENDBRANCH  27  28
ENDBRANCH  26  27
ENDBRANCH  25  26
ENDBRANCH  24  25
ENDBRANCH   2  24
TORSDOF 13
ENDMDL
MODEL 20
REMARK VINA RESULT:    -6.370     17.188     21.068
REMARK INTER + INTRA:         -13.575
REMARK INTER:                  -8.752
REMARK INTRA:                  -4.822
REMARK UNBOUND:                -2.363
REMARK  Name = cpd156.pdb
REMARK  13 active torsions:
REMARK  status: ('A' for Active; 'I' for Inactive)
REMARK    1  A    between atoms: C_2  and  C_3
REMARK    2  A    between atoms: C_3  and  S_4
REMARK    3  A    between atoms: S_4  and  C_5
REMARK    4  A    between atoms: C_5  and  C_6
REMARK    5  A    between atoms: C_6  and  N_7
REMARK    6  A    between atoms: C_6  and  C_30
REMARK    7  A    between atoms: C_8  and  C_10
REMARK    8  A    between atoms: C_10  and  C_11
REMARK    9  A    between atoms: C_11  and  C_12
REMARK   10  A    between atoms: C_12  and  C_13
REMARK   11  A    between atoms: C_13  and  C_14
REMARK   12  A    between atoms: C_14  and  N_15
REMARK   13  A    between atoms: N_15  and  C_16
REMARK                            x       y       z     vdW  Elec       q    Type
REMARK                         _______ _______ _______ _____ _____    ______ ____
ROOT
ATOM      1  N   UNL A   1      44.379 -16.879 -37.389  0.00  0.00    -0.303 N 
ATOM      2  C   UNL A   1      44.820 -16.396 -36.176  0.00  0.00    +0.214 C 
ATOM      3  O   UNL A   1      44.619 -15.248 -35.797  0.00  0.00    -0.276 OA
ATOM      4  H   UNL A   1      44.700 -17.748 -37.722  0.00  0.00    +0.000 HD
ENDROOT
BRANCH   1   5
ATOM      5  C   UNL A   1      43.431 -16.093 -38.181  0.00  0.00    +0.109 C 
BRANCH   5   6
ATOM      6  C   UNL A   1      42.085 -16.845 -38.120  0.00  0.00    +0.240 C 
ATOM      7  O   UNL A   1      41.624 -17.361 -39.139  0.00  0.00    -0.273 OA
ATOM      8  N   UNL A   1      41.493 -16.790 -36.879  0.00  0.00    -0.263 N 
ATOM      9  C   UNL A   1      40.296 -17.345 -36.505  0.00  0.00    +0.165 A 
ATOM     10  N   UNL A   1      39.869 -17.231 -35.271  0.00  0.00    -0.225 NA
ATOM     11  C   UNL A   1      38.650 -17.878 -35.139  0.00  0.00    +0.080 A 
ATOM     12  C   UNL A   1      37.886 -17.974 -33.959  0.00  0.00    -0.035 A 
ATOM     13  C   UNL A   1      36.669 -18.663 -33.972  0.00  0.00    -0.060 A 
ATOM     14  C   UNL A   1      36.207 -19.255 -35.144  0.00  0.00    -0.061 A 
ATOM     15  C   UNL A   1      36.944 -19.172 -36.329  0.00  0.00    -0.046 A 
ATOM     16  C   UNL A   1      38.164 -18.477 -36.303  0.00  0.00    +0.041 A 
ATOM     17  S   UNL A   1      39.288 -18.198 -37.575  0.00  0.00    -0.052 S 
ATOM     18  H   UNL A   1      41.983 -16.296 -36.182  0.00  0.00    +0.000 HD
ENDBRANCH   5   6
BRANCH   5  19
ATOM     19  C   UNL A   1      43.844 -15.989 -39.655  0.00  0.00    +0.021 C 
BRANCH  19  20
ATOM     20  S   UNL A   1      45.637 -16.200 -39.960  0.00  0.00    -0.154 S 
BRANCH  20  21
ATOM     21  C   UNL A   1      45.638 -17.788 -40.840  0.00  0.00    +0.012 C 
BRANCH  21  23
ATOM     22  C   UNL A   1      46.264 -20.211 -40.229  0.00  0.00    -0.102 C 
ATOM     23  C   UNL A   1      45.771 -18.995 -39.954  0.00  0.00    -0.081 C 
ENDBRANCH  21  23
ENDBRANCH  20  21
ENDBRANCH  19  20
ENDBRANCH   5  19
ENDBRANCH   1   5
BRANCH   2  24
ATOM     24  C   UNL A   1      45.620 -17.396 -35.370  0.00  0.00    +0.024 C 
BRANCH  24  25
ATOM     25  C   UNL A   1      46.149 -18.505 -36.274  0.00  0.00    -0.045 C 
BRANCH  25  26
ATOM     26  C   UNL A   1      45.792 -19.882 -35.718  0.00  0.00    -0.051 C 
BRANCH  26  27
ATOM     27  C   UNL A   1      45.114 -19.783 -34.351  0.00  0.00    -0.037 C 
BRANCH  27  28
ATOM     28  C   UNL A   1      43.784 -20.539 -34.345  0.00  0.00    +0.009 C 
BRANCH  28  29
ATOM     29  N   UNL A   1      42.743 -19.685 -34.930  0.00  0.00    -0.343 N 
ATOM     30  H   UNL A   1      42.774 -18.701 -34.936  0.00  0.00    +0.000 HD
BRANCH  29  31
ATOM     31  C   UNL A   1      41.681 -20.459 -35.487  0.00  0.00    +0.041 A 
ATOM     32  C   UNL A   1      41.707 -20.873 -36.835  0.00  0.00    -0.005 A 
ATOM     33  C   UNL A   1      40.695 -21.740 -37.260  0.00  0.00    +0.047 A 
ATOM     34  N   UNL A   1      39.692 -22.168 -36.457  0.00  0.00    -0.251 NA
ATOM     35  C   UNL A   1      39.663 -21.762 -35.181  0.00  0.00    +0.073 A 
ATOM     36  C   UNL A   1      38.626 -22.208 -34.369  0.00  0.00    -0.036 A 
ATOM     37  C   UNL A   1      38.521 -21.831 -33.028  0.00  0.00    -0.060 A 
ATOM     38  C   UNL A   1      39.474 -20.986 -32.477  0.00  0.00    -0.061 A 
ATOM     39  C   UNL A   1      40.523 -20.528 -33.273  0.00  0.00    -0.051 A 
ATOM     40  C   UNL A   1      40.637 -20.909 -34.632  0.00  0.00    +0.021 A 
ATOM     41  C   UNL A   1      40.619 -22.237 -38.682  0.00  0.00    -0.010 C 
ATOM     42  C   UNL A   1      41.942 -22.132 -39.430  0.00  0.00    -0.047 C 
ATOM     43  C   UNL A   1      42.520 -20.737 -39.252  0.00  0.00    -0.049 C 
ATOM     44  C   UNL A   1      42.816 -20.467 -37.777  0.00  0.00    -0.024 C 
ENDBRANCH  29  31
ENDBRANCH  28  29
ENDBRANCH  27  28
ENDBRANCH  26  27
ENDBRANCH  25  26
ENDBRANCH  24  25
ENDBRANCH   2  24
TORSDOF 13
ENDMDL
