MODEL 1
REMARK VINA RESULT:    -8.763      0.000      0.000
REMARK INTER + INTRA:         -12.021
REMARK INTER:                 -11.068
REMARK INTRA:                  -0.953
REMARK UNBOUND:                -0.953
REMARK  Name = cpd232.pdb
REMARK  6 active torsions:
REMARK  status: ('A' for Active; 'I' for Inactive)
REMARK    1  A    between atoms: C_1  and  C_2
REMARK    2  A    between atoms: C_11  and  N_12
REMARK    3  A    between atoms: C_13  and  C_14
REMARK    4  A    between atoms: C_14  and  N_15
REMARK    5  A    between atoms: N_15  and  C_16
REMARK    6  A    between atoms: C_16  and  C_17
REMARK                            x       y       z     vdW  Elec       q    Type
REMARK                         _______ _______ _______ _____ _____    ______ ____
ROOT
ATOM      1  C   UNL     1      36.429 -37.633 -27.720  0.00  0.00    -0.022 C 
ATOM      2  C   UNL     1      37.221 -37.263 -28.944  0.00  0.00    +0.045 A 
ATOM      3  N   UNL     1      38.524 -37.626 -28.894  0.00  0.00    -0.251 NA
ATOM      4  C   UNL     1      39.329 -37.318 -29.914  0.00  0.00    +0.076 A 
ATOM      5  C   UNL     1      40.666 -37.692 -29.814  0.00  0.00    -0.035 A 
ATOM      6  C   UNL     1      41.591 -37.413 -30.820  0.00  0.00    -0.057 A 
ATOM      7  C   UNL     1      41.171 -36.746 -31.958  0.00  0.00    -0.026 A 
ATOM      8  C   UNL     1      39.835 -36.368 -32.070  0.00  0.00    +0.134 A 
ATOM      9  F   UNL     1      39.462 -35.752 -33.205  0.00  0.00    -0.205 F 
ATOM     10  C   UNL     1      38.881 -36.638 -31.060  0.00  0.00    +0.056 A 
ATOM     11  C   UNL     1      37.497 -36.291 -31.127  0.00  0.00    +0.043 A 
ATOM     12  C   UNL     1      36.650 -36.596 -30.039  0.00  0.00    +0.009 A 
ENDROOT
BRANCH  11  13
ATOM     13  N   UNL     1      37.045 -35.458 -32.174  0.00  0.00    -0.357 N 
ATOM     14  H   UNL     1      36.456 -35.823 -32.872  0.00  0.00    +0.000 HD
ATOM     15  H   UNL     1      37.319 -34.513 -32.205  0.00  0.00    +0.000 HD
ENDBRANCH  11  13
BRANCH  12  16
ATOM     16  C   UNL     1      35.180 -36.231 -30.027  0.00  0.00    +0.028 C 
BRANCH  16  17
ATOM     17  N   UNL     1      34.953 -34.898 -29.473  0.00  0.00    -0.268 N 
ATOM     18  H   UNL     1      35.853 -34.421 -29.415  0.00  0.00    +0.000 HD
ATOM     19  H   UNL     1      34.511 -35.036 -28.564  0.00  0.00    +0.000 HD
BRANCH  17  20
ATOM     20  C   UNL     1      34.033 -34.048 -30.259  0.00  0.00    +0.261 C 
ATOM     21  C   UNL     1      32.626 -34.646 -30.232  0.00  0.00    +0.020 C 
ATOM     22  C   UNL     1      32.054 -34.260 -31.575  0.00  0.00    +0.050 C 
ATOM     23  C   UNL     1      33.285 -34.196 -32.426  0.00  0.00    +0.309 C 
ATOM     24  O   UNL     1      33.298 -34.134 -33.643  0.00  0.00    -0.251 OA
ATOM     25  O   UNL     1      34.404 -34.184 -31.646  0.00  0.00    -0.434 OA
BRANCH  20  26
ATOM     26  C   UNL     1      34.008 -32.510 -29.901  0.00  0.00    +0.444 C 
ATOM     27  F   UNL     1      32.773 -32.120 -29.498  0.00  0.00    -0.165 F 
ATOM     28  F   UNL     1      34.340 -31.733 -30.956  0.00  0.00    -0.165 F 
ATOM     29  F   UNL     1      34.867 -32.228 -28.894  0.00  0.00    -0.165 F 
ENDBRANCH  20  26
ENDBRANCH  17  20
ENDBRANCH  16  17
ENDBRANCH  12  16
TORSDOF 5
ENDMDL
MODEL 2
REMARK VINA RESULT:    -8.364      1.217      1.603
REMARK INTER + INTRA:         -11.518
REMARK INTER:                 -10.586
REMARK INTRA:                  -0.932
REMARK UNBOUND:                -0.953
REMARK  Name = cpd232.pdb
REMARK  6 active torsions:
REMARK  status: ('A' for Active; 'I' for Inactive)
REMARK    1  A    between atoms: C_1  and  C_2
REMARK    2  A    between atoms: C_11  and  N_12
REMARK    3  A    between atoms: C_13  and  C_14
REMARK    4  A    between atoms: C_14  and  N_15
REMARK    5  A    between atoms: N_15  and  C_16
REMARK    6  A    between atoms: C_16  and  C_17
REMARK                            x       y       z     vdW  Elec       q    Type
REMARK                         _______ _______ _______ _____ _____    ______ ____
ROOT
ATOM      1  C   UNL     1      36.605 -38.190 -27.939  0.00  0.00    -0.022 C 
ATOM      2  C   UNL     1      37.383 -37.523 -29.041  0.00  0.00    +0.045 A 
ATOM      3  N   UNL     1      38.710 -37.788 -29.025  0.00  0.00    -0.251 NA
ATOM      4  C   UNL     1      39.502 -37.221 -29.940  0.00  0.00    +0.076 A 
ATOM      5  C   UNL     1      40.862 -37.504 -29.877  0.00  0.00    -0.035 A 
ATOM      6  C   UNL     1      41.776 -36.959 -30.779  0.00  0.00    -0.057 A 
ATOM      7  C   UNL     1      41.319 -36.111 -31.774  0.00  0.00    -0.026 A 
ATOM      8  C   UNL     1      39.959 -35.821 -31.848  0.00  0.00    +0.134 A 
ATOM      9  F   UNL     1      39.553 -35.021 -32.848  0.00  0.00    -0.205 F 
ATOM     10  C   UNL     1      39.015 -36.361 -30.940  0.00  0.00    +0.056 A 
ATOM     11  C   UNL     1      37.609 -36.114 -30.978  0.00  0.00    +0.043 A 
ATOM     12  C   UNL     1      36.775 -36.695 -29.998  0.00  0.00    +0.009 A 
ENDROOT
BRANCH  11  13
ATOM     13  N   UNL     1      37.106 -35.126 -31.851  0.00  0.00    -0.357 N 
ATOM     14  H   UNL     1      37.709 -34.441 -32.219  0.00  0.00    +0.000 HD
ATOM     15  H   UNL     1      36.151 -35.122 -32.092  0.00  0.00    +0.000 HD
ENDBRANCH  11  13
BRANCH  12  16
ATOM     16  C   UNL     1      35.280 -36.453 -29.957  0.00  0.00    +0.028 C 
BRANCH  16  17
ATOM     17  N   UNL     1      34.941 -35.258 -29.187  0.00  0.00    -0.268 N 
ATOM     18  H   UNL     1      35.809 -34.779 -28.947  0.00  0.00    +0.000 HD
ATOM     19  H   UNL     1      34.420 -35.580 -28.372  0.00  0.00    +0.000 HD
BRANCH  17  20
ATOM     20  C   UNL     1      34.064 -34.297 -29.888  0.00  0.00    +0.261 C 
ATOM     21  C   UNL     1      33.642 -34.870 -31.241  0.00  0.00    +0.020 C 
ATOM     22  C   UNL     1      33.505 -33.647 -32.115  0.00  0.00    +0.050 C 
ATOM     23  C   UNL     1      34.500 -32.714 -31.495  0.00  0.00    +0.309 C 
ATOM     24  O   UNL     1      34.900 -31.677 -31.995  0.00  0.00    -0.251 OA
ATOM     25  O   UNL     1      34.881 -33.169 -30.267  0.00  0.00    -0.434 OA
BRANCH  20  26
ATOM     26  C   UNL     1      32.817 -33.756 -29.083  0.00  0.00    +0.444 C 
ATOM     27  F   UNL     1      32.871 -32.409 -28.943  0.00  0.00    -0.165 F 
ATOM     28  F   UNL     1      32.746 -34.277 -27.838  0.00  0.00    -0.165 F 
ATOM     29  F   UNL     1      31.659 -34.049 -29.719  0.00  0.00    -0.165 F 
ENDBRANCH  20  26
ENDBRANCH  17  20
ENDBRANCH  16  17
ENDBRANCH  12  16
TORSDOF 5
ENDMDL
MODEL 3
REMARK VINA RESULT:    -7.602      1.868      2.386
REMARK INTER + INTRA:         -10.555
REMARK INTER:                 -10.040
REMARK INTRA:                  -0.515
REMARK UNBOUND:                -0.953
REMARK  Name = cpd232.pdb
REMARK  6 active torsions:
REMARK  status: ('A' for Active; 'I' for Inactive)
REMARK    1  A    between atoms: C_1  and  C_2
REMARK    2  A    between atoms: C_11  and  N_12
REMARK    3  A    between atoms: C_13  and  C_14
REMARK    4  A    between atoms: C_14  and  N_15
REMARK    5  A    between atoms: N_15  and  C_16
REMARK    6  A    between atoms: C_16  and  C_17
REMARK                            x       y       z     vdW  Elec       q    Type
REMARK                         _______ _______ _______ _____ _____    ______ ____
ROOT
ATOM      1  C   UNL     1      36.674 -37.730 -27.637  0.00  0.00    -0.022 C 
ATOM      2  C   UNL     1      37.463 -37.266 -28.830  0.00  0.00    +0.045 A 
ATOM      3  N   UNL     1      38.684 -37.839 -28.948  0.00  0.00    -0.251 NA
ATOM      4  C   UNL     1      39.483 -37.476 -29.955  0.00  0.00    +0.076 A 
ATOM      5  C   UNL     1      40.736 -38.075 -30.029  0.00  0.00    -0.035 A 
ATOM      6  C   UNL     1      41.650 -37.761 -31.035  0.00  0.00    -0.057 A 
ATOM      7  C   UNL     1      41.302 -36.828 -31.997  0.00  0.00    -0.026 A 
ATOM      8  C   UNL     1      40.049 -36.223 -31.934  0.00  0.00    +0.134 A 
ATOM      9  F   UNL     1      39.738 -35.347 -32.905  0.00  0.00    -0.205 F 
ATOM     10  C   UNL     1      39.109 -36.523 -30.919  0.00  0.00    +0.056 A 
ATOM     11  C   UNL     1      37.805 -35.949 -30.814  0.00  0.00    +0.043 A 
ATOM     12  C   UNL     1      36.968 -36.317 -29.738  0.00  0.00    +0.009 A 
ENDROOT
BRANCH  11  13
ATOM     13  N   UNL     1      37.459 -34.868 -31.653  0.00  0.00    -0.357 N 
ATOM     14  H   UNL     1      36.776 -34.987 -32.352  0.00  0.00    +0.000 HD
ATOM     15  H   UNL     1      37.899 -33.995 -31.539  0.00  0.00    +0.000 HD
ENDBRANCH  11  13
BRANCH  12  16
ATOM     16  C   UNL     1      35.586 -35.726 -29.545  0.00  0.00    +0.028 C 
BRANCH  16  17
ATOM     17  N   UNL     1      34.699 -36.038 -30.663  0.00  0.00    -0.268 N 
ATOM     18  H   UNL     1      34.163 -36.871 -30.419  0.00  0.00    +0.000 HD
ATOM     19  H   UNL     1      35.298 -36.169 -31.478  0.00  0.00    +0.000 HD
BRANCH  17  20
ATOM     20  C   UNL     1      33.745 -34.965 -31.017  0.00  0.00    +0.261 C 
ATOM     21  C   UNL     1      34.374 -33.600 -30.736  0.00  0.00    +0.020 C 
ATOM     22  C   UNL     1      33.193 -32.742 -30.348  0.00  0.00    +0.050 C 
ATOM     23  C   UNL     1      32.264 -33.752 -29.747  0.00  0.00    +0.309 C 
ATOM     24  O   UNL     1      31.269 -33.492 -29.093  0.00  0.00    -0.251 OA
ATOM     25  O   UNL     1      32.668 -35.017 -30.058  0.00  0.00    -0.434 OA
BRANCH  20  26
ATOM     26  C   UNL     1      33.121 -35.019 -32.466  0.00  0.00    +0.444 C 
ATOM     27  F   UNL     1      33.342 -33.864 -33.139  0.00  0.00    -0.165 F 
ATOM     28  F   UNL     1      31.783 -35.209 -32.441  0.00  0.00    -0.165 F 
ATOM     29  F   UNL     1      33.666 -36.021 -33.196  0.00  0.00    -0.165 F 
ENDBRANCH  20  26
ENDBRANCH  17  20
ENDBRANCH  16  17
ENDBRANCH  12  16
TORSDOF 5
ENDMDL
MODEL 4
REMARK VINA RESULT:    -7.525      4.397      5.681
REMARK INTER + INTRA:         -10.458
REMARK INTER:                  -9.731
REMARK INTRA:                  -0.726
REMARK UNBOUND:                -0.953
REMARK  Name = cpd232.pdb
REMARK  6 active torsions:
REMARK  status: ('A' for Active; 'I' for Inactive)
REMARK    1  A    between atoms: C_1  and  C_2
REMARK    2  A    between atoms: C_11  and  N_12
REMARK    3  A    between atoms: C_13  and  C_14
REMARK    4  A    between atoms: C_14  and  N_15
REMARK    5  A    between atoms: N_15  and  C_16
REMARK    6  A    between atoms: C_16  and  C_17
REMARK                            x       y       z     vdW  Elec       q    Type
REMARK                         _______ _______ _______ _____ _____    ______ ____
ROOT
ATOM      1  C   UNL     1      36.240 -35.338 -31.110  0.00  0.00    -0.022 C 
ATOM      2  C   UNL     1      37.485 -36.077 -30.701  0.00  0.00    +0.045 A 
ATOM      3  N   UNL     1      38.597 -35.714 -31.384  0.00  0.00    -0.251 NA
ATOM      4  C   UNL     1      39.754 -36.329 -31.124  0.00  0.00    +0.076 A 
ATOM      5  C   UNL     1      40.868 -35.941 -31.862  0.00  0.00    -0.035 A 
ATOM      6  C   UNL     1      42.121 -36.524 -31.675  0.00  0.00    -0.057 A 
ATOM      7  C   UNL     1      42.268 -37.520 -30.723  0.00  0.00    -0.026 A 
ATOM      8  C   UNL     1      41.160 -37.916 -29.978  0.00  0.00    +0.134 A 
ATOM      9  F   UNL     1      41.353 -38.861 -29.043  0.00  0.00    -0.205 F 
ATOM     10  C   UNL     1      39.879 -37.340 -30.155  0.00  0.00    +0.056 A 
ATOM     11  C   UNL     1      38.713 -37.692 -29.409  0.00  0.00    +0.043 A 
ATOM     12  C   UNL     1      37.485 -37.058 -29.698  0.00  0.00    +0.009 A 
ENDROOT
BRANCH  11  13
ATOM     13  N   UNL     1      38.754 -38.816 -28.555  0.00  0.00    -0.357 N 
ATOM     14  H   UNL     1      39.496 -38.922 -27.917  0.00  0.00    +0.000 HD
ATOM     15  H   UNL     1      38.041 -39.492 -28.596  0.00  0.00    +0.000 HD
ENDBRANCH  11  13
BRANCH  12  16
ATOM     16  C   UNL     1      36.201 -37.403 -28.970  0.00  0.00    +0.028 C 
BRANCH  16  17
ATOM     17  N   UNL     1      35.350 -38.292 -29.757  0.00  0.00    -0.268 N 
ATOM     18  H   UNL     1      35.855 -38.547 -30.606  0.00  0.00    +0.000 HD
ATOM     19  H   UNL     1      34.488 -37.777 -29.940  0.00  0.00    +0.000 HD
BRANCH  17  20
ATOM     20  C   UNL     1      34.950 -39.539 -29.069  0.00  0.00    +0.261 C 
ATOM     21  C   UNL     1      33.433 -39.709 -29.144  0.00  0.00    +0.020 C 
ATOM     22  C   UNL     1      33.095 -40.422 -27.856  0.00  0.00    +0.050 C 
ATOM     23  C   UNL     1      34.177 -39.933 -26.942  0.00  0.00    +0.309 C 
ATOM     24  O   UNL     1      34.189 -40.068 -25.731  0.00  0.00    -0.251 OA
ATOM     25  O   UNL     1      35.174 -39.338 -27.657  0.00  0.00    -0.434 OA
BRANCH  20  26
ATOM     26  C   UNL     1      35.697 -40.860 -29.505  0.00  0.00    +0.444 C 
ATOM     27  F   UNL     1      34.840 -41.908 -29.570  0.00  0.00    -0.165 F 
ATOM     28  F   UNL     1      36.674 -41.207 -28.638  0.00  0.00    -0.165 F 
ATOM     29  F   UNL     1      36.260 -40.723 -30.728  0.00  0.00    -0.165 F 
ENDBRANCH  20  26
ENDBRANCH  17  20
ENDBRANCH  16  17
ENDBRANCH  12  16
TORSDOF 5
ENDMDL
MODEL 5
REMARK VINA RESULT:    -7.522     36.551     38.283
REMARK INTER + INTRA:         -10.454
REMARK INTER:                  -9.613
REMARK INTRA:                  -0.841
REMARK UNBOUND:                -0.953
REMARK  Name = cpd232.pdb
REMARK  6 active torsions:
REMARK  status: ('A' for Active; 'I' for Inactive)
REMARK    1  A    between atoms: C_1  and  C_2
REMARK    2  A    between atoms: C_11  and  N_12
REMARK    3  A    between atoms: C_13  and  C_14
REMARK    4  A    between atoms: C_14  and  N_15
REMARK    5  A    between atoms: N_15  and  C_16
REMARK    6  A    between atoms: C_16  and  C_17
REMARK                            x       y       z     vdW  Elec       q    Type
REMARK                         _______ _______ _______ _____ _____    ______ ____
ROOT
ATOM      1  C   UNL     1      62.274 -22.049  -3.380  0.00  0.00    -0.022 C 
ATOM      2  C   UNL     1      62.555 -21.590  -4.784  0.00  0.00    +0.045 A 
ATOM      3  N   UNL     1      62.020 -20.386  -5.095  0.00  0.00    -0.251 NA
ATOM      4  C   UNL     1      62.181 -19.896  -6.327  0.00  0.00    +0.076 A 
ATOM      5  C   UNL     1      61.598 -18.665  -6.611  0.00  0.00    -0.035 A 
ATOM      6  C   UNL     1      61.699 -18.068  -7.867  0.00  0.00    -0.057 A 
ATOM      7  C   UNL     1      62.404 -18.716  -8.868  0.00  0.00    -0.026 A 
ATOM      8  C   UNL     1      62.993 -19.948  -8.595  0.00  0.00    +0.134 A 
ATOM      9  F   UNL     1      63.696 -20.527  -9.584  0.00  0.00    -0.205 F 
ATOM     10  C   UNL     1      62.899 -20.573  -7.328  0.00  0.00    +0.056 A 
ATOM     11  C   UNL     1      63.496 -21.825  -6.987  0.00  0.00    +0.043 A 
ATOM     12  C   UNL     1      63.308 -22.353  -5.691  0.00  0.00    +0.009 A 
ENDROOT
BRANCH  11  13
ATOM     13  N   UNL     1      64.073 -22.615  -8.004  0.00  0.00    -0.357 N 
ATOM     14  H   UNL     1      63.978 -22.348  -8.947  0.00  0.00    +0.000 HD
ATOM     15  H   UNL     1      64.569 -23.432  -7.771  0.00  0.00    +0.000 HD
ENDBRANCH  11  13
BRANCH  12  16
ATOM     16  C   UNL     1      63.884 -23.689  -5.267  0.00  0.00    +0.028 C 
BRANCH  16  17
ATOM     17  N   UNL     1      62.871 -24.743  -5.260  0.00  0.00    -0.268 N 
ATOM     18  H   UNL     1      61.982 -24.329  -5.539  0.00  0.00    +0.000 HD
ATOM     19  H   UNL     1      62.860 -25.124  -4.314  0.00  0.00    +0.000 HD
BRANCH  17  20
ATOM     20  C   UNL     1      63.153 -25.880  -6.163  0.00  0.00    +0.261 C 
ATOM     21  C   UNL     1      62.934 -27.198  -5.420  0.00  0.00    +0.020 C 
ATOM     22  C   UNL     1      63.943 -28.128  -6.049  0.00  0.00    +0.050 C 
ATOM     23  C   UNL     1      65.027 -27.176  -6.454  0.00  0.00    +0.309 C 
ATOM     24  O   UNL     1      66.149 -27.495  -6.807  0.00  0.00    -0.251 OA
ATOM     25  O   UNL     1      64.575 -25.890  -6.407  0.00  0.00    -0.434 OA
BRANCH  20  26
ATOM     26  C   UNL     1      62.412 -25.879  -7.558  0.00  0.00    +0.444 C 
ATOM     27  F   UNL     1      63.281 -25.656  -8.574  0.00  0.00    -0.165 F 
ATOM     28  F   UNL     1      61.464 -24.919  -7.634  0.00  0.00    -0.165 F 
ATOM     29  F   UNL     1      61.813 -27.070  -7.794  0.00  0.00    -0.165 F 
ENDBRANCH  20  26
ENDBRANCH  17  20
ENDBRANCH  16  17
ENDBRANCH  12  16
TORSDOF 5
ENDMDL
MODEL 6
REMARK VINA RESULT:    -7.470      3.902      5.232
REMARK INTER + INTRA:         -10.389
REMARK INTER:                 -10.193
REMARK INTRA:                  -0.196
REMARK UNBOUND:                -0.953
REMARK  Name = cpd232.pdb
REMARK  6 active torsions:
REMARK  status: ('A' for Active; 'I' for Inactive)
REMARK    1  A    between atoms: C_1  and  C_2
REMARK    2  A    between atoms: C_11  and  N_12
REMARK    3  A    between atoms: C_13  and  C_14
REMARK    4  A    between atoms: C_14  and  N_15
REMARK    5  A    between atoms: N_15  and  C_16
REMARK    6  A    between atoms: C_16  and  C_17
REMARK                            x       y       z     vdW  Elec       q    Type
REMARK                         _______ _______ _______ _____ _____    ______ ____
ROOT
ATOM      1  C   UNL     1      36.130 -35.658 -30.213  0.00  0.00    -0.022 C 
ATOM      2  C   UNL     1      37.458 -36.357 -30.112  0.00  0.00    +0.045 A 
ATOM      3  N   UNL     1      38.355 -35.989 -31.056  0.00  0.00    -0.251 NA
ATOM      4  C   UNL     1      39.557 -36.571 -31.080  0.00  0.00    +0.076 A 
ATOM      5  C   UNL     1      40.441 -36.179 -32.079  0.00  0.00    -0.035 A 
ATOM      6  C   UNL     1      41.718 -36.729 -32.198  0.00  0.00    -0.057 A 
ATOM      7  C   UNL     1      42.124 -37.694 -31.292  0.00  0.00    -0.026 A 
ATOM      8  C   UNL     1      41.247 -38.094 -30.286  0.00  0.00    +0.134 A 
ATOM      9  F   UNL     1      41.693 -39.009 -29.408  0.00  0.00    -0.205 F 
ATOM     10  C   UNL     1      39.947 -37.552 -30.151  0.00  0.00    +0.056 A 
ATOM     11  C   UNL     1      39.013 -37.910 -29.131  0.00  0.00    +0.043 A 
ATOM     12  C   UNL     1      37.734 -37.311 -29.119  0.00  0.00    +0.009 A 
ENDROOT
BRANCH  11  13
ATOM     13  N   UNL     1      39.296 -39.008 -28.291  0.00  0.00    -0.357 N 
ATOM     14  H   UNL     1      39.652 -39.841 -28.673  0.00  0.00    +0.000 HD
ATOM     15  H   UNL     1      39.138 -38.939 -27.321  0.00  0.00    +0.000 HD
ENDBRANCH  11  13
BRANCH  12  16
ATOM     16  C   UNL     1      36.681 -37.664 -28.088  0.00  0.00    +0.028 C 
BRANCH  16  17
ATOM     17  N   UNL     1      36.522 -39.109 -27.943  0.00  0.00    -0.268 N 
ATOM     18  H   UNL     1      36.169 -39.297 -27.005  0.00  0.00    +0.000 HD
ATOM     19  H   UNL     1      37.441 -39.518 -28.117  0.00  0.00    +0.000 HD
BRANCH  17  20
ATOM     20  C   UNL     1      35.600 -39.733 -28.916  0.00  0.00    +0.261 C 
ATOM     21  C   UNL     1      36.399 -40.487 -29.978  0.00  0.00    +0.020 C 
ATOM     22  C   UNL     1      35.549 -40.355 -31.219  0.00  0.00    +0.050 C 
ATOM     23  C   UNL     1      34.858 -39.047 -30.979  0.00  0.00    +0.309 C 
ATOM     24  O   UNL     1      34.233 -38.417 -31.815  0.00  0.00    -0.251 OA
ATOM     25  O   UNL     1      34.996 -38.666 -29.677  0.00  0.00    -0.434 OA
BRANCH  20  26
ATOM     26  C   UNL     1      34.445 -40.632 -28.323  0.00  0.00    +0.444 C 
ATOM     27  F   UNL     1      34.404 -40.548 -26.971  0.00  0.00    -0.165 F 
ATOM     28  F   UNL     1      34.603 -41.938 -28.631  0.00  0.00    -0.165 F 
ATOM     29  F   UNL     1      33.235 -40.243 -28.788  0.00  0.00    -0.165 F 
ENDBRANCH  20  26
ENDBRANCH  17  20
ENDBRANCH  16  17
ENDBRANCH  12  16
TORSDOF 5
ENDMDL
MODEL 7
REMARK VINA RESULT:    -7.449     19.295     20.606
REMARK INTER + INTRA:         -10.362
REMARK INTER:                  -9.211
REMARK INTRA:                  -1.150
REMARK UNBOUND:                -0.953
REMARK  Name = cpd232.pdb
REMARK  6 active torsions:
REMARK  status: ('A' for Active; 'I' for Inactive)
REMARK    1  A    between atoms: C_1  and  C_2
REMARK    2  A    between atoms: C_11  and  N_12
REMARK    3  A    between atoms: C_13  and  C_14
REMARK    4  A    between atoms: C_14  and  N_15
REMARK    5  A    between atoms: N_15  and  C_16
REMARK    6  A    between atoms: C_16  and  C_17
REMARK                            x       y       z     vdW  Elec       q    Type
REMARK                         _______ _______ _______ _____ _____    ______ ____
ROOT
ATOM      1  C   UNL     1      44.050 -17.823 -40.755  0.00  0.00    -0.022 C 
ATOM      2  C   UNL     1      45.049 -18.941 -40.641  0.00  0.00    +0.045 A 
ATOM      3  N   UNL     1      44.896 -19.921 -41.562  0.00  0.00    -0.251 NA
ATOM      4  C   UNL     1      45.710 -20.979 -41.533  0.00  0.00    +0.076 A 
ATOM      5  C   UNL     1      45.507 -21.973 -42.485  0.00  0.00    -0.035 A 
ATOM      6  C   UNL     1      46.296 -23.122 -42.538  0.00  0.00    -0.057 A 
ATOM      7  C   UNL     1      47.318 -23.283 -41.619  0.00  0.00    -0.026 A 
ATOM      8  C   UNL     1      47.532 -22.294 -40.661  0.00  0.00    +0.134 A 
ATOM      9  F   UNL     1      48.556 -22.473 -39.809  0.00  0.00    -0.205 F 
ATOM     10  C   UNL     1      46.741 -21.122 -40.588  0.00  0.00    +0.056 A 
ATOM     11  C   UNL     1      46.925 -20.068 -39.642  0.00  0.00    +0.043 A 
ATOM     12  C   UNL     1      46.051 -18.959 -39.658  0.00  0.00    +0.009 A 
ENDROOT
BRANCH  11  13
ATOM     13  N   UNL     1      47.829 -20.251 -38.573  0.00  0.00    -0.357 N 
ATOM     14  H   UNL     1      48.244 -21.130 -38.425  0.00  0.00    +0.000 HD
ATOM     15  H   UNL     1      48.043 -19.498 -37.975  0.00  0.00    +0.000 HD
ENDBRANCH  11  13
BRANCH  12  16
ATOM     16  C   UNL     1      46.166 -17.820 -38.666  0.00  0.00    +0.028 C 
BRANCH  16  17
ATOM     17  N   UNL     1      45.255 -17.987 -37.535  0.00  0.00    -0.268 N 
ATOM     18  H   UNL     1      44.520 -18.636 -37.813  0.00  0.00    +0.000 HD
ATOM     19  H   UNL     1      44.905 -17.056 -37.308  0.00  0.00    +0.000 HD
BRANCH  17  20
ATOM     20  C   UNL     1      45.886 -18.505 -36.302  0.00  0.00    +0.261 C 
ATOM     21  C   UNL     1      45.641 -17.535 -35.147  0.00  0.00    +0.020 C 
ATOM     22  C   UNL     1      46.877 -17.684 -34.293  0.00  0.00    +0.050 C 
ATOM     23  C   UNL     1      47.910 -18.059 -35.312  0.00  0.00    +0.309 C 
ATOM     24  O   UNL     1      49.114 -18.070 -35.124  0.00  0.00    -0.251 OA
ATOM     25  O   UNL     1      47.314 -18.422 -36.485  0.00  0.00    -0.434 OA
BRANCH  20  26
ATOM     26  C   UNL     1      45.525 -19.987 -35.890  0.00  0.00    +0.444 C 
ATOM     27  F   UNL     1      44.776 -20.592 -36.844  0.00  0.00    -0.165 F 
ATOM     28  F   UNL     1      44.816 -20.041 -34.741  0.00  0.00    -0.165 F 
ATOM     29  F   UNL     1      46.642 -20.733 -35.722  0.00  0.00    -0.165 F 
ENDBRANCH  20  26
ENDBRANCH  17  20
ENDBRANCH  16  17
ENDBRANCH  12  16
TORSDOF 5
ENDMDL
MODEL 8
REMARK VINA RESULT:    -7.182      3.425      4.599
REMARK INTER + INTRA:         -10.025
REMARK INTER:                  -9.077
REMARK INTRA:                  -0.948
REMARK UNBOUND:                -0.953
REMARK  Name = cpd232.pdb
REMARK  6 active torsions:
REMARK  status: ('A' for Active; 'I' for Inactive)
REMARK    1  A    between atoms: C_1  and  C_2
REMARK    2  A    between atoms: C_11  and  N_12
REMARK    3  A    between atoms: C_13  and  C_14
REMARK    4  A    between atoms: C_14  and  N_15
REMARK    5  A    between atoms: N_15  and  C_16
REMARK    6  A    between atoms: C_16  and  C_17
REMARK                            x       y       z     vdW  Elec       q    Type
REMARK                         _______ _______ _______ _____ _____    ______ ____
ROOT
ATOM      1  C   UNL     1      38.172 -33.901 -32.090  0.00  0.00    -0.022 C 
ATOM      2  C   UNL     1      38.942 -35.052 -31.504  0.00  0.00    +0.045 A 
ATOM      3  N   UNL     1      40.246 -35.092 -31.868  0.00  0.00    -0.251 NA
ATOM      4  C   UNL     1      41.017 -36.091 -31.431  0.00  0.00    +0.076 A 
ATOM      5  C   UNL     1      42.345 -36.106 -31.844  0.00  0.00    -0.035 A 
ATOM      6  C   UNL     1      43.233 -37.108 -31.451  0.00  0.00    -0.057 A 
ATOM      7  C   UNL     1      42.784 -38.121 -30.621  0.00  0.00    -0.026 A 
ATOM      8  C   UNL     1      41.456 -38.116 -30.200  0.00  0.00    +0.134 A 
ATOM      9  F   UNL     1      41.070 -39.098 -29.368  0.00  0.00    -0.205 F 
ATOM     10  C   UNL     1      40.538 -37.111 -30.590  0.00  0.00    +0.056 A 
ATOM     11  C   UNL     1      39.173 -37.044 -30.176  0.00  0.00    +0.043 A 
ATOM     12  C   UNL     1      38.351 -36.000 -30.655  0.00  0.00    +0.009 A 
ENDROOT
BRANCH  11  13
ATOM     13  N   UNL     1      38.610 -38.135 -29.479  0.00  0.00    -0.357 N 
ATOM     14  H   UNL     1      39.107 -38.981 -29.405  0.00  0.00    +0.000 HD
ATOM     15  H   UNL     1      37.720 -38.049 -29.067  0.00  0.00    +0.000 HD
ENDBRANCH  11  13
BRANCH  12  16
ATOM     16  C   UNL     1      36.887 -35.884 -30.285  0.00  0.00    +0.028 C 
BRANCH  16  17
ATOM     17  N   UNL     1      36.057 -36.821 -31.039  0.00  0.00    -0.268 N 
ATOM     18  H   UNL     1      36.673 -37.493 -31.496  0.00  0.00    +0.000 HD
ATOM     19  H   UNL     1      35.515 -36.259 -31.695  0.00  0.00    +0.000 HD
BRANCH  17  20
ATOM     20  C   UNL     1      35.076 -37.573 -30.227  0.00  0.00    +0.261 C 
ATOM     21  C   UNL     1      34.853 -36.861 -28.893  0.00  0.00    +0.020 C 
ATOM     22  C   UNL     1      34.567 -37.991 -27.933  0.00  0.00    +0.050 C 
ATOM     23  C   UNL     1      35.342 -39.118 -28.547  0.00  0.00    +0.309 C 
ATOM     24  O   UNL     1      35.589 -40.180 -28.005  0.00  0.00    -0.251 OA
ATOM     25  O   UNL     1      35.710 -38.804 -29.823  0.00  0.00    -0.434 OA
BRANCH  20  26
ATOM     26  C   UNL     1      33.703 -37.928 -30.922  0.00  0.00    +0.444 C 
ATOM     27  F   UNL     1      32.676 -37.253 -30.351  0.00  0.00    -0.165 F 
ATOM     28  F   UNL     1      33.408 -39.244 -30.831  0.00  0.00    -0.165 F 
ATOM     29  F   UNL     1      33.720 -37.599 -32.235  0.00  0.00    -0.165 F 
ENDBRANCH  20  26
ENDBRANCH  17  20
ENDBRANCH  16  17
ENDBRANCH  12  16
TORSDOF 5
ENDMDL
MODEL 9
REMARK VINA RESULT:    -7.077     17.054     18.343
REMARK INTER + INTRA:          -9.892
REMARK INTER:                  -8.856
REMARK INTRA:                  -1.036
REMARK UNBOUND:                -0.953
REMARK  Name = cpd232.pdb
REMARK  6 active torsions:
REMARK  status: ('A' for Active; 'I' for Inactive)
REMARK    1  A    between atoms: C_1  and  C_2
REMARK    2  A    between atoms: C_11  and  N_12
REMARK    3  A    between atoms: C_13  and  C_14
REMARK    4  A    between atoms: C_14  and  N_15
REMARK    5  A    between atoms: N_15  and  C_16
REMARK    6  A    between atoms: C_16  and  C_17
REMARK                            x       y       z     vdW  Elec       q    Type
REMARK                         _______ _______ _______ _____ _____    ______ ____
ROOT
ATOM      1  C   UNL     1      46.131 -20.000 -36.919  0.00  0.00    -0.022 C 
ATOM      2  C   UNL     1      45.972 -20.651 -38.266  0.00  0.00    +0.045 A 
ATOM      3  N   UNL     1      47.052 -21.356 -38.675  0.00  0.00    -0.251 NA
ATOM      4  C   UNL     1      47.032 -21.949 -39.872  0.00  0.00    +0.076 A 
ATOM      5  C   UNL     1      48.169 -22.647 -40.263  0.00  0.00    -0.035 A 
ATOM      6  C   UNL     1      48.255 -23.296 -41.495  0.00  0.00    -0.057 A 
ATOM      7  C   UNL     1      47.174 -23.251 -42.359  0.00  0.00    -0.026 A 
ATOM      8  C   UNL     1      46.029 -22.555 -41.978  0.00  0.00    +0.134 A 
ATOM      9  F   UNL     1      44.991 -22.564 -42.832  0.00  0.00    -0.205 F 
ATOM     10  C   UNL     1      45.923 -21.887 -40.734  0.00  0.00    +0.056 A 
ATOM     11  C   UNL     1      44.770 -21.175 -40.283  0.00  0.00    +0.043 A 
ATOM     12  C   UNL     1      44.799 -20.529 -39.028  0.00  0.00    +0.009 A 
ENDROOT
BRANCH  11  13
ATOM     13  N   UNL     1      43.707 -20.942 -41.183  0.00  0.00    -0.357 N 
ATOM     14  H   UNL     1      43.609 -20.060 -41.609  0.00  0.00    +0.000 HD
ATOM     15  H   UNL     1      43.066 -21.660 -41.384  0.00  0.00    +0.000 HD
ENDBRANCH  11  13
BRANCH  12  16
ATOM     16  C   UNL     1      43.625 -19.730 -38.498  0.00  0.00    +0.028 C 
BRANCH  16  17
ATOM     17  N   UNL     1      42.695 -20.565 -37.741  0.00  0.00    -0.268 N 
ATOM     18  H   UNL     1      42.618 -20.181 -36.799  0.00  0.00    +0.000 HD
ATOM     19  H   UNL     1      43.076 -21.511 -37.761  0.00  0.00    +0.000 HD
BRANCH  17  20
ATOM     20  C   UNL     1      41.334 -20.653 -38.313  0.00  0.00    +0.261 C 
ATOM     21  C   UNL     1      41.055 -19.424 -39.178  0.00  0.00    +0.020 C 
ATOM     22  C   UNL     1      39.569 -19.209 -39.016  0.00  0.00    +0.050 C 
ATOM     23  C   UNL     1      39.329 -19.755 -37.642  0.00  0.00    +0.309 C 
ATOM     24  O   UNL     1      38.312 -19.597 -36.989  0.00  0.00    -0.251 OA
ATOM     25  O   UNL     1      40.401 -20.488 -37.225  0.00  0.00    -0.434 OA
BRANCH  20  26
ATOM     26  C   UNL     1      40.971 -21.986 -39.078  0.00  0.00    +0.444 C 
ATOM     27  F   UNL     1      39.901 -22.598 -38.516  0.00  0.00    -0.165 F 
ATOM     28  F   UNL     1      41.986 -22.878 -39.063  0.00  0.00    -0.165 F 
ATOM     29  F   UNL     1      40.659 -21.738 -40.372  0.00  0.00    -0.165 F 
ENDBRANCH  20  26
ENDBRANCH  17  20
ENDBRANCH  16  17
ENDBRANCH  12  16
TORSDOF 5
ENDMDL
MODEL 10
REMARK VINA RESULT:    -7.015     14.575     15.998
REMARK INTER + INTRA:          -9.814
REMARK INTER:                  -9.123
REMARK INTRA:                  -0.691
REMARK UNBOUND:                -0.953
REMARK  Name = cpd232.pdb
REMARK  6 active torsions:
REMARK  status: ('A' for Active; 'I' for Inactive)
REMARK    1  A    between atoms: C_1  and  C_2
REMARK    2  A    between atoms: C_11  and  N_12
REMARK    3  A    between atoms: C_13  and  C_14
REMARK    4  A    between atoms: C_14  and  N_15
REMARK    5  A    between atoms: N_15  and  C_16
REMARK    6  A    between atoms: C_16  and  C_17
REMARK                            x       y       z     vdW  Elec       q    Type
REMARK                         _______ _______ _______ _____ _____    ______ ____
ROOT
ATOM      1  C   UNL     1      42.831 -20.091 -35.562  0.00  0.00    -0.022 C 
ATOM      2  C   UNL     1      42.512 -20.639 -36.926  0.00  0.00    +0.045 A 
ATOM      3  N   UNL     1      43.424 -20.330 -37.877  0.00  0.00    -0.251 NA
ATOM      4  C   UNL     1      43.225 -20.738 -39.133  0.00  0.00    +0.076 A 
ATOM      5  C   UNL     1      44.175 -20.382 -40.084  0.00  0.00    -0.035 A 
ATOM      6  C   UNL     1      44.059 -20.751 -41.424  0.00  0.00    -0.057 A 
ATOM      7  C   UNL     1      42.966 -21.500 -41.826  0.00  0.00    -0.026 A 
ATOM      8  C   UNL     1      42.008 -21.863 -40.882  0.00  0.00    +0.134 A 
ATOM      9  F   UNL     1      40.980 -22.618 -41.308  0.00  0.00    -0.205 F 
ATOM     10  C   UNL     1      42.105 -21.496 -39.519  0.00  0.00    +0.056 A 
ATOM     11  C   UNL     1      41.165 -21.854 -38.505  0.00  0.00    +0.043 A 
ATOM     12  C   UNL     1      41.364 -21.404 -37.182  0.00  0.00    +0.009 A 
ENDROOT
BRANCH  11  13
ATOM     13  N   UNL     1      39.945 -22.460 -38.879  0.00  0.00    -0.357 N 
ATOM     14  H   UNL     1      39.177 -22.440 -38.264  0.00  0.00    +0.000 HD
ATOM     15  H   UNL     1      39.864 -22.904 -39.754  0.00  0.00    +0.000 HD
ENDBRANCH  11  13
BRANCH  12  16
ATOM     16  C   UNL     1      40.393 -21.719 -36.062  0.00  0.00    +0.028 C 
BRANCH  16  17
ATOM     17  N   UNL     1      40.747 -22.952 -35.363  0.00  0.00    -0.268 N 
ATOM     18  H   UNL     1      41.763 -22.997 -35.294  0.00  0.00    +0.000 HD
ATOM     19  H   UNL     1      40.346 -23.716 -35.908  0.00  0.00    +0.000 HD
BRANCH  17  20
ATOM     20  C   UNL     1      40.187 -23.076 -34.000  0.00  0.00    +0.261 C 
ATOM     21  C   UNL     1      40.305 -21.739 -33.268  0.00  0.00    +0.020 C 
ATOM     22  C   UNL     1      40.495 -22.143 -31.826  0.00  0.00    +0.050 C 
ATOM     23  C   UNL     1      41.180 -23.468 -31.966  0.00  0.00    +0.309 C 
ATOM     24  O   UNL     1      41.729 -24.076 -31.064  0.00  0.00    -0.251 OA
ATOM     25  O   UNL     1      41.078 -23.925 -33.247  0.00  0.00    -0.434 OA
BRANCH  20  26
ATOM     26  C   UNL     1      38.726 -23.664 -33.884  0.00  0.00    +0.444 C 
ATOM     27  F   UNL     1      38.687 -24.713 -33.026  0.00  0.00    -0.165 F 
ATOM     28  F   UNL     1      38.257 -24.110 -35.070  0.00  0.00    -0.165 F 
ATOM     29  F   UNL     1      37.859 -22.733 -33.422  0.00  0.00    -0.165 F 
ENDBRANCH  20  26
ENDBRANCH  17  20
ENDBRANCH  16  17
ENDBRANCH  12  16
TORSDOF 5
ENDMDL
MODEL 11
REMARK VINA RESULT:    -6.982     17.838     19.806
REMARK INTER + INTRA:          -9.772
REMARK INTER:                  -8.825
REMARK INTRA:                  -0.947
REMARK UNBOUND:                -0.953
REMARK  Name = cpd232.pdb
REMARK  6 active torsions:
REMARK  status: ('A' for Active; 'I' for Inactive)
REMARK    1  A    between atoms: C_1  and  C_2
REMARK    2  A    between atoms: C_11  and  N_12
REMARK    3  A    between atoms: C_13  and  C_14
REMARK    4  A    between atoms: C_14  and  N_15
REMARK    5  A    between atoms: N_15  and  C_16
REMARK    6  A    between atoms: C_16  and  C_17
REMARK                            x       y       z     vdW  Elec       q    Type
REMARK                         _______ _______ _______ _____ _____    ______ ____
ROOT
ATOM      1  C   UNL     1      47.847 -19.031 -35.704  0.00  0.00    -0.022 C 
ATOM      2  C   UNL     1      46.440 -19.495 -35.965  0.00  0.00    +0.045 A 
ATOM      3  N   UNL     1      45.648 -19.515 -34.868  0.00  0.00    -0.251 NA
ATOM      4  C   UNL     1      44.387 -19.941 -34.979  0.00  0.00    +0.076 A 
ATOM      5  C   UNL     1      43.612 -19.964 -33.824  0.00  0.00    -0.035 A 
ATOM      6  C   UNL     1      42.286 -20.398 -33.828  0.00  0.00    -0.057 A 
ATOM      7  C   UNL     1      41.716 -20.817 -35.019  0.00  0.00    -0.026 A 
ATOM      8  C   UNL     1      42.482 -20.797 -36.182  0.00  0.00    +0.134 A 
ATOM      9  F   UNL     1      41.881 -21.180 -37.322  0.00  0.00    -0.205 F 
ATOM     10  C   UNL     1      43.830 -20.364 -36.199  0.00  0.00    +0.056 A 
ATOM     11  C   UNL     1      44.656 -20.305 -37.362  0.00  0.00    +0.043 A 
ATOM     12  C   UNL     1      45.996 -19.875 -37.241  0.00  0.00    +0.009 A 
ENDROOT
BRANCH  11  13
ATOM     13  N   UNL     1      44.196 -20.881 -38.565  0.00  0.00    -0.357 N 
ATOM     14  H   UNL     1      43.512 -21.588 -38.542  0.00  0.00    +0.000 HD
ATOM     15  H   UNL     1      44.559 -20.575 -39.428  0.00  0.00    +0.000 HD
ENDBRANCH  11  13
BRANCH  12  16
ATOM     16  C   UNL     1      46.940 -19.816 -38.425  0.00  0.00    +0.028 C 
BRANCH  16  17
ATOM     17  N   UNL     1      47.478 -21.133 -38.760  0.00  0.00    -0.268 N 
ATOM     18  H   UNL     1      46.927 -21.836 -38.267  0.00  0.00    +0.000 HD
ATOM     19  H   UNL     1      48.459 -21.122 -38.480  0.00  0.00    +0.000 HD
BRANCH  17  20
ATOM     20  C   UNL     1      47.461 -21.462 -40.201  0.00  0.00    +0.261 C 
ATOM     21  C   UNL     1      47.273 -20.187 -41.022  0.00  0.00    +0.020 C 
ATOM     22  C   UNL     1      46.499 -20.656 -42.230  0.00  0.00    +0.050 C 
ATOM     23  C   UNL     1      45.731 -21.815 -41.671  0.00  0.00    +0.309 C 
ATOM     24  O   UNL     1      44.800 -22.375 -42.224  0.00  0.00    -0.251 OA
ATOM     25  O   UNL     1      46.239 -22.184 -40.460  0.00  0.00    -0.434 OA
BRANCH  20  26
ATOM     26  C   UNL     1      48.668 -22.321 -40.748  0.00  0.00    +0.444 C 
ATOM     27  F   UNL     1      48.251 -23.540 -41.171  0.00  0.00    -0.165 F 
ATOM     28  F   UNL     1      49.613 -22.535 -39.805  0.00  0.00    -0.165 F 
ATOM     29  F   UNL     1      49.265 -21.713 -41.799  0.00  0.00    -0.165 F 
ENDBRANCH  20  26
ENDBRANCH  17  20
ENDBRANCH  16  17
ENDBRANCH  12  16
TORSDOF 5
ENDMDL
MODEL 12
REMARK VINA RESULT:    -6.880     16.611     18.491
REMARK INTER + INTRA:          -9.643
REMARK INTER:                  -9.002
REMARK INTRA:                  -0.641
REMARK UNBOUND:                -0.953
REMARK  Name = cpd232.pdb
REMARK  6 active torsions:
REMARK  status: ('A' for Active; 'I' for Inactive)
REMARK    1  A    between atoms: C_1  and  C_2
REMARK    2  A    between atoms: C_11  and  N_12
REMARK    3  A    between atoms: C_13  and  C_14
REMARK    4  A    between atoms: C_14  and  N_15
REMARK    5  A    between atoms: N_15  and  C_16
REMARK    6  A    between atoms: C_16  and  C_17
REMARK                            x       y       z     vdW  Elec       q    Type
REMARK                         _______ _______ _______ _____ _____    ______ ____
ROOT
ATOM      1  C   UNL     1      41.255 -22.055 -40.476  0.00  0.00    -0.022 C 
ATOM      2  C   UNL     1      41.334 -21.956 -38.978  0.00  0.00    +0.045 A 
ATOM      3  N   UNL     1      40.331 -22.585 -38.323  0.00  0.00    -0.251 NA
ATOM      4  C   UNL     1      40.285 -22.534 -36.989  0.00  0.00    +0.076 A 
ATOM      5  C   UNL     1      39.226 -23.177 -36.357  0.00  0.00    -0.035 A 
ATOM      6  C   UNL     1      39.081 -23.178 -34.970  0.00  0.00    -0.057 A 
ATOM      7  C   UNL     1      40.019 -22.522 -34.191  0.00  0.00    -0.026 A 
ATOM      8  C   UNL     1      41.084 -21.874 -34.814  0.00  0.00    +0.134 A 
ATOM      9  F   UNL     1      41.991 -21.278 -34.020  0.00  0.00    -0.205 F 
ATOM     10  C   UNL     1      41.249 -21.858 -36.220  0.00  0.00    +0.056 A 
ATOM     11  C   UNL     1      42.328 -21.228 -36.911  0.00  0.00    +0.043 A 
ATOM     12  C   UNL     1      42.365 -21.264 -38.322  0.00  0.00    +0.009 A 
ENDROOT
BRANCH  11  13
ATOM     13  N   UNL     1      43.215 -20.397 -36.193  0.00  0.00    -0.357 N 
ATOM     14  H   UNL     1      42.943 -20.021 -35.325  0.00  0.00    +0.000 HD
ATOM     15  H   UNL     1      44.105 -20.193 -36.560  0.00  0.00    +0.000 HD
ENDBRANCH  11  13
BRANCH  12  16
ATOM     16  C   UNL     1      43.461 -20.591 -39.123  0.00  0.00    +0.028 C 
BRANCH  16  17
ATOM     17  N   UNL     1      44.659 -21.423 -39.216  0.00  0.00    -0.268 N 
ATOM     18  H   UNL     1      44.375 -22.399 -39.125  0.00  0.00    +0.000 HD
ATOM     19  H   UNL     1      45.281 -21.114 -38.469  0.00  0.00    +0.000 HD
BRANCH  17  20
ATOM     20  C   UNL     1      45.418 -21.280 -40.476  0.00  0.00    +0.261 C 
ATOM     21  C   UNL     1      44.457 -21.298 -41.665  0.00  0.00    +0.020 C 
ATOM     22  C   UNL     1      45.268 -21.941 -42.764  0.00  0.00    +0.050 C 
ATOM     23  C   UNL     1      46.188 -22.832 -41.985  0.00  0.00    +0.309 C 
ATOM     24  O   UNL     1      46.881 -23.715 -42.459  0.00  0.00    -0.251 OA
ATOM     25  O   UNL     1      46.170 -22.497 -40.663  0.00  0.00    -0.434 OA
BRANCH  20  26
ATOM     26  C   UNL     1      46.418 -20.061 -40.567  0.00  0.00    +0.444 C 
ATOM     27  F   UNL     1      46.647 -19.522 -39.345  0.00  0.00    -0.165 F 
ATOM     28  F   UNL     1      45.946 -19.068 -41.353  0.00  0.00    -0.165 F 
ATOM     29  F   UNL     1      47.615 -20.448 -41.067  0.00  0.00    -0.165 F 
ENDBRANCH  20  26
ENDBRANCH  17  20
ENDBRANCH  16  17
ENDBRANCH  12  16
TORSDOF 5
ENDMDL
MODEL 13
REMARK VINA RESULT:    -6.878     15.489     16.831
REMARK INTER + INTRA:          -9.640
REMARK INTER:                  -8.949
REMARK INTRA:                  -0.692
REMARK UNBOUND:                -0.953
REMARK  Name = cpd232.pdb
REMARK  6 active torsions:
REMARK  status: ('A' for Active; 'I' for Inactive)
REMARK    1  A    between atoms: C_1  and  C_2
REMARK    2  A    between atoms: C_11  and  N_12
REMARK    3  A    between atoms: C_13  and  C_14
REMARK    4  A    between atoms: C_14  and  N_15
REMARK    5  A    between atoms: N_15  and  C_16
REMARK    6  A    between atoms: C_16  and  C_17
REMARK                            x       y       z     vdW  Elec       q    Type
REMARK                         _______ _______ _______ _____ _____    ______ ____
ROOT
ATOM      1  C   UNL     1      44.498 -19.724 -36.050  0.00  0.00    -0.022 C 
ATOM      2  C   UNL     1      44.036 -20.238 -37.386  0.00  0.00    +0.045 A 
ATOM      3  N   UNL     1      44.968 -20.160 -38.365  0.00  0.00    -0.251 NA
ATOM      4  C   UNL     1      44.655 -20.559 -39.600  0.00  0.00    +0.076 A 
ATOM      5  C   UNL     1      45.634 -20.443 -40.581  0.00  0.00    -0.035 A 
ATOM      6  C   UNL     1      45.408 -20.824 -41.904  0.00  0.00    -0.057 A 
ATOM      7  C   UNL     1      44.172 -21.339 -42.257  0.00  0.00    -0.026 A 
ATOM      8  C   UNL     1      43.184 -21.461 -41.283  0.00  0.00    +0.134 A 
ATOM      9  F   UNL     1      42.010 -21.995 -41.660  0.00  0.00    -0.205 F 
ATOM     10  C   UNL     1      43.391 -21.076 -39.936  0.00  0.00    +0.056 A 
ATOM     11  C   UNL     1      42.423 -21.195 -38.893  0.00  0.00    +0.043 A 
ATOM     12  C   UNL     1      42.746 -20.752 -37.591  0.00  0.00    +0.009 A 
ENDROOT
BRANCH  11  13
ATOM     13  N   UNL     1      41.095 -21.542 -39.220  0.00  0.00    -0.357 N 
ATOM     14  H   UNL     1      40.354 -21.257 -38.639  0.00  0.00    +0.000 HD
ATOM     15  H   UNL     1      40.909 -22.071 -40.030  0.00  0.00    +0.000 HD
ENDBRANCH  11  13
BRANCH  12  16
ATOM     16  C   UNL     1      41.760 -20.817 -36.443  0.00  0.00    +0.028 C 
BRANCH  16  17
ATOM     17  N   UNL     1      41.672 -22.161 -35.875  0.00  0.00    -0.268 N 
ATOM     18  H   UNL     1      42.529 -22.341 -35.352  0.00  0.00    +0.000 HD
ATOM     19  H   UNL     1      41.539 -22.797 -36.661  0.00  0.00    +0.000 HD
BRANCH  17  20
ATOM     20  C   UNL     1      40.525 -22.377 -34.967  0.00  0.00    +0.261 C 
ATOM     21  C   UNL     1      40.373 -21.178 -34.030  0.00  0.00    +0.020 C 
ATOM     22  C   UNL     1      39.827 -21.790 -32.762  0.00  0.00    +0.050 C 
ATOM     23  C   UNL     1      40.404 -23.172 -32.815  0.00  0.00    +0.309 C 
ATOM     24  O   UNL     1      40.416 -23.966 -31.890  0.00  0.00    -0.251 OA
ATOM     25  O   UNL     1      40.891 -23.438 -34.061  0.00  0.00    -0.434 OA
BRANCH  20  26
ATOM     26  C   UNL     1      39.148 -22.754 -35.641  0.00  0.00    +0.444 C 
ATOM     27  F   UNL     1      38.254 -21.741 -35.530  0.00  0.00    -0.165 F 
ATOM     28  F   UNL     1      38.581 -23.842 -35.074  0.00  0.00    -0.165 F 
ATOM     29  F   UNL     1      39.304 -23.011 -36.961  0.00  0.00    -0.165 F 
ENDBRANCH  20  26
ENDBRANCH  17  20
ENDBRANCH  16  17
ENDBRANCH  12  16
TORSDOF 5
ENDMDL
MODEL 14
REMARK VINA RESULT:    -6.834      2.088      3.089
REMARK INTER + INTRA:          -9.585
REMARK INTER:                  -9.027
REMARK INTRA:                  -0.558
REMARK UNBOUND:                -0.953
REMARK  Name = cpd232.pdb
REMARK  6 active torsions:
REMARK  status: ('A' for Active; 'I' for Inactive)
REMARK    1  A    between atoms: C_1  and  C_2
REMARK    2  A    between atoms: C_11  and  N_12
REMARK    3  A    between atoms: C_13  and  C_14
REMARK    4  A    between atoms: C_14  and  N_15
REMARK    5  A    between atoms: N_15  and  C_16
REMARK    6  A    between atoms: C_16  and  C_17
REMARK                            x       y       z     vdW  Elec       q    Type
REMARK                         _______ _______ _______ _____ _____    ______ ____
ROOT
ATOM      1  C   UNL     1      35.942 -35.144 -31.753  0.00  0.00    -0.022 C 
ATOM      2  C   UNL     1      37.171 -35.837 -31.233  0.00  0.00    +0.045 A 
ATOM      3  N   UNL     1      38.302 -35.556 -31.921  0.00  0.00    -0.251 NA
ATOM      4  C   UNL     1      39.448 -36.142 -31.566  0.00  0.00    +0.076 A 
ATOM      5  C   UNL     1      40.583 -35.841 -32.312  0.00  0.00    -0.035 A 
ATOM      6  C   UNL     1      41.828 -36.404 -32.029  0.00  0.00    -0.057 A 
ATOM      7  C   UNL     1      41.944 -37.290 -30.971  0.00  0.00    -0.026 A 
ATOM      8  C   UNL     1      40.815 -37.599 -30.217  0.00  0.00    +0.134 A 
ATOM      9  F   UNL     1      40.977 -38.437 -29.179  0.00  0.00    -0.205 F 
ATOM     10  C   UNL     1      39.542 -37.041 -30.489  0.00  0.00    +0.056 A 
ATOM     11  C   UNL     1      38.355 -37.306 -29.740  0.00  0.00    +0.043 A 
ATOM     12  C   UNL     1      37.139 -36.703 -30.129  0.00  0.00    +0.009 A 
ENDROOT
BRANCH  11  13
ATOM     13  N   UNL     1      38.367 -38.329 -28.767  0.00  0.00    -0.357 N 
ATOM     14  H   UNL     1      38.673 -38.135 -27.853  0.00  0.00    +0.000 HD
ATOM     15  H   UNL     1      38.070 -39.237 -29.004  0.00  0.00    +0.000 HD
ENDBRANCH  11  13
BRANCH  12  16
ATOM     16  C   UNL     1      35.835 -36.962 -29.402  0.00  0.00    +0.028 C 
BRANCH  16  17
ATOM     17  N   UNL     1      35.374 -35.784 -28.671  0.00  0.00    -0.268 N 
ATOM     18  H   UNL     1      35.868 -34.970 -29.038  0.00  0.00    +0.000 HD
ATOM     19  H   UNL     1      35.568 -35.963 -27.686  0.00  0.00    +0.000 HD
BRANCH  17  20
ATOM     20  C   UNL     1      33.922 -35.522 -28.768  0.00  0.00    +0.261 C 
ATOM     21  C   UNL     1      33.220 -36.023 -27.505  0.00  0.00    +0.020 C 
ATOM     22  C   UNL     1      31.861 -36.452 -28.004  0.00  0.00    +0.050 C 
ATOM     23  C   UNL     1      32.166 -36.854 -29.415  0.00  0.00    +0.309 C 
ATOM     24  O   UNL     1      31.416 -37.476 -30.148  0.00  0.00    -0.251 OA
ATOM     25  O   UNL     1      33.397 -36.398 -29.787  0.00  0.00    -0.434 OA
BRANCH  20  26
ATOM     26  C   UNL     1      33.489 -34.044 -29.115  0.00  0.00    +0.444 C 
ATOM     27  F   UNL     1      34.559 -33.213 -29.143  0.00  0.00    -0.165 F 
ATOM     28  F   UNL     1      32.623 -33.537 -28.209  0.00  0.00    -0.165 F 
ATOM     29  F   UNL     1      32.897 -33.980 -30.331  0.00  0.00    -0.165 F 
ENDBRANCH  20  26
ENDBRANCH  17  20
ENDBRANCH  16  17
ENDBRANCH  12  16
TORSDOF 5
ENDMDL
MODEL 15
REMARK VINA RESULT:    -6.545     15.733     17.086
REMARK INTER + INTRA:          -9.220
REMARK INTER:                  -8.198
REMARK INTRA:                  -1.023
REMARK UNBOUND:                -0.953
REMARK  Name = cpd232.pdb
REMARK  6 active torsions:
REMARK  status: ('A' for Active; 'I' for Inactive)
REMARK    1  A    between atoms: C_1  and  C_2
REMARK    2  A    between atoms: C_11  and  N_12
REMARK    3  A    between atoms: C_13  and  C_14
REMARK    4  A    between atoms: C_14  and  N_15
REMARK    5  A    between atoms: N_15  and  C_16
REMARK    6  A    between atoms: C_16  and  C_17
REMARK                            x       y       z     vdW  Elec       q    Type
REMARK                         _______ _______ _______ _____ _____    ______ ____
ROOT
ATOM      1  C   UNL     1      40.890 -18.660 -35.659  0.00  0.00    -0.022 C 
ATOM      2  C   UNL     1      42.367 -18.886 -35.493  0.00  0.00    +0.045 A 
ATOM      3  N   UNL     1      43.141 -18.149 -36.324  0.00  0.00    -0.251 NA
ATOM      4  C   UNL     1      44.468 -18.295 -36.284  0.00  0.00    +0.076 A 
ATOM      5  C   UNL     1      45.225 -17.533 -37.168  0.00  0.00    -0.035 A 
ATOM      6  C   UNL     1      46.617 -17.615 -37.214  0.00  0.00    -0.057 A 
ATOM      7  C   UNL     1      47.272 -18.478 -36.351  0.00  0.00    -0.026 A 
ATOM      8  C   UNL     1      46.524 -19.245 -35.461  0.00  0.00    +0.134 A 
ATOM      9  F   UNL     1      47.201 -20.045 -34.619  0.00  0.00    -0.205 F 
ATOM     10  C   UNL     1      45.111 -19.180 -35.401  0.00  0.00    +0.056 A 
ATOM     11  C   UNL     1      44.295 -19.928 -34.499  0.00  0.00    +0.043 A 
ATOM     12  C   UNL     1      42.891 -19.790 -34.555  0.00  0.00    +0.009 A 
ENDROOT
BRANCH  11  13
ATOM     13  N   UNL     1      44.883 -20.949 -33.721  0.00  0.00    -0.357 N 
ATOM     14  H   UNL     1      45.331 -21.706 -34.162  0.00  0.00    +0.000 HD
ATOM     15  H   UNL     1      44.845 -20.904 -32.739  0.00  0.00    +0.000 HD
ENDBRANCH  11  13
BRANCH  12  16
ATOM     16  C   UNL     1      41.961 -20.574 -33.651  0.00  0.00    +0.028 C 
BRANCH  16  17
ATOM     17  N   UNL     1      41.728 -21.927 -34.150  0.00  0.00    -0.268 N 
ATOM     18  H   UNL     1      42.070 -22.587 -33.450  0.00  0.00    +0.000 HD
ATOM     19  H   UNL     1      42.220 -21.994 -35.040  0.00  0.00    +0.000 HD
BRANCH  17  20
ATOM     20  C   UNL     1      40.312 -22.249 -34.432  0.00  0.00    +0.261 C 
ATOM     21  C   UNL     1      39.401 -21.382 -33.564  0.00  0.00    +0.020 C 
ATOM     22  C   UNL     1      38.203 -22.269 -33.316  0.00  0.00    +0.050 C 
ATOM     23  C   UNL     1      38.816 -23.635 -33.374  0.00  0.00    +0.309 C 
ATOM     24  O   UNL     1      38.274 -24.666 -33.015  0.00  0.00    -0.251 OA
ATOM     25  O   UNL     1      40.065 -23.575 -33.920  0.00  0.00    -0.434 OA
BRANCH  20  26
ATOM     26  C   UNL     1      39.865 -22.212 -35.946  0.00  0.00    +0.444 C 
ATOM     27  F   UNL     1      40.897 -21.867 -36.754  0.00  0.00    -0.165 F 
ATOM     28  F   UNL     1      38.877 -21.317 -36.167  0.00  0.00    -0.165 F 
ATOM     29  F   UNL     1      39.422 -23.424 -36.355  0.00  0.00    -0.165 F 
ENDBRANCH  20  26
ENDBRANCH  17  20
ENDBRANCH  16  17
ENDBRANCH  12  16
TORSDOF 5
ENDMDL
MODEL 16
REMARK VINA RESULT:    -6.366     24.895     28.382
REMARK INTER + INTRA:          -8.994
REMARK INTER:                  -7.881
REMARK INTRA:                  -1.113
REMARK UNBOUND:                -0.953
REMARK  Name = cpd232.pdb
REMARK  6 active torsions:
REMARK  status: ('A' for Active; 'I' for Inactive)
REMARK    1  A    between atoms: C_1  and  C_2
REMARK    2  A    between atoms: C_11  and  N_12
REMARK    3  A    between atoms: C_13  and  C_14
REMARK    4  A    between atoms: C_14  and  N_15
REMARK    5  A    between atoms: N_15  and  C_16
REMARK    6  A    between atoms: C_16  and  C_17
REMARK                            x       y       z     vdW  Elec       q    Type
REMARK                         _______ _______ _______ _____ _____    ______ ____
ROOT
ATOM      1  C   UNL     1      54.463 -38.180 -50.422  0.00  0.00    -0.022 C 
ATOM      2  C   UNL     1      54.939 -37.030 -49.578  0.00  0.00    +0.045 A 
ATOM      3  N   UNL     1      54.384 -36.977 -48.345  0.00  0.00    -0.251 NA
ATOM      4  C   UNL     1      54.711 -35.977 -47.522  0.00  0.00    +0.076 A 
ATOM      5  C   UNL     1      54.102 -35.947 -46.272  0.00  0.00    -0.035 A 
ATOM      6  C   UNL     1      54.368 -34.944 -45.340  0.00  0.00    -0.057 A 
ATOM      7  C   UNL     1      55.270 -33.943 -45.664  0.00  0.00    -0.026 A 
ATOM      8  C   UNL     1      55.886 -33.963 -46.913  0.00  0.00    +0.134 A 
ATOM      9  F   UNL     1      56.779 -32.992 -47.174  0.00  0.00    -0.205 F 
ATOM     10  C   UNL     1      55.627 -34.970 -47.874  0.00  0.00    +0.056 A 
ATOM     11  C   UNL     1      56.242 -35.051 -49.160  0.00  0.00    +0.043 A 
ATOM     12  C   UNL     1      55.879 -36.095 -50.039  0.00  0.00    +0.009 A 
ENDROOT
BRANCH  11  13
ATOM     13  N   UNL     1      57.029 -33.972 -49.618  0.00  0.00    -0.357 N 
ATOM     14  H   UNL     1      57.064 -33.135 -49.102  0.00  0.00    +0.000 HD
ATOM     15  H   UNL     1      57.543 -34.057 -50.453  0.00  0.00    +0.000 HD
ENDBRANCH  11  13
BRANCH  12  16
ATOM     16  C   UNL     1      56.466 -36.227 -51.430  0.00  0.00    +0.028 C 
BRANCH  16  17
ATOM     17  N   UNL     1      55.656 -35.536 -52.431  0.00  0.00    -0.268 N 
ATOM     18  H   UNL     1      54.835 -35.150 -51.964  0.00  0.00    +0.000 HD
ATOM     19  H   UNL     1      55.426 -36.230 -53.143  0.00  0.00    +0.000 HD
BRANCH  17  20
ATOM     20  C   UNL     1      56.346 -34.433 -53.134  0.00  0.00    +0.261 C 
ATOM     21  C   UNL     1      56.374 -34.713 -54.636  0.00  0.00    +0.020 C 
ATOM     22  C   UNL     1      57.668 -34.080 -55.089  0.00  0.00    +0.050 C 
ATOM     23  C   UNL     1      58.514 -34.197 -53.857  0.00  0.00    +0.309 C 
ATOM     24  O   UNL     1      59.718 -34.017 -53.810  0.00  0.00    -0.251 OA
ATOM     25  O   UNL     1      57.742 -34.505 -52.776  0.00  0.00    -0.434 OA
BRANCH  20  26
ATOM     26  C   UNL     1      55.833 -32.970 -52.834  0.00  0.00    +0.444 C 
ATOM     27  F   UNL     1      54.882 -32.972 -51.868  0.00  0.00    -0.165 F 
ATOM     28  F   UNL     1      55.285 -32.386 -53.923  0.00  0.00    -0.165 F 
ATOM     29  F   UNL     1      56.842 -32.176 -52.405  0.00  0.00    -0.165 F 
ENDBRANCH  20  26
ENDBRANCH  17  20
ENDBRANCH  16  17
ENDBRANCH  12  16
TORSDOF 5
ENDMDL
MODEL 17
REMARK VINA RESULT:    -6.342     38.409     40.411
REMARK INTER + INTRA:          -8.963
REMARK INTER:                  -8.083
REMARK INTRA:                  -0.880
REMARK UNBOUND:                -0.953
REMARK  Name = cpd232.pdb
REMARK  6 active torsions:
REMARK  status: ('A' for Active; 'I' for Inactive)
REMARK    1  A    between atoms: C_1  and  C_2
REMARK    2  A    between atoms: C_11  and  N_12
REMARK    3  A    between atoms: C_13  and  C_14
REMARK    4  A    between atoms: C_14  and  N_15
REMARK    5  A    between atoms: N_15  and  C_16
REMARK    6  A    between atoms: C_16  and  C_17
REMARK                            x       y       z     vdW  Elec       q    Type
REMARK                         _______ _______ _______ _____ _____    ______ ____
ROOT
ATOM      1  C   UNL     1      64.286 -24.721  -3.736  0.00  0.00    -0.022 C 
ATOM      2  C   UNL     1      64.794 -23.306  -3.695  0.00  0.00    +0.045 A 
ATOM      3  N   UNL     1      65.657 -23.053  -2.683  0.00  0.00    -0.251 NA
ATOM      4  C   UNL     1      66.146 -21.819  -2.533  0.00  0.00    +0.076 A 
ATOM      5  C   UNL     1      67.014 -21.597  -1.469  0.00  0.00    -0.035 A 
ATOM      6  C   UNL     1      67.575 -20.345  -1.218  0.00  0.00    -0.057 A 
ATOM      7  C   UNL     1      67.264 -19.285  -2.054  0.00  0.00    -0.026 A 
ATOM      8  C   UNL     1      66.397 -19.496  -3.123  0.00  0.00    +0.134 A 
ATOM      9  F   UNL     1      66.147 -18.450  -3.929  0.00  0.00    -0.205 F 
ATOM     10  C   UNL     1      65.814 -20.758  -3.393  0.00  0.00    +0.056 A 
ATOM     11  C   UNL     1      64.934 -21.037  -4.483  0.00  0.00    +0.043 A 
ATOM     12  C   UNL     1      64.399 -22.336  -4.629  0.00  0.00    +0.009 A 
ENDROOT
BRANCH  11  13
ATOM     13  N   UNL     1      64.440 -19.968  -5.261  0.00  0.00    -0.357 N 
ATOM     14  H   UNL     1      64.938 -19.666  -6.054  0.00  0.00    +0.000 HD
ATOM     15  H   UNL     1      63.597 -19.525  -5.011  0.00  0.00    +0.000 HD
ENDBRANCH  11  13
BRANCH  12  16
ATOM     16  C   UNL     1      63.436 -22.697  -5.742  0.00  0.00    +0.028 C 
BRANCH  16  17
ATOM     17  N   UNL     1      64.107 -22.789  -7.036  0.00  0.00    -0.268 N 
ATOM     18  H   UNL     1      65.090 -22.550  -6.902  0.00  0.00    +0.000 HD
ATOM     19  H   UNL     1      63.618 -22.147  -7.660  0.00  0.00    +0.000 HD
BRANCH  17  20
ATOM     20  C   UNL     1      64.041 -24.121  -7.676  0.00  0.00    +0.261 C 
ATOM     21  C   UNL     1      62.851 -24.904  -7.121  0.00  0.00    +0.020 C 
ATOM     22  C   UNL     1      63.320 -26.338  -7.168  0.00  0.00    +0.050 C 
ATOM     23  C   UNL     1      64.801 -26.182  -7.003  0.00  0.00    +0.309 C 
ATOM     24  O   UNL     1      65.582 -27.086  -6.761  0.00  0.00    -0.251 OA
ATOM     25  O   UNL     1      65.168 -24.883  -7.195  0.00  0.00    -0.434 OA
BRANCH  20  26
ATOM     26  C   UNL     1      64.060 -24.152  -9.254  0.00  0.00    +0.444 C 
ATOM     27  F   UNL     1      65.197 -24.724  -9.720  0.00  0.00    -0.165 F 
ATOM     28  F   UNL     1      63.994 -22.914  -9.792  0.00  0.00    -0.165 F 
ATOM     29  F   UNL     1      63.020 -24.868  -9.742  0.00  0.00    -0.165 F 
ENDBRANCH  20  26
ENDBRANCH  17  20
ENDBRANCH  16  17
ENDBRANCH  12  16
TORSDOF 5
ENDMDL
MODEL 18
REMARK VINA RESULT:    -6.244      3.691      4.706
REMARK INTER + INTRA:          -8.840
REMARK INTER:                  -8.013
REMARK INTRA:                  -0.827
REMARK UNBOUND:                -0.953
REMARK  Name = cpd232.pdb
REMARK  6 active torsions:
REMARK  status: ('A' for Active; 'I' for Inactive)
REMARK    1  A    between atoms: C_1  and  C_2
REMARK    2  A    between atoms: C_11  and  N_12
REMARK    3  A    between atoms: C_13  and  C_14
REMARK    4  A    between atoms: C_14  and  N_15
REMARK    5  A    between atoms: N_15  and  C_16
REMARK    6  A    between atoms: C_16  and  C_17
REMARK                            x       y       z     vdW  Elec       q    Type
REMARK                         _______ _______ _______ _____ _____    ______ ____
ROOT
ATOM      1  C   UNL     1      34.015 -36.160 -30.062  0.00  0.00    -0.022 C 
ATOM      2  C   UNL     1      35.453 -36.561 -29.875  0.00  0.00    +0.045 A 
ATOM      3  N   UNL     1      36.309 -35.994 -30.757  0.00  0.00    -0.251 NA
ATOM      4  C   UNL     1      37.607 -36.306 -30.703  0.00  0.00    +0.076 A 
ATOM      5  C   UNL     1      38.449 -35.716 -31.640  0.00  0.00    -0.035 A 
ATOM      6  C   UNL     1      39.819 -35.978 -31.676  0.00  0.00    -0.057 A 
ATOM      7  C   UNL     1      40.363 -36.851 -30.748  0.00  0.00    -0.026 A 
ATOM      8  C   UNL     1      39.530 -37.446 -29.804  0.00  0.00    +0.134 A 
ATOM      9  F   UNL     1      40.104 -38.260 -28.902  0.00  0.00    -0.205 F 
ATOM     10  C   UNL     1      38.137 -37.196 -29.753  0.00  0.00    +0.056 A 
ATOM     11  C   UNL     1      37.238 -37.763 -28.800  0.00  0.00    +0.043 A 
ATOM     12  C   UNL     1      35.863 -37.451 -28.870  0.00  0.00    +0.009 A 
ENDROOT
BRANCH  11  13
ATOM     13  N   UNL     1      37.696 -38.790 -27.946  0.00  0.00    -0.357 N 
ATOM     14  H   UNL     1      38.150 -38.563 -27.103  0.00  0.00    +0.000 HD
ATOM     15  H   UNL     1      37.560 -39.733 -28.193  0.00  0.00    +0.000 HD
ENDBRANCH  11  13
BRANCH  12  16
ATOM     16  C   UNL     1      34.846 -38.039 -27.912  0.00  0.00    +0.028 C 
BRANCH  16  17
ATOM     17  N   UNL     1      34.778 -37.288 -26.660  0.00  0.00    -0.268 N 
ATOM     18  H   UNL     1      35.264 -36.401 -26.796  0.00  0.00    +0.000 HD
ATOM     19  H   UNL     1      35.209 -37.879 -25.948  0.00  0.00    +0.000 HD
BRANCH  17  20
ATOM     20  C   UNL     1      33.409 -36.995 -26.186  0.00  0.00    +0.261 C 
ATOM     21  C   UNL     1      32.421 -37.977 -26.816  0.00  0.00    +0.020 C 
ATOM     22  C   UNL     1      31.154 -37.166 -26.949  0.00  0.00    +0.050 C 
ATOM     23  C   UNL     1      31.695 -35.778 -27.111  0.00  0.00    +0.309 C 
ATOM     24  O   UNL     1      31.050 -34.808 -27.471  0.00  0.00    -0.251 OA
ATOM     25  O   UNL     1      33.015 -35.736 -26.769  0.00  0.00    -0.434 OA
BRANCH  20  26
ATOM     26  C   UNL     1      33.204 -36.903 -24.623  0.00  0.00    +0.444 C 
ATOM     27  F   UNL     1      32.125 -37.620 -24.226  0.00  0.00    -0.165 F 
ATOM     28  F   UNL     1      33.006 -35.632 -24.206  0.00  0.00    -0.165 F 
ATOM     29  F   UNL     1      34.278 -37.391 -23.959  0.00  0.00    -0.165 F 
ENDBRANCH  20  26
ENDBRANCH  17  20
ENDBRANCH  16  17
ENDBRANCH  12  16
TORSDOF 5
ENDMDL
MODEL 19
REMARK VINA RESULT:    -6.182      2.225      3.110
REMARK INTER + INTRA:          -8.761
REMARK INTER:                  -7.853
REMARK INTRA:                  -0.908
REMARK UNBOUND:                -0.953
REMARK  Name = cpd232.pdb
REMARK  6 active torsions:
REMARK  status: ('A' for Active; 'I' for Inactive)
REMARK    1  A    between atoms: C_1  and  C_2
REMARK    2  A    between atoms: C_11  and  N_12
REMARK    3  A    between atoms: C_13  and  C_14
REMARK    4  A    between atoms: C_14  and  N_15
REMARK    5  A    between atoms: N_15  and  C_16
REMARK    6  A    between atoms: C_16  and  C_17
REMARK                            x       y       z     vdW  Elec       q    Type
REMARK                         _______ _______ _______ _____ _____    ______ ____
ROOT
ATOM      1  C   UNL     1      32.585 -37.312 -30.775  0.00  0.00    -0.022 C 
ATOM      2  C   UNL     1      34.076 -37.124 -30.710  0.00  0.00    +0.045 A 
ATOM      3  N   UNL     1      34.720 -38.038 -29.948  0.00  0.00    -0.251 NA
ATOM      4  C   UNL     1      36.044 -37.946 -29.794  0.00  0.00    +0.076 A 
ATOM      5  C   UNL     1      36.665 -38.893 -28.987  0.00  0.00    -0.035 A 
ATOM      6  C   UNL     1      38.040 -38.883 -28.754  0.00  0.00    -0.057 A 
ATOM      7  C   UNL     1      38.818 -37.903 -29.347  0.00  0.00    -0.026 A 
ATOM      8  C   UNL     1      38.208 -36.949 -30.159  0.00  0.00    +0.134 A 
ATOM      9  F   UNL     1      39.003 -36.036 -30.741  0.00  0.00    -0.205 F 
ATOM     10  C   UNL     1      36.813 -36.940 -30.404  0.00  0.00    +0.056 A 
ATOM     11  C   UNL     1      36.136 -36.000 -31.239  0.00  0.00    +0.043 A 
ATOM     12  C   UNL     1      34.734 -36.083 -31.385  0.00  0.00    +0.009 A 
ENDROOT
BRANCH  11  13
ATOM     13  N   UNL     1      36.840 -34.877 -31.727  0.00  0.00    -0.357 N 
ATOM     14  H   UNL     1      36.434 -33.982 -31.676  0.00  0.00    +0.000 HD
ATOM     15  H   UNL     1      37.736 -34.990 -32.118  0.00  0.00    +0.000 HD
ENDBRANCH  11  13
BRANCH  12  16
ATOM     16  C   UNL     1      33.945 -35.103 -32.229  0.00  0.00    +0.028 C 
BRANCH  16  17
ATOM     17  N   UNL     1      33.804 -33.806 -31.570  0.00  0.00    -0.268 N 
ATOM     18  H   UNL     1      34.018 -33.079 -32.252  0.00  0.00    +0.000 HD
ATOM     19  H   UNL     1      34.445 -33.816 -30.777  0.00  0.00    +0.000 HD
BRANCH  17  20
ATOM     20  C   UNL     1      32.460 -33.535 -31.016  0.00  0.00    +0.261 C 
ATOM     21  C   UNL     1      31.404 -34.290 -31.822  0.00  0.00    +0.020 C 
ATOM     22  C   UNL     1      30.195 -33.389 -31.750  0.00  0.00    +0.050 C 
ATOM     23  C   UNL     1      30.827 -32.037 -31.621  0.00  0.00    +0.309 C 
ATOM     24  O   UNL     1      30.247 -30.972 -31.749  0.00  0.00    -0.251 OA
ATOM     25  O   UNL     1      32.149 -32.156 -31.305  0.00  0.00    -0.434 OA
BRANCH  20  26
ATOM     26  C   UNL     1      32.272 -33.770 -29.465  0.00  0.00    +0.444 C 
ATOM     27  F   UNL     1      31.202 -34.565 -29.216  0.00  0.00    -0.165 F 
ATOM     28  F   UNL     1      32.068 -32.616 -28.793  0.00  0.00    -0.165 F 
ATOM     29  F   UNL     1      33.356 -34.375 -28.927  0.00  0.00    -0.165 F 
ENDBRANCH  20  26
ENDBRANCH  17  20
ENDBRANCH  16  17
ENDBRANCH  12  16
TORSDOF 5
ENDMDL
MODEL 20
REMARK VINA RESULT:    -6.057     24.989     26.877
REMARK INTER + INTRA:          -8.603
REMARK INTER:                  -7.670
REMARK INTRA:                  -0.934
REMARK UNBOUND:                -0.953
REMARK  Name = cpd232.pdb
REMARK  6 active torsions:
REMARK  status: ('A' for Active; 'I' for Inactive)
REMARK    1  A    between atoms: C_1  and  C_2
REMARK    2  A    between atoms: C_11  and  N_12
REMARK    3  A    between atoms: C_13  and  C_14
REMARK    4  A    between atoms: C_14  and  N_15
REMARK    5  A    between atoms: N_15  and  C_16
REMARK    6  A    between atoms: C_16  and  C_17
REMARK                            x       y       z     vdW  Elec       q    Type
REMARK                         _______ _______ _______ _____ _____    ______ ____
ROOT
ATOM      1  C   UNL     1      46.949 -34.087 -52.628  0.00  0.00    -0.022 C 
ATOM      2  C   UNL     1      47.109 -32.879 -53.511  0.00  0.00    +0.045 A 
ATOM      3  N   UNL     1      47.072 -31.698 -52.851  0.00  0.00    -0.251 NA
ATOM      4  C   UNL     1      47.172 -30.559 -53.541  0.00  0.00    +0.076 A 
ATOM      5  C   UNL     1      47.109 -29.367 -52.827  0.00  0.00    -0.035 A 
ATOM      6  C   UNL     1      47.196 -28.122 -53.451  0.00  0.00    -0.057 A 
ATOM      7  C   UNL     1      47.353 -28.066 -54.826  0.00  0.00    -0.026 A 
ATOM      8  C   UNL     1      47.417 -29.253 -55.551  0.00  0.00    +0.134 A 
ATOM      9  F   UNL     1      47.603 -29.154 -56.879  0.00  0.00    -0.205 F 
ATOM     10  C   UNL     1      47.328 -30.526 -54.938  0.00  0.00    +0.056 A 
ATOM     11  C   UNL     1      47.405 -31.774 -55.627  0.00  0.00    +0.043 A 
ATOM     12  C   UNL     1      47.278 -32.978 -54.901  0.00  0.00    +0.009 A 
ENDROOT
BRANCH  11  13
ATOM     13  N   UNL     1      47.385 -31.785 -57.039  0.00  0.00    -0.357 N 
ATOM     14  H   UNL     1      47.181 -32.618 -57.521  0.00  0.00    +0.000 HD
ATOM     15  H   UNL     1      47.576 -30.960 -57.540  0.00  0.00    +0.000 HD
ENDBRANCH  11  13
BRANCH  12  16
ATOM     16  C   UNL     1      47.319 -34.338 -55.568  0.00  0.00    +0.028 C 
BRANCH  16  17
ATOM     17  N   UNL     1      45.994 -34.770 -56.008  0.00  0.00    -0.268 N 
ATOM     18  H   UNL     1      45.980 -34.762 -57.028  0.00  0.00    +0.000 HD
ATOM     19  H   UNL     1      45.327 -34.120 -55.591  0.00  0.00    +0.000 HD
BRANCH  17  20
ATOM     20  C   UNL     1      45.599 -36.120 -55.554  0.00  0.00    +0.261 C 
ATOM     21  C   UNL     1      46.840 -36.914 -55.147  0.00  0.00    +0.020 C 
ATOM     22  C   UNL     1      46.476 -38.338 -55.492  0.00  0.00    +0.050 C 
ATOM     23  C   UNL     1      45.532 -38.143 -56.639  0.00  0.00    +0.309 C 
ATOM     24  O   UNL     1      45.147 -39.022 -57.391  0.00  0.00    -0.251 OA
ATOM     25  O   UNL     1      45.131 -36.842 -56.713  0.00  0.00    -0.434 OA
BRANCH  20  26
ATOM     26  C   UNL     1      44.481 -36.195 -54.440  0.00  0.00    +0.444 C 
ATOM     27  F   UNL     1      44.892 -36.936 -53.383  0.00  0.00    -0.165 F 
ATOM     28  F   UNL     1      43.341 -36.759 -54.896  0.00  0.00    -0.165 F 
ATOM     29  F   UNL     1      44.173 -34.963 -53.973  0.00  0.00    -0.165 F 
ENDBRANCH  20  26
ENDBRANCH  17  20
ENDBRANCH  16  17
ENDBRANCH  12  16
TORSDOF 5
ENDMDL
