REMARK  Name = cpd232.pdb
REMARK  6 active torsions:
REMARK  status: ('A' for Active; 'I' for Inactive)
REMARK    1  A    between atoms: C_1  and  C_2
REMARK    2  A    between atoms: C_11  and  N_12
REMARK    3  A    between atoms: C_13  and  C_14
REMARK    4  A    between atoms: C_14  and  N_15
REMARK    5  A    between atoms: N_15  and  C_16
REMARK    6  A    between atoms: C_16  and  C_17
REMARK                            x       y       z     vdW  Elec       q    Type
REMARK                         _______ _______ _______ _____ _____    ______ ____
ROOT
ATOM      1  C   UNL     1      -2.978  -3.358   0.366  0.00  0.00    -0.022 C 
ATOM      2  C   UNL     1      -4.102  -2.367   0.237  0.00  0.00    +0.045 A 
ATOM      3  N   UNL     1      -5.305  -2.922  -0.041  0.00  0.00    -0.251 NA
ATOM      4  C   UNL     1      -6.368  -2.131  -0.209  0.00  0.00    +0.076 A 
ATOM      5  C   UNL     1      -7.581  -2.740  -0.513  0.00  0.00    -0.035 A 
ATOM      6  C   UNL     1      -8.750  -2.006  -0.715  0.00  0.00    -0.057 A 
ATOM      7  C   UNL     1      -8.708  -0.626  -0.607  0.00  0.00    -0.026 A 
ATOM      8  C   UNL     1      -7.499  -0.005  -0.302  0.00  0.00    +0.134 A 
ATOM      9  F   UNL     1      -7.509   1.333  -0.174  0.00  0.00    -0.205 F 
ATOM     10  C   UNL     1      -6.301  -0.731  -0.097  0.00  0.00    +0.056 A 
ATOM     11  C   UNL     1      -5.039  -0.151   0.235  0.00  0.00    +0.043 A 
ATOM     12  C   UNL     1      -3.910  -0.985   0.391  0.00  0.00    +0.009 A 
ENDROOT
BRANCH  11  13
ATOM     13  N   UNL     1      -4.890   1.252   0.185  0.00  0.00    -0.357 N 
ATOM     14  H   UNL     1      -5.681   1.827   0.076  0.00  0.00    +0.000 HD
ATOM     15  H   UNL     1      -3.995   1.655   0.259  0.00  0.00    +0.000 HD
ENDBRANCH  11  13
BRANCH  12  16
ATOM     16  C   UNL     1      -2.534  -0.438   0.712  0.00  0.00    +0.028 C 
BRANCH  16  17
ATOM     17  N   UNL     1      -1.801  -0.062  -0.495  0.00  0.00    -0.268 N 
ATOM     18  H   UNL     1      -2.288   0.721  -0.931  0.00  0.00    +0.000 HD
ATOM     19  H   UNL     1      -1.770  -0.895  -1.083  0.00  0.00    +0.000 HD
BRANCH  17  20
ATOM     20  C   UNL     1      -0.396   0.339  -0.268  0.00  0.00    +0.261 C 
ATOM     21  C   UNL     1      -0.348   1.749   0.320  0.00  0.00    +0.020 C 
ATOM     22  C   UNL     1       0.938   2.317  -0.231  0.00  0.00    +0.050 C 
ATOM     23  C   UNL     1       1.065   1.583  -1.531  0.00  0.00    +0.309 C 
ATOM     24  O   UNL     1       1.838   1.869  -2.429  0.00  0.00    -0.251 OA
ATOM     25  O   UNL     1       0.212   0.519  -1.564  0.00  0.00    -0.434 OA
BRANCH  20  26
ATOM     26  C   UNL     1       0.501  -0.659   0.565  0.00  0.00    +0.444 C 
ATOM     27  F   UNL     1       0.153  -0.654   1.875  0.00  0.00    -0.165 F 
ATOM     28  F   UNL     1       1.813  -0.340   0.506  0.00  0.00    -0.165 F 
ATOM     29  F   UNL     1       0.365  -1.929   0.117  0.00  0.00    -0.165 F 
ENDBRANCH  20  26
ENDBRANCH  17  20
ENDBRANCH  16  17
ENDBRANCH  12  16
TORSDOF 5
