MODEL 1
REMARK VINA RESULT:    -7.540      0.000      0.000
REMARK INTER + INTRA:         -18.113
REMARK INTER:                 -13.270
REMARK INTRA:                  -4.843
REMARK UNBOUND:                -4.843
REMARK  Name = cpd34.pdb
REMARK  15 active torsions:
REMARK  status: ('A' for Active; 'I' for Inactive)
REMARK    1  A    between atoms: C_1  and  C_2
REMARK    2  A    between atoms: C_6  and  N_7
REMARK    3  A    between atoms: N_7  and  C_8
REMARK    4  A    between atoms: C_13  and  C_14
REMARK    5  A    between atoms: N_16  and  C_17
REMARK    6  A    between atoms: C_17  and  C_18
REMARK    7  A    between atoms: N_20  and  C_21
REMARK    8  A    between atoms: C_21  and  C_22
REMARK    9  A    between atoms: C_22  and  C_23
REMARK   10  A    between atoms: C_23  and  C_24
REMARK   11  A    between atoms: C_24  and  C_25
REMARK   12  A    between atoms: C_25  and  C_26
REMARK   13  A    between atoms: C_26  and  N_27
REMARK   14  A    between atoms: N_27  and  C_28
REMARK   15  A    between atoms: C_42  and  C_43
REMARK                            x       y       z     vdW  Elec       q    Type
REMARK                         _______ _______ _______ _____ _____    ______ ____
ROOT
ATOM      1  C   UNL A   1      32.802 -38.866 -31.986  0.00  0.00    +0.230 C 
ATOM      2  O   UNL A   1      32.430 -39.114 -30.841  0.00  0.00    -0.274 OA
ATOM      3  N   UNL A   1      33.643 -39.688 -32.709  0.00  0.00    -0.314 N 
ATOM      4  H   UNL A   1      33.775 -39.508 -33.667  0.00  0.00    +0.000 HD
ENDROOT
BRANCH   1   5
ATOM      5  C   UNL A   1      32.242 -37.675 -32.776  0.00  0.00    +0.088 C 
BRANCH   5   8
ATOM      6  C   UNL A   1      33.431 -35.583 -32.276  0.00  0.00    +0.246 C 
ATOM      7  O   UNL A   1      34.264 -35.789 -33.152  0.00  0.00    -0.270 OA
ATOM      8  N   UNL A   1      32.323 -36.387 -32.090  0.00  0.00    -0.303 N 
ATOM      9  H   UNL A   1      31.592 -36.094 -31.499  0.00  0.00    +0.000 HD
BRANCH   6  15
ATOM     10  C   UNL A   1      34.794 -34.312 -30.595  0.00  0.00    +0.044 A 
ATOM     11  C   UNL A   1      34.908 -33.229 -29.708  0.00  0.00    -0.040 A 
ATOM     12  C   UNL A   1      33.875 -32.300 -29.562  0.00  0.00    -0.060 A 
ATOM     13  C   UNL A   1      32.705 -32.434 -30.302  0.00  0.00    -0.061 A 
ATOM     14  C   UNL A   1      32.562 -33.501 -31.188  0.00  0.00    -0.048 A 
ATOM     15  C   UNL A   1      33.595 -34.444 -31.330  0.00  0.00    +0.058 A 
BRANCH  10  16
ATOM     16  N   UNL A   1      35.835 -35.259 -30.712  0.00  0.00    -0.314 N 
ATOM     17  H   UNL A   1      36.221 -35.327 -31.615  0.00  0.00    +0.000 HD
BRANCH  16  23
ATOM     18  C   UNL A   1      39.684 -38.103 -29.240  0.00  0.00    -0.039 C 
ATOM     19  C   UNL A   1      38.314 -37.512 -29.039  0.00  0.00    -0.046 A 
ATOM     20  C   UNL A   1      37.607 -37.848 -27.877  0.00  0.00    -0.058 A 
ATOM     21  C   UNL A   1      36.336 -37.334 -27.648  0.00  0.00    -0.060 A 
ATOM     22  C   UNL A   1      35.751 -36.483 -28.583  0.00  0.00    -0.040 A 
ATOM     23  C   UNL A   1      36.421 -36.126 -29.762  0.00  0.00    +0.035 A 
ATOM     24  C   UNL A   1      37.737 -36.617 -29.975  0.00  0.00    -0.026 A 
ATOM     25  C   UNL A   1      38.491 -36.226 -31.225  0.00  0.00    -0.038 C 
ENDBRANCH  16  23
ENDBRANCH  10  16
ENDBRANCH   6  15
ENDBRANCH   5   8
ENDBRANCH   1   5
BRANCH   3  26
ATOM     26  C   UNL A   1      34.338 -40.804 -32.104  0.00  0.00    +0.012 C 
BRANCH  26  27
ATOM     27  C   UNL A   1      35.740 -40.464 -31.595  0.00  0.00    -0.037 C 
BRANCH  27  28
ATOM     28  C   UNL A   1      35.789 -40.226 -30.083  0.00  0.00    -0.052 C 
BRANCH  28  29
ATOM     29  C   UNL A   1      35.678 -41.549 -29.320  0.00  0.00    -0.052 C 
BRANCH  29  30
ATOM     30  C   UNL A   1      34.749 -41.425 -28.112  0.00  0.00    -0.037 C 
BRANCH  30  31
ATOM     31  C   UNL A   1      34.333 -39.971 -27.884  0.00  0.00    +0.009 C 
BRANCH  31  32
ATOM     32  N   UNL A   1      32.990 -39.949 -27.286  0.00  0.00    -0.343 N 
ATOM     33  H   UNL A   1      32.268 -40.574 -27.526  0.00  0.00    +0.000 HD
BRANCH  32  34
ATOM     34  C   UNL A   1      32.862 -38.909 -26.316  0.00  0.00    +0.041 A 
ATOM     35  C   UNL A   1      33.158 -39.151 -24.959  0.00  0.00    -0.005 A 
ATOM     36  C   UNL A   1      33.067 -38.071 -24.076  0.00  0.00    +0.047 A 
ATOM     37  N   UNL A   1      32.762 -36.812 -24.469  0.00  0.00    -0.251 NA
ATOM     38  C   UNL A   1      32.496 -36.580 -25.761  0.00  0.00    +0.073 A 
ATOM     39  C   UNL A   1      32.175 -35.284 -26.145  0.00  0.00    -0.036 A 
ATOM     40  C   UNL A   1      31.870 -34.958 -27.469  0.00  0.00    -0.060 A 
ATOM     41  C   UNL A   1      31.878 -35.949 -28.438  0.00  0.00    -0.061 A 
ATOM     42  C   UNL A   1      32.198 -37.256 -28.074  0.00  0.00    -0.051 A 
ATOM     43  C   UNL A   1      32.525 -37.593 -26.738  0.00  0.00    +0.021 A 
ATOM     44  C   UNL A   1      33.369 -38.217 -22.606  0.00  0.00    -0.010 C 
ATOM     45  C   UNL A   1      33.277 -39.655 -22.112  0.00  0.00    -0.047 C 
ATOM     46  C   UNL A   1      34.069 -40.565 -23.037  0.00  0.00    -0.049 C 
ATOM     47  C   UNL A   1      33.485 -40.535 -24.448  0.00  0.00    -0.024 C 
ENDBRANCH  32  34
ENDBRANCH  31  32
ENDBRANCH  30  31
ENDBRANCH  29  30
ENDBRANCH  28  29
ENDBRANCH  27  28
ENDBRANCH  26  27
ENDBRANCH   3  26
TORSDOF 13
ENDMDL
MODEL 2
REMARK VINA RESULT:    -7.249      2.259      6.905
REMARK INTER + INTRA:         -17.601
REMARK INTER:                 -13.593
REMARK INTRA:                  -4.008
REMARK UNBOUND:                -4.843
REMARK  Name = cpd34.pdb
REMARK  15 active torsions:
REMARK  status: ('A' for Active; 'I' for Inactive)
REMARK    1  A    between atoms: C_1  and  C_2
REMARK    2  A    between atoms: C_6  and  N_7
REMARK    3  A    between atoms: N_7  and  C_8
REMARK    4  A    between atoms: C_13  and  C_14
REMARK    5  A    between atoms: N_16  and  C_17
REMARK    6  A    between atoms: C_17  and  C_18
REMARK    7  A    between atoms: N_20  and  C_21
REMARK    8  A    between atoms: C_21  and  C_22
REMARK    9  A    between atoms: C_22  and  C_23
REMARK   10  A    between atoms: C_23  and  C_24
REMARK   11  A    between atoms: C_24  and  C_25
REMARK   12  A    between atoms: C_25  and  C_26
REMARK   13  A    between atoms: C_26  and  N_27
REMARK   14  A    between atoms: N_27  and  C_28
REMARK   15  A    between atoms: C_42  and  C_43
REMARK                            x       y       z     vdW  Elec       q    Type
REMARK                         _______ _______ _______ _____ _____    ______ ____
ROOT
ATOM      1  C   UNL A   1      32.539 -36.414 -25.523  0.00  0.00    +0.230 C 
ATOM      2  O   UNL A   1      32.211 -35.348 -25.007  0.00  0.00    -0.274 OA
ATOM      3  N   UNL A   1      32.132 -36.810 -26.780  0.00  0.00    -0.314 N 
ATOM      4  H   UNL A   1      32.554 -37.599 -27.190  0.00  0.00    +0.000 HD
ENDROOT
BRANCH   1   5
ATOM      5  C   UNL A   1      33.561 -37.348 -24.860  0.00  0.00    +0.088 C 
BRANCH   5   8
ATOM      6  C   UNL A   1      34.835 -38.125 -26.812  0.00  0.00    +0.246 C 
ATOM      7  O   UNL A   1      35.319 -37.014 -27.001  0.00  0.00    -0.270 OA
ATOM      8  N   UNL A   1      34.054 -38.427 -25.713  0.00  0.00    -0.303 N 
ATOM      9  H   UNL A   1      33.832 -39.363 -25.506  0.00  0.00    +0.000 HD
BRANCH   6  15
ATOM     10  C   UNL A   1      36.232 -39.244 -28.572  0.00  0.00    +0.044 A 
ATOM     11  C   UNL A   1      36.394 -40.288 -29.497  0.00  0.00    -0.040 A 
ATOM     12  C   UNL A   1      35.424 -41.282 -29.646  0.00  0.00    -0.060 A 
ATOM     13  C   UNL A   1      34.269 -41.253 -28.870  0.00  0.00    -0.061 A 
ATOM     14  C   UNL A   1      34.080 -40.227 -27.945  0.00  0.00    -0.048 A 
ATOM     15  C   UNL A   1      35.049 -39.220 -27.800  0.00  0.00    +0.058 A 
BRANCH  10  16
ATOM     16  N   UNL A   1      37.209 -38.231 -28.451  0.00  0.00    -0.314 N 
ATOM     17  H   UNL A   1      37.436 -37.995 -27.523  0.00  0.00    +0.000 HD
BRANCH  16  23
ATOM     18  C   UNL A   1      41.547 -36.922 -30.581  0.00  0.00    -0.039 C 
ATOM     19  C   UNL A   1      40.046 -36.864 -30.477  0.00  0.00    -0.046 A 
ATOM     20  C   UNL A   1      39.345 -36.046 -31.374  0.00  0.00    -0.058 A 
ATOM     21  C   UNL A   1      37.960 -35.953 -31.313  0.00  0.00    -0.060 A 
ATOM     22  C   UNL A   1      37.256 -36.670 -30.349  0.00  0.00    -0.040 A 
ATOM     23  C   UNL A   1      37.918 -37.496 -29.429  0.00  0.00    +0.035 A 
ATOM     24  C   UNL A   1      39.330 -37.624 -29.519  0.00  0.00    -0.026 A 
ATOM     25  C   UNL A   1      40.064 -38.528 -28.555  0.00  0.00    -0.038 C 
ENDBRANCH  16  23
ENDBRANCH  10  16
ENDBRANCH   6  15
ENDBRANCH   5   8
ENDBRANCH   1   5
BRANCH   3  26
ATOM     26  C   UNL A   1      31.104 -36.105 -27.516  0.00  0.00    +0.012 C 
BRANCH  26  27
ATOM     27  C   UNL A   1      31.307 -36.114 -29.032  0.00  0.00    -0.037 C 
BRANCH  27  28
ATOM     28  C   UNL A   1      32.469 -37.006 -29.478  0.00  0.00    -0.052 C 
BRANCH  28  29
ATOM     29  C   UNL A   1      31.969 -38.149 -30.365  0.00  0.00    -0.052 C 
BRANCH  29  30
ATOM     30  C   UNL A   1      32.836 -38.314 -31.613  0.00  0.00    -0.037 C 
BRANCH  30  31
ATOM     31  C   UNL A   1      33.884 -37.203 -31.707  0.00  0.00    +0.009 C 
BRANCH  31  32
ATOM     32  N   UNL A   1      33.552 -36.330 -32.842  0.00  0.00    -0.343 N 
ATOM     33  H   UNL A   1      33.855 -36.485 -33.766  0.00  0.00    +0.000 HD
BRANCH  32  34
ATOM     34  C   UNL A   1      32.735 -35.229 -32.439  0.00  0.00    +0.041 A 
ATOM     35  C   UNL A   1      31.365 -35.192 -32.769  0.00  0.00    -0.005 A 
ATOM     36  C   UNL A   1      30.616 -34.112 -32.291  0.00  0.00    +0.047 A 
ATOM     37  N   UNL A   1      31.129 -33.144 -31.495  0.00  0.00    -0.251 NA
ATOM     38  C   UNL A   1      32.428 -33.190 -31.170  0.00  0.00    +0.073 A 
ATOM     39  C   UNL A   1      32.940 -32.183 -30.360  0.00  0.00    -0.036 A 
ATOM     40  C   UNL A   1      34.285 -32.146 -29.986  0.00  0.00    -0.060 A 
ATOM     41  C   UNL A   1      35.148 -33.134 -30.433  0.00  0.00    -0.061 A 
ATOM     42  C   UNL A   1      34.655 -34.154 -31.246  0.00  0.00    -0.051 A 
ATOM     43  C   UNL A   1      33.290 -34.209 -31.617  0.00  0.00    +0.021 A 
ATOM     44  C   UNL A   1      29.142 -33.977 -32.578  0.00  0.00    -0.010 C 
ATOM     45  C   UNL A   1      28.687 -34.785 -33.787  0.00  0.00    -0.047 C 
ATOM     46  C   UNL A   1      29.205 -36.210 -33.674  0.00  0.00    -0.049 C 
ATOM     47  C   UNL A   1      30.732 -36.226 -33.669  0.00  0.00    -0.024 C 
ENDBRANCH  32  34
ENDBRANCH  31  32
ENDBRANCH  30  31
ENDBRANCH  29  30
ENDBRANCH  28  29
ENDBRANCH  27  28
ENDBRANCH  26  27
ENDBRANCH   3  26
TORSDOF 13
ENDMDL
MODEL 3
REMARK VINA RESULT:    -7.214      2.329      7.133
REMARK INTER + INTRA:         -17.540
REMARK INTER:                 -14.106
REMARK INTRA:                  -3.434
REMARK UNBOUND:                -4.843
REMARK  Name = cpd34.pdb
REMARK  15 active torsions:
REMARK  status: ('A' for Active; 'I' for Inactive)
REMARK    1  A    between atoms: C_1  and  C_2
REMARK    2  A    between atoms: C_6  and  N_7
REMARK    3  A    between atoms: N_7  and  C_8
REMARK    4  A    between atoms: C_13  and  C_14
REMARK    5  A    between atoms: N_16  and  C_17
REMARK    6  A    between atoms: C_17  and  C_18
REMARK    7  A    between atoms: N_20  and  C_21
REMARK    8  A    between atoms: C_21  and  C_22
REMARK    9  A    between atoms: C_22  and  C_23
REMARK   10  A    between atoms: C_23  and  C_24
REMARK   11  A    between atoms: C_24  and  C_25
REMARK   12  A    between atoms: C_25  and  C_26
REMARK   13  A    between atoms: C_26  and  N_27
REMARK   14  A    between atoms: N_27  and  C_28
REMARK   15  A    between atoms: C_42  and  C_43
REMARK                            x       y       z     vdW  Elec       q    Type
REMARK                         _______ _______ _______ _____ _____    ______ ____
ROOT
ATOM      1  C   UNL A   1      32.222 -36.992 -25.966  0.00  0.00    +0.230 C 
ATOM      2  O   UNL A   1      32.616 -35.980 -25.393  0.00  0.00    -0.274 OA
ATOM      3  N   UNL A   1      31.431 -36.970 -27.097  0.00  0.00    -0.314 N 
ATOM      4  H   UNL A   1      31.282 -37.808 -27.590  0.00  0.00    +0.000 HD
ENDROOT
BRANCH   1   5
ATOM      5  C   UNL A   1      32.699 -38.391 -25.551  0.00  0.00    +0.088 C 
BRANCH   5   8
ATOM      6  C   UNL A   1      34.389 -39.105 -27.186  0.00  0.00    +0.246 C 
ATOM      7  O   UNL A   1      35.264 -38.433 -26.649  0.00  0.00    -0.270 OA
ATOM      8  N   UNL A   1      33.123 -39.251 -26.654  0.00  0.00    -0.303 N 
ATOM      9  H   UNL A   1      32.510 -39.931 -27.015  0.00  0.00    +0.000 HD
BRANCH   6  15
ATOM     10  C   UNL A   1      35.728 -39.362 -29.293  0.00  0.00    +0.044 A 
ATOM     11  C   UNL A   1      35.938 -40.024 -30.513  0.00  0.00    -0.040 A 
ATOM     12  C   UNL A   1      35.117 -41.080 -30.916  0.00  0.00    -0.060 A 
ATOM     13  C   UNL A   1      34.066 -41.497 -30.103  0.00  0.00    -0.061 A 
ATOM     14  C   UNL A   1      33.832 -40.855 -28.888  0.00  0.00    -0.048 A 
ATOM     15  C   UNL A   1      34.650 -39.787 -28.485  0.00  0.00    +0.058 A 
BRANCH  10  16
ATOM     16  N   UNL A   1      36.550 -38.279 -28.912  0.00  0.00    -0.314 N 
ATOM     17  H   UNL A   1      36.081 -37.566 -28.422  0.00  0.00    +0.000 HD
BRANCH  16  23
ATOM     18  C   UNL A   1      40.234 -36.092 -31.504  0.00  0.00    -0.039 C 
ATOM     19  C   UNL A   1      39.732 -36.955 -30.378  0.00  0.00    -0.046 A 
ATOM     20  C   UNL A   1      40.670 -37.538 -29.514  0.00  0.00    -0.058 A 
ATOM     21  C   UNL A   1      40.258 -38.348 -28.463  0.00  0.00    -0.060 A 
ATOM     22  C   UNL A   1      38.900 -38.595 -28.266  0.00  0.00    -0.040 A 
ATOM     23  C   UNL A   1      37.929 -38.037 -29.110  0.00  0.00    +0.035 A 
ATOM     24  C   UNL A   1      38.349 -37.174 -30.158  0.00  0.00    -0.026 A 
ATOM     25  C   UNL A   1      37.320 -36.539 -31.065  0.00  0.00    -0.038 C 
ENDBRANCH  16  23
ENDBRANCH  10  16
ENDBRANCH   6  15
ENDBRANCH   5   8
ENDBRANCH   1   5
BRANCH   3  26
ATOM     26  C   UNL A   1      30.814 -35.754 -27.582  0.00  0.00    +0.012 C 
BRANCH  26  27
ATOM     27  C   UNL A   1      31.470 -35.180 -28.839  0.00  0.00    -0.037 C 
BRANCH  27  28
ATOM     28  C   UNL A   1      32.677 -34.289 -28.533  0.00  0.00    -0.052 C 
BRANCH  28  29
ATOM     29  C   UNL A   1      33.987 -35.041 -28.786  0.00  0.00    -0.052 C 
BRANCH  29  30
ATOM     30  C   UNL A   1      34.935 -34.237 -29.676  0.00  0.00    -0.037 C 
BRANCH  30  31
ATOM     31  C   UNL A   1      34.378 -32.840 -29.954  0.00  0.00    +0.009 C 
BRANCH  31  32
ATOM     32  N   UNL A   1      34.168 -32.691 -31.401  0.00  0.00    -0.343 N 
ATOM     33  H   UNL A   1      34.850 -32.356 -32.027  0.00  0.00    +0.000 HD
BRANCH  32  34
ATOM     34  C   UNL A   1      32.852 -33.093 -31.787  0.00  0.00    +0.041 A 
ATOM     35  C   UNL A   1      32.635 -34.340 -32.408  0.00  0.00    -0.005 A 
ATOM     36  C   UNL A   1      31.314 -34.690 -32.705  0.00  0.00    +0.047 A 
ATOM     37  N   UNL A   1      30.248 -33.920 -32.381  0.00  0.00    -0.251 NA
ATOM     38  C   UNL A   1      30.456 -32.743 -31.777  0.00  0.00    +0.073 A 
ATOM     39  C   UNL A   1      29.352 -31.961 -31.461  0.00  0.00    -0.036 A 
ATOM     40  C   UNL A   1      29.479 -30.714 -30.845  0.00  0.00    -0.060 A 
ATOM     41  C   UNL A   1      30.740 -30.227 -30.539  0.00  0.00    -0.061 A 
ATOM     42  C   UNL A   1      31.862 -30.995 -30.848  0.00  0.00    -0.051 A 
ATOM     43  C   UNL A   1      31.742 -32.268 -31.457  0.00  0.00    +0.021 A 
ATOM     44  C   UNL A   1      30.968 -36.003 -33.361  0.00  0.00    -0.010 C 
ATOM     45  C   UNL A   1      32.141 -36.637 -34.096  0.00  0.00    -0.047 C 
ATOM     46  C   UNL A   1      33.361 -36.660 -33.190  0.00  0.00    -0.049 C 
ATOM     47  C   UNL A   1      33.778 -35.239 -32.816  0.00  0.00    -0.024 C 
ENDBRANCH  32  34
ENDBRANCH  31  32
ENDBRANCH  30  31
ENDBRANCH  29  30
ENDBRANCH  28  29
ENDBRANCH  27  28
ENDBRANCH  26  27
ENDBRANCH   3  26
TORSDOF 13
ENDMDL
MODEL 4
REMARK VINA RESULT:    -7.000     18.673     23.142
REMARK INTER + INTRA:         -17.163
REMARK INTER:                 -12.726
REMARK INTRA:                  -4.437
REMARK UNBOUND:                -4.843
REMARK  Name = cpd34.pdb
REMARK  15 active torsions:
REMARK  status: ('A' for Active; 'I' for Inactive)
REMARK    1  A    between atoms: C_1  and  C_2
REMARK    2  A    between atoms: C_6  and  N_7
REMARK    3  A    between atoms: N_7  and  C_8
REMARK    4  A    between atoms: C_13  and  C_14
REMARK    5  A    between atoms: N_16  and  C_17
REMARK    6  A    between atoms: C_17  and  C_18
REMARK    7  A    between atoms: N_20  and  C_21
REMARK    8  A    between atoms: C_21  and  C_22
REMARK    9  A    between atoms: C_22  and  C_23
REMARK   10  A    between atoms: C_23  and  C_24
REMARK   11  A    between atoms: C_24  and  C_25
REMARK   12  A    between atoms: C_25  and  C_26
REMARK   13  A    between atoms: C_26  and  N_27
REMARK   14  A    between atoms: N_27  and  C_28
REMARK   15  A    between atoms: C_42  and  C_43
REMARK                            x       y       z     vdW  Elec       q    Type
REMARK                         _______ _______ _______ _____ _____    ______ ____
ROOT
ATOM      1  C   UNL A   1      41.027 -21.000 -39.616  0.00  0.00    +0.230 C 
ATOM      2  O   UNL A   1      40.802 -19.794 -39.674  0.00  0.00    -0.274 OA
ATOM      3  N   UNL A   1      42.148 -21.595 -40.158  0.00  0.00    -0.314 N 
ATOM      4  H   UNL A   1      42.339 -22.535 -39.941  0.00  0.00    +0.000 HD
ENDROOT
BRANCH   1   5
ATOM      5  C   UNL A   1      40.137 -21.947 -38.799  0.00  0.00    +0.088 C 
BRANCH   5   8
ATOM      6  C   UNL A   1      40.564 -22.278 -36.402  0.00  0.00    +0.246 C 
ATOM      7  O   UNL A   1      41.448 -23.099 -36.622  0.00  0.00    -0.270 OA
ATOM      8  N   UNL A   1      39.940 -21.560 -37.404  0.00  0.00    -0.303 N 
ATOM      9  H   UNL A   1      39.366 -20.792 -37.179  0.00  0.00    +0.000 HD
BRANCH   6  15
ATOM     10  C   UNL A   1      40.928 -21.357 -34.095  0.00  0.00    +0.044 A 
ATOM     11  C   UNL A   1      40.449 -21.151 -32.792  0.00  0.00    -0.040 A 
ATOM     12  C   UNL A   1      39.179 -21.586 -32.408  0.00  0.00    -0.060 A 
ATOM     13  C   UNL A   1      38.358 -22.238 -33.324  0.00  0.00    -0.061 A 
ATOM     14  C   UNL A   1      38.808 -22.460 -34.625  0.00  0.00    -0.048 A 
ATOM     15  C   UNL A   1      40.090 -22.032 -35.011  0.00  0.00    +0.058 A 
BRANCH  10  16
ATOM     16  N   UNL A   1      42.225 -20.935 -34.461  0.00  0.00    -0.314 N 
ATOM     17  H   UNL A   1      42.758 -21.618 -34.928  0.00  0.00    +0.000 HD
BRANCH  16  23
ATOM     18  C   UNL A   1      43.834 -16.560 -36.288  0.00  0.00    -0.039 C 
ATOM     19  C   UNL A   1      43.673 -17.555 -35.171  0.00  0.00    -0.046 A 
ATOM     20  C   UNL A   1      44.217 -17.244 -33.917  0.00  0.00    -0.058 A 
ATOM     21  C   UNL A   1      44.101 -18.133 -32.854  0.00  0.00    -0.060 A 
ATOM     22  C   UNL A   1      43.448 -19.350 -33.035  0.00  0.00    -0.040 A 
ATOM     23  C   UNL A   1      42.895 -19.704 -34.274  0.00  0.00    +0.035 A 
ATOM     24  C   UNL A   1      42.976 -18.776 -35.347  0.00  0.00    -0.026 A 
ATOM     25  C   UNL A   1      42.365 -19.122 -36.685  0.00  0.00    -0.038 C 
ENDBRANCH  16  23
ENDBRANCH  10  16
ENDBRANCH   6  15
ENDBRANCH   5   8
ENDBRANCH   1   5
BRANCH   3  26
ATOM     26  C   UNL A   1      43.051 -20.881 -41.035  0.00  0.00    +0.012 C 
BRANCH  26  27
ATOM     27  C   UNL A   1      43.825 -21.782 -41.999  0.00  0.00    -0.037 C 
BRANCH  27  28
ATOM     28  C   UNL A   1      45.078 -21.113 -42.573  0.00  0.00    -0.052 C 
BRANCH  28  29
ATOM     29  C   UNL A   1      46.347 -21.752 -42.003  0.00  0.00    -0.052 C 
BRANCH  29  30
ATOM     30  C   UNL A   1      46.763 -21.098 -40.685  0.00  0.00    -0.037 C 
BRANCH  30  31
ATOM     31  C   UNL A   1      46.821 -19.576 -40.820  0.00  0.00    +0.009 C 
BRANCH  31  32
ATOM     32  N   UNL A   1      45.853 -18.978 -39.889  0.00  0.00    -0.343 N 
ATOM     33  H   UNL A   1      44.877 -19.089 -39.959  0.00  0.00    +0.000 HD
BRANCH  32  34
ATOM     34  C   UNL A   1      46.503 -18.217 -38.870  0.00  0.00    +0.041 A 
ATOM     35  C   UNL A   1      46.962 -16.910 -39.131  0.00  0.00    -0.005 A 
ATOM     36  C   UNL A   1      47.536 -16.204 -38.069  0.00  0.00    +0.047 A 
ATOM     37  N   UNL A   1      47.622 -16.693 -36.809  0.00  0.00    -0.251 NA
ATOM     38  C   UNL A   1      47.171 -17.929 -36.560  0.00  0.00    +0.073 A 
ATOM     39  C   UNL A   1      47.276 -18.419 -35.263  0.00  0.00    -0.036 A 
ATOM     40  C   UNL A   1      46.845 -19.702 -34.919  0.00  0.00    -0.060 A 
ATOM     41  C   UNL A   1      46.299 -20.525 -35.892  0.00  0.00    -0.061 A 
ATOM     42  C   UNL A   1      46.184 -20.053 -37.199  0.00  0.00    -0.051 A 
ATOM     43  C   UNL A   1      46.602 -18.748 -37.554  0.00  0.00    +0.021 A 
ATOM     44  C   UNL A   1      48.052 -14.797 -38.236  0.00  0.00    -0.010 C 
ATOM     45  C   UNL A   1      48.352 -14.433 -39.685  0.00  0.00    -0.047 C 
ATOM     46  C   UNL A   1      47.166 -14.804 -40.561  0.00  0.00    -0.049 C 
ATOM     47  C   UNL A   1      46.917 -16.310 -40.516  0.00  0.00    -0.024 C 
ENDBRANCH  32  34
ENDBRANCH  31  32
ENDBRANCH  30  31
ENDBRANCH  29  30
ENDBRANCH  28  29
ENDBRANCH  27  28
ENDBRANCH  26  27
ENDBRANCH   3  26
TORSDOF 13
ENDMDL
MODEL 5
REMARK VINA RESULT:    -6.927     17.208     21.443
REMARK INTER + INTRA:         -17.034
REMARK INTER:                 -11.969
REMARK INTRA:                  -5.065
REMARK UNBOUND:                -4.843
REMARK  Name = cpd34.pdb
REMARK  15 active torsions:
REMARK  status: ('A' for Active; 'I' for Inactive)
REMARK    1  A    between atoms: C_1  and  C_2
REMARK    2  A    between atoms: C_6  and  N_7
REMARK    3  A    between atoms: N_7  and  C_8
REMARK    4  A    between atoms: C_13  and  C_14
REMARK    5  A    between atoms: N_16  and  C_17
REMARK    6  A    between atoms: C_17  and  C_18
REMARK    7  A    between atoms: N_20  and  C_21
REMARK    8  A    between atoms: C_21  and  C_22
REMARK    9  A    between atoms: C_22  and  C_23
REMARK   10  A    between atoms: C_23  and  C_24
REMARK   11  A    between atoms: C_24  and  C_25
REMARK   12  A    between atoms: C_25  and  C_26
REMARK   13  A    between atoms: C_26  and  N_27
REMARK   14  A    between atoms: N_27  and  C_28
REMARK   15  A    between atoms: C_42  and  C_43
REMARK                            x       y       z     vdW  Elec       q    Type
REMARK                         _______ _______ _______ _____ _____    ______ ____
ROOT
ATOM      1  C   UNL A   1      46.773 -17.678 -36.791  0.00  0.00    +0.230 C 
ATOM      2  O   UNL A   1      47.338 -18.103 -35.787  0.00  0.00    -0.274 OA
ATOM      3  N   UNL A   1      45.885 -16.621 -36.777  0.00  0.00    -0.314 N 
ATOM      4  H   UNL A   1      45.591 -16.236 -37.634  0.00  0.00    +0.000 HD
ENDROOT
BRANCH   1   5
ATOM      5  C   UNL A   1      47.118 -18.200 -38.193  0.00  0.00    +0.088 C 
BRANCH   5   8
ATOM      6  C   UNL A   1      45.699 -20.064 -38.938  0.00  0.00    +0.246 C 
ATOM      7  O   UNL A   1      46.218 -20.841 -38.143  0.00  0.00    -0.270 OA
ATOM      8  N   UNL A   1      45.983 -18.712 -38.958  0.00  0.00    -0.303 N 
ATOM      9  H   UNL A   1      45.424 -18.096 -39.485  0.00  0.00    +0.000 HD
BRANCH   6  15
ATOM     10  C   UNL A   1      43.462 -21.016 -39.559  0.00  0.00    +0.044 A 
ATOM     11  C   UNL A   1      42.586 -21.481 -40.552  0.00  0.00    -0.040 A 
ATOM     12  C   UNL A   1      42.953 -21.485 -41.900  0.00  0.00    -0.060 A 
ATOM     13  C   UNL A   1      44.207 -21.021 -42.283  0.00  0.00    -0.061 A 
ATOM     14  C   UNL A   1      45.100 -20.555 -41.319  0.00  0.00    -0.048 A 
ATOM     15  C   UNL A   1      44.737 -20.559 -39.961  0.00  0.00    +0.058 A 
BRANCH  10  16
ATOM     16  N   UNL A   1      43.087 -21.043 -38.198  0.00  0.00    -0.314 N 
ATOM     17  H   UNL A   1      43.801 -21.333 -37.586  0.00  0.00    +0.000 HD
BRANCH  16  23
ATOM     18  C   UNL A   1      39.978 -17.641 -36.240  0.00  0.00    -0.039 C 
ATOM     19  C   UNL A   1      40.340 -19.055 -36.608  0.00  0.00    -0.046 A 
ATOM     20  C   UNL A   1      39.437 -20.079 -36.293  0.00  0.00    -0.058 A 
ATOM     21  C   UNL A   1      39.727 -21.401 -36.606  0.00  0.00    -0.060 A 
ATOM     22  C   UNL A   1      40.931 -21.719 -37.230  0.00  0.00    -0.040 A 
ATOM     23  C   UNL A   1      41.866 -20.726 -37.559  0.00  0.00    +0.035 A 
ATOM     24  C   UNL A   1      41.549 -19.371 -37.277  0.00  0.00    -0.026 A 
ATOM     25  C   UNL A   1      42.528 -18.280 -37.645  0.00  0.00    -0.038 C 
ENDBRANCH  16  23
ENDBRANCH  10  16
ENDBRANCH   6  15
ENDBRANCH   5   8
ENDBRANCH   1   5
BRANCH   3  26
ATOM     26  C   UNL A   1      45.372 -16.061 -35.545  0.00  0.00    +0.012 C 
BRANCH  26  27
ATOM     27  C   UNL A   1      44.302 -16.919 -34.869  0.00  0.00    -0.037 C 
BRANCH  27  28
ATOM     28  C   UNL A   1      44.547 -17.114 -33.369  0.00  0.00    -0.052 C 
BRANCH  28  29
ATOM     29  C   UNL A   1      44.334 -18.577 -32.968  0.00  0.00    -0.052 C 
BRANCH  29  30
ATOM     30  C   UNL A   1      44.195 -19.481 -34.193  0.00  0.00    -0.037 C 
BRANCH  30  31
ATOM     31  C   UNL A   1      42.965 -20.384 -34.074  0.00  0.00    +0.009 C 
BRANCH  31  32
ATOM     32  N   UNL A   1      42.354 -20.184 -32.753  0.00  0.00    -0.343 N 
ATOM     33  H   UNL A   1      42.863 -20.111 -31.913  0.00  0.00    +0.000 HD
BRANCH  32  34
ATOM     34  C   UNL A   1      40.929 -20.111 -32.837  0.00  0.00    +0.041 A 
ATOM     35  C   UNL A   1      40.154 -21.283 -32.952  0.00  0.00    -0.005 A 
ATOM     36  C   UNL A   1      38.764 -21.137 -32.971  0.00  0.00    +0.047 A 
ATOM     37  N   UNL A   1      38.138 -19.944 -32.834  0.00  0.00    -0.251 NA
ATOM     38  C   UNL A   1      38.876 -18.833 -32.710  0.00  0.00    +0.073 A 
ATOM     39  C   UNL A   1      38.217 -17.616 -32.580  0.00  0.00    -0.036 A 
ATOM     40  C   UNL A   1      38.909 -16.409 -32.461  0.00  0.00    -0.060 A 
ATOM     41  C   UNL A   1      40.295 -16.409 -32.476  0.00  0.00    -0.061 A 
ATOM     42  C   UNL A   1      40.976 -17.619 -32.604  0.00  0.00    -0.051 A 
ATOM     43  C   UNL A   1      40.284 -18.850 -32.709  0.00  0.00    +0.021 A 
ATOM     44  C   UNL A   1      37.841 -22.324 -33.082  0.00  0.00    -0.010 C 
ATOM     45  C   UNL A   1      38.516 -23.561 -33.660  0.00  0.00    -0.047 C 
ATOM     46  C   UNL A   1      39.826 -23.815 -32.932  0.00  0.00    -0.049 C 
ATOM     47  C   UNL A   1      40.786 -22.643 -33.129  0.00  0.00    -0.024 C 
ENDBRANCH  32  34
ENDBRANCH  31  32
ENDBRANCH  30  31
ENDBRANCH  29  30
ENDBRANCH  28  29
ENDBRANCH  27  28
ENDBRANCH  26  27
ENDBRANCH   3  26
TORSDOF 13
ENDMDL
MODEL 6
REMARK VINA RESULT:    -6.859      2.224      6.658
REMARK INTER + INTRA:         -16.915
REMARK INTER:                 -13.109
REMARK INTRA:                  -3.806
REMARK UNBOUND:                -4.843
REMARK  Name = cpd34.pdb
REMARK  15 active torsions:
REMARK  status: ('A' for Active; 'I' for Inactive)
REMARK    1  A    between atoms: C_1  and  C_2
REMARK    2  A    between atoms: C_6  and  N_7
REMARK    3  A    between atoms: N_7  and  C_8
REMARK    4  A    between atoms: C_13  and  C_14
REMARK    5  A    between atoms: N_16  and  C_17
REMARK    6  A    between atoms: C_17  and  C_18
REMARK    7  A    between atoms: N_20  and  C_21
REMARK    8  A    between atoms: C_21  and  C_22
REMARK    9  A    between atoms: C_22  and  C_23
REMARK   10  A    between atoms: C_23  and  C_24
REMARK   11  A    between atoms: C_24  and  C_25
REMARK   12  A    between atoms: C_25  and  C_26
REMARK   13  A    between atoms: C_26  and  N_27
REMARK   14  A    between atoms: N_27  and  C_28
REMARK   15  A    between atoms: C_42  and  C_43
REMARK                            x       y       z     vdW  Elec       q    Type
REMARK                         _______ _______ _______ _____ _____    ______ ____
ROOT
ATOM      1  C   UNL A   1      32.225 -36.727 -25.797  0.00  0.00    +0.230 C 
ATOM      2  O   UNL A   1      32.014 -35.567 -25.452  0.00  0.00    -0.274 OA
ATOM      3  N   UNL A   1      31.562 -37.347 -26.837  0.00  0.00    -0.314 N 
ATOM      4  H   UNL A   1      31.888 -38.219 -27.156  0.00  0.00    +0.000 HD
ENDROOT
BRANCH   1   5
ATOM      5  C   UNL A   1      33.362 -37.556 -25.184  0.00  0.00    +0.088 C 
BRANCH   5   8
ATOM      6  C   UNL A   1      34.722 -38.107 -27.155  0.00  0.00    +0.246 C 
ATOM      7  O   UNL A   1      35.098 -36.946 -27.282  0.00  0.00    -0.270 OA
ATOM      8  N   UNL A   1      33.965 -38.538 -26.083  0.00  0.00    -0.303 N 
ATOM      9  H   UNL A   1      33.833 -39.500 -25.925  0.00  0.00    +0.000 HD
BRANCH   6  15
ATOM     10  C   UNL A   1      36.194 -38.955 -29.003  0.00  0.00    +0.044 A 
ATOM     11  C   UNL A   1      36.465 -39.931 -29.974  0.00  0.00    -0.040 A 
ATOM     12  C   UNL A   1      35.638 -41.046 -30.133  0.00  0.00    -0.060 A 
ATOM     13  C   UNL A   1      34.520 -41.207 -29.319  0.00  0.00    -0.061 A 
ATOM     14  C   UNL A   1      34.225 -40.252 -28.348  0.00  0.00    -0.048 A 
ATOM     15  C   UNL A   1      35.049 -39.124 -28.193  0.00  0.00    +0.058 A 
BRANCH  10  16
ATOM     16  N   UNL A   1      37.024 -37.819 -28.872  0.00  0.00    -0.314 N 
ATOM     17  H   UNL A   1      36.954 -37.363 -28.003  0.00  0.00    +0.000 HD
BRANCH  16  23
ATOM     18  C   UNL A   1      41.735 -37.078 -30.398  0.00  0.00    -0.039 C 
ATOM     19  C   UNL A   1      40.250 -36.869 -30.521  0.00  0.00    -0.046 A 
ATOM     20  C   UNL A   1      39.774 -36.049 -31.553  0.00  0.00    -0.058 A 
ATOM     21  C   UNL A   1      38.412 -35.819 -31.705  0.00  0.00    -0.060 A 
ATOM     22  C   UNL A   1      37.506 -36.400 -30.820  0.00  0.00    -0.040 A 
ATOM     23  C   UNL A   1      37.939 -37.223 -29.770  0.00  0.00    +0.035 A 
ATOM     24  C   UNL A   1      39.328 -37.491 -29.642  0.00  0.00    -0.026 A 
ATOM     25  C   UNL A   1      39.818 -38.396 -28.535  0.00  0.00    -0.038 C 
ENDBRANCH  16  23
ENDBRANCH  10  16
ENDBRANCH   6  15
ENDBRANCH   5   8
ENDBRANCH   1   5
BRANCH   3  26
ATOM     26  C   UNL A   1      30.403 -36.758 -27.473  0.00  0.00    +0.012 C 
BRANCH  26  27
ATOM     27  C   UNL A   1      30.564 -36.535 -28.977  0.00  0.00    -0.037 C 
BRANCH  27  28
ATOM     28  C   UNL A   1      31.891 -37.068 -29.525  0.00  0.00    -0.052 C 
BRANCH  28  29
ATOM     29  C   UNL A   1      31.663 -38.304 -30.399  0.00  0.00    -0.052 C 
BRANCH  29  30
ATOM     30  C   UNL A   1      32.724 -38.422 -31.494  0.00  0.00    -0.037 C 
BRANCH  30  31
ATOM     31  C   UNL A   1      33.708 -37.253 -31.437  0.00  0.00    +0.009 C 
BRANCH  31  32
ATOM     32  N   UNL A   1      33.465 -36.370 -32.587  0.00  0.00    -0.343 N 
ATOM     33  H   UNL A   1      33.791 -36.548 -33.499  0.00  0.00    +0.000 HD
BRANCH  32  34
ATOM     34  C   UNL A   1      32.700 -35.222 -32.217  0.00  0.00    +0.041 A 
ATOM     35  C   UNL A   1      33.291 -34.168 -31.490  0.00  0.00    -0.005 A 
ATOM     36  C   UNL A   1      32.497 -33.050 -31.214  0.00  0.00    +0.047 A 
ATOM     37  N   UNL A   1      31.223 -32.916 -31.652  0.00  0.00    -0.251 NA
ATOM     38  C   UNL A   1      30.668 -33.912 -32.355  0.00  0.00    +0.073 A 
ATOM     39  C   UNL A   1      29.356 -33.761 -32.788  0.00  0.00    -0.036 A 
ATOM     40  C   UNL A   1      28.697 -34.756 -33.513  0.00  0.00    -0.060 A 
ATOM     41  C   UNL A   1      29.358 -35.937 -33.813  0.00  0.00    -0.061 A 
ATOM     42  C   UNL A   1      30.675 -36.108 -33.389  0.00  0.00    -0.051 A 
ATOM     43  C   UNL A   1      31.357 -35.099 -32.668  0.00  0.00    +0.021 A 
ATOM     44  C   UNL A   1      33.031 -31.864 -30.452  0.00  0.00    -0.010 C 
ATOM     45  C   UNL A   1      34.260 -32.190 -29.613  0.00  0.00    -0.047 C 
ATOM     46  C   UNL A   1      35.277 -32.932 -30.465  0.00  0.00    -0.049 C 
ATOM     47  C   UNL A   1      34.700 -34.260 -30.954  0.00  0.00    -0.024 C 
ENDBRANCH  32  34
ENDBRANCH  31  32
ENDBRANCH  30  31
ENDBRANCH  29  30
ENDBRANCH  28  29
ENDBRANCH  27  28
ENDBRANCH  26  27
ENDBRANCH   3  26
TORSDOF 13
ENDMDL
MODEL 7
REMARK VINA RESULT:    -6.828     18.016     22.128
REMARK INTER + INTRA:         -16.861
REMARK INTER:                 -13.284
REMARK INTRA:                  -3.577
REMARK UNBOUND:                -4.843
REMARK  Name = cpd34.pdb
REMARK  15 active torsions:
REMARK  status: ('A' for Active; 'I' for Inactive)
REMARK    1  A    between atoms: C_1  and  C_2
REMARK    2  A    between atoms: C_6  and  N_7
REMARK    3  A    between atoms: N_7  and  C_8
REMARK    4  A    between atoms: C_13  and  C_14
REMARK    5  A    between atoms: N_16  and  C_17
REMARK    6  A    between atoms: C_17  and  C_18
REMARK    7  A    between atoms: N_20  and  C_21
REMARK    8  A    between atoms: C_21  and  C_22
REMARK    9  A    between atoms: C_22  and  C_23
REMARK   10  A    between atoms: C_23  and  C_24
REMARK   11  A    between atoms: C_24  and  C_25
REMARK   12  A    between atoms: C_25  and  C_26
REMARK   13  A    between atoms: C_26  and  N_27
REMARK   14  A    between atoms: N_27  and  C_28
REMARK   15  A    between atoms: C_42  and  C_43
REMARK                            x       y       z     vdW  Elec       q    Type
REMARK                         _______ _______ _______ _____ _____    ______ ____
ROOT
ATOM      1  C   UNL A   1      44.358 -19.557 -34.566  0.00  0.00    +0.230 C 
ATOM      2  O   UNL A   1      45.058 -18.915 -33.787  0.00  0.00    -0.274 OA
ATOM      3  N   UNL A   1      42.990 -19.689 -34.432  0.00  0.00    -0.314 N 
ATOM      4  H   UNL A   1      42.476 -20.084 -35.171  0.00  0.00    +0.000 HD
ENDROOT
BRANCH   1   5
ATOM      5  C   UNL A   1      44.931 -20.162 -35.855  0.00  0.00    +0.088 C 
BRANCH   5   8
ATOM      6  C   UNL A   1      46.248 -19.121 -37.650  0.00  0.00    +0.246 C 
ATOM      7  O   UNL A   1      47.171 -19.915 -37.501  0.00  0.00    -0.270 OA
ATOM      8  N   UNL A   1      45.048 -19.231 -36.975  0.00  0.00    -0.303 N 
ATOM      9  H   UNL A   1      44.275 -18.684 -37.247  0.00  0.00    +0.000 HD
BRANCH   6  15
ATOM     10  C   UNL A   1      46.898 -18.152 -39.872  0.00  0.00    +0.044 A 
ATOM     11  C   UNL A   1      47.028 -17.029 -40.704  0.00  0.00    -0.040 A 
ATOM     12  C   UNL A   1      46.660 -15.755 -40.266  0.00  0.00    -0.060 A 
ATOM     13  C   UNL A   1      46.153 -15.578 -38.982  0.00  0.00    -0.061 A 
ATOM     14  C   UNL A   1      46.016 -16.674 -38.132  0.00  0.00    -0.048 A 
ATOM     15  C   UNL A   1      46.394 -17.956 -38.567  0.00  0.00    +0.058 A 
BRANCH  10  16
ATOM     16  N   UNL A   1      47.299 -19.430 -40.321  0.00  0.00    -0.314 N 
ATOM     17  H   UNL A   1      48.183 -19.716 -39.995  0.00  0.00    +0.000 HD
BRANCH  16  23
ATOM     18  C   UNL A   1      47.189 -23.953 -42.467  0.00  0.00    -0.039 C 
ATOM     19  C   UNL A   1      46.599 -22.594 -42.197  0.00  0.00    -0.046 A 
ATOM     20  C   UNL A   1      45.380 -22.263 -42.806  0.00  0.00    -0.058 A 
ATOM     21  C   UNL A   1      44.798 -21.019 -42.594  0.00  0.00    -0.060 A 
ATOM     22  C   UNL A   1      45.431 -20.085 -41.778  0.00  0.00    -0.040 A 
ATOM     23  C   UNL A   1      46.654 -20.372 -41.155  0.00  0.00    +0.035 A 
ATOM     24  C   UNL A   1      47.227 -21.659 -41.337  0.00  0.00    -0.026 A 
ATOM     25  C   UNL A   1      48.531 -22.004 -40.655  0.00  0.00    -0.038 C 
ENDBRANCH  16  23
ENDBRANCH  10  16
ENDBRANCH   6  15
ENDBRANCH   5   8
ENDBRANCH   1   5
BRANCH   3  26
ATOM     26  C   UNL A   1      42.288 -19.264 -33.239  0.00  0.00    +0.012 C 
BRANCH  26  27
ATOM     27  C   UNL A   1      41.075 -20.128 -32.890  0.00  0.00    -0.037 C 
BRANCH  27  28
ATOM     28  C   UNL A   1      41.348 -21.629 -33.023  0.00  0.00    -0.052 C 
BRANCH  28  29
ATOM     29  C   UNL A   1      40.158 -22.446 -32.512  0.00  0.00    -0.052 C 
BRANCH  29  30
ATOM     30  C   UNL A   1      39.413 -23.132 -33.656  0.00  0.00    -0.037 C 
BRANCH  30  31
ATOM     31  C   UNL A   1      40.200 -23.032 -34.965  0.00  0.00    +0.009 C 
BRANCH  31  32
ATOM     32  N   UNL A   1      39.296 -22.580 -36.031  0.00  0.00    -0.343 N 
ATOM     33  H   UNL A   1      38.561 -23.123 -36.400  0.00  0.00    +0.000 HD
BRANCH  32  34
ATOM     34  C   UNL A   1      39.614 -21.258 -36.467  0.00  0.00    +0.041 A 
ATOM     35  C   UNL A   1      39.013 -20.136 -35.860  0.00  0.00    -0.005 A 
ATOM     36  C   UNL A   1      39.417 -18.871 -36.299  0.00  0.00    +0.047 A 
ATOM     37  N   UNL A   1      40.381 -18.679 -37.230  0.00  0.00    -0.251 NA
ATOM     38  C   UNL A   1      40.963 -19.746 -37.794  0.00  0.00    +0.073 A 
ATOM     39  C   UNL A   1      41.943 -19.530 -38.755  0.00  0.00    -0.036 A 
ATOM     40  C   UNL A   1      42.589 -20.584 -39.404  0.00  0.00    -0.060 A 
ATOM     41  C   UNL A   1      42.247 -21.892 -39.094  0.00  0.00    -0.061 A 
ATOM     42  C   UNL A   1      41.266 -22.131 -38.133  0.00  0.00    -0.051 A 
ATOM     43  C   UNL A   1      40.618 -21.069 -37.458  0.00  0.00    +0.021 A 
ATOM     44  C   UNL A   1      38.844 -17.606 -35.713  0.00  0.00    -0.010 C 
ATOM     45  C   UNL A   1      37.503 -17.814 -35.021  0.00  0.00    -0.047 C 
ATOM     46  C   UNL A   1      37.598 -18.994 -34.067  0.00  0.00    -0.049 C 
ATOM     47  C   UNL A   1      37.917 -20.278 -34.831  0.00  0.00    -0.024 C 
ENDBRANCH  32  34
ENDBRANCH  31  32
ENDBRANCH  30  31
ENDBRANCH  29  30
ENDBRANCH  28  29
ENDBRANCH  27  28
ENDBRANCH  26  27
ENDBRANCH   3  26
TORSDOF 13
ENDMDL
MODEL 8
REMARK VINA RESULT:    -6.806     18.825     22.780
REMARK INTER + INTRA:         -16.821
REMARK INTER:                 -12.514
REMARK INTRA:                  -4.307
REMARK UNBOUND:                -4.843
REMARK  Name = cpd34.pdb
REMARK  15 active torsions:
REMARK  status: ('A' for Active; 'I' for Inactive)
REMARK    1  A    between atoms: C_1  and  C_2
REMARK    2  A    between atoms: C_6  and  N_7
REMARK    3  A    between atoms: N_7  and  C_8
REMARK    4  A    between atoms: C_13  and  C_14
REMARK    5  A    between atoms: N_16  and  C_17
REMARK    6  A    between atoms: C_17  and  C_18
REMARK    7  A    between atoms: N_20  and  C_21
REMARK    8  A    between atoms: C_21  and  C_22
REMARK    9  A    between atoms: C_22  and  C_23
REMARK   10  A    between atoms: C_23  and  C_24
REMARK   11  A    between atoms: C_24  and  C_25
REMARK   12  A    between atoms: C_25  and  C_26
REMARK   13  A    between atoms: C_26  and  N_27
REMARK   14  A    between atoms: N_27  and  C_28
REMARK   15  A    between atoms: C_42  and  C_43
REMARK                            x       y       z     vdW  Elec       q    Type
REMARK                         _______ _______ _______ _____ _____    ______ ____
ROOT
ATOM      1  C   UNL A   1      43.661 -14.951 -39.671  0.00  0.00    +0.230 C 
ATOM      2  O   UNL A   1      43.383 -14.740 -40.849  0.00  0.00    -0.274 OA
ATOM      3  N   UNL A   1      42.868 -15.695 -38.821  0.00  0.00    -0.314 N 
ATOM      4  H   UNL A   1      43.224 -15.953 -37.941  0.00  0.00    +0.000 HD
ENDROOT
BRANCH   1   5
ATOM      5  C   UNL A   1      45.006 -14.518 -39.069  0.00  0.00    +0.088 C 
BRANCH   5   8
ATOM      6  C   UNL A   1      46.699 -16.105 -38.263  0.00  0.00    +0.246 C 
ATOM      7  O   UNL A   1      47.442 -15.871 -39.211  0.00  0.00    -0.270 OA
ATOM      8  N   UNL A   1      45.532 -15.403 -38.033  0.00  0.00    -0.303 N 
ATOM      9  H   UNL A   1      45.058 -15.499 -37.176  0.00  0.00    +0.000 HD
BRANCH   6  15
ATOM     10  C   UNL A   1      47.301 -18.498 -37.802  0.00  0.00    +0.044 A 
ATOM     11  C   UNL A   1      47.588 -19.509 -36.871  0.00  0.00    -0.040 A 
ATOM     12  C   UNL A   1      47.604 -19.249 -35.498  0.00  0.00    -0.060 A 
ATOM     13  C   UNL A   1      47.333 -17.968 -35.028  0.00  0.00    -0.061 A 
ATOM     14  C   UNL A   1      47.042 -16.944 -35.928  0.00  0.00    -0.048 A 
ATOM     15  C   UNL A   1      47.016 -17.205 -37.309  0.00  0.00    +0.058 A 
BRANCH  10  16
ATOM     16  N   UNL A   1      47.263 -18.782 -39.184  0.00  0.00    -0.314 N 
ATOM     17  H   UNL A   1      47.806 -18.176 -39.738  0.00  0.00    +0.000 HD
BRANCH  16  23
ATOM     18  C   UNL A   1      44.011 -20.075 -42.766  0.00  0.00    -0.039 C 
ATOM     19  C   UNL A   1      44.994 -20.414 -41.677  0.00  0.00    -0.046 A 
ATOM     20  C   UNL A   1      45.224 -21.765 -41.382  0.00  0.00    -0.058 A 
ATOM     21  C   UNL A   1      46.116 -22.129 -40.381  0.00  0.00    -0.060 A 
ATOM     22  C   UNL A   1      46.786 -21.147 -39.655  0.00  0.00    -0.040 A 
ATOM     23  C   UNL A   1      46.582 -19.783 -39.914  0.00  0.00    +0.035 A 
ATOM     24  C   UNL A   1      45.702 -19.413 -40.966  0.00  0.00    -0.026 A 
ATOM     25  C   UNL A   1      45.484 -17.951 -41.282  0.00  0.00    -0.038 C 
ENDBRANCH  16  23
ENDBRANCH  10  16
ENDBRANCH   6  15
ENDBRANCH   5   8
ENDBRANCH   1   5
BRANCH   3  26
ATOM     26  C   UNL A   1      41.529 -16.110 -39.182  0.00  0.00    +0.012 C 
BRANCH  26  27
ATOM     27  C   UNL A   1      41.415 -17.587 -39.562  0.00  0.00    -0.037 C 
BRANCH  27  28
ATOM     28  C   UNL A   1      41.748 -18.532 -38.404  0.00  0.00    -0.052 C 
BRANCH  28  29
ATOM     29  C   UNL A   1      43.000 -19.356 -38.718  0.00  0.00    -0.052 C 
BRANCH  29  30
ATOM     30  C   UNL A   1      42.728 -20.856 -38.610  0.00  0.00    -0.037 C 
BRANCH  30  31
ATOM     31  C   UNL A   1      41.556 -21.138 -37.668  0.00  0.00    +0.009 C 
BRANCH  31  32
ATOM     32  N   UNL A   1      42.060 -21.831 -36.474  0.00  0.00    -0.343 N 
ATOM     33  H   UNL A   1      42.696 -22.583 -36.499  0.00  0.00    +0.000 HD
BRANCH  32  34
ATOM     34  C   UNL A   1      41.514 -21.280 -35.275  0.00  0.00    +0.041 A 
ATOM     35  C   UNL A   1      40.344 -21.822 -34.703  0.00  0.00    -0.005 A 
ATOM     36  C   UNL A   1      39.901 -21.269 -33.497  0.00  0.00    +0.047 A 
ATOM     37  N   UNL A   1      40.563 -20.288 -32.840  0.00  0.00    -0.251 NA
ATOM     38  C   UNL A   1      41.682 -19.785 -33.377  0.00  0.00    +0.073 A 
ATOM     39  C   UNL A   1      42.343 -18.772 -32.694  0.00  0.00    -0.036 A 
ATOM     40  C   UNL A   1      43.508 -18.182 -33.189  0.00  0.00    -0.060 A 
ATOM     41  C   UNL A   1      44.028 -18.606 -34.402  0.00  0.00    -0.061 A 
ATOM     42  C   UNL A   1      43.381 -19.622 -35.104  0.00  0.00    -0.051 A 
ATOM     43  C   UNL A   1      42.209 -20.238 -34.601  0.00  0.00    +0.021 A 
ATOM     44  C   UNL A   1      38.666 -21.777 -32.796  0.00  0.00    -0.010 C 
ATOM     45  C   UNL A   1      37.719 -22.537 -33.716  0.00  0.00    -0.047 C 
ATOM     46  C   UNL A   1      38.498 -23.576 -34.506  0.00  0.00    -0.049 C 
ATOM     47  C   UNL A   1      39.545 -22.902 -35.392  0.00  0.00    -0.024 C 
ENDBRANCH  32  34
ENDBRANCH  31  32
ENDBRANCH  30  31
ENDBRANCH  29  30
ENDBRANCH  28  29
ENDBRANCH  27  28
ENDBRANCH  26  27
ENDBRANCH   3  26
TORSDOF 13
ENDMDL
MODEL 9
REMARK VINA RESULT:    -6.747     18.640     22.675
REMARK INTER + INTRA:         -16.718
REMARK INTER:                 -12.622
REMARK INTRA:                  -4.096
REMARK UNBOUND:                -4.843
REMARK  Name = cpd34.pdb
REMARK  15 active torsions:
REMARK  status: ('A' for Active; 'I' for Inactive)
REMARK    1  A    between atoms: C_1  and  C_2
REMARK    2  A    between atoms: C_6  and  N_7
REMARK    3  A    between atoms: N_7  and  C_8
REMARK    4  A    between atoms: C_13  and  C_14
REMARK    5  A    between atoms: N_16  and  C_17
REMARK    6  A    between atoms: C_17  and  C_18
REMARK    7  A    between atoms: N_20  and  C_21
REMARK    8  A    between atoms: C_21  and  C_22
REMARK    9  A    between atoms: C_22  and  C_23
REMARK   10  A    between atoms: C_23  and  C_24
REMARK   11  A    between atoms: C_24  and  C_25
REMARK   12  A    between atoms: C_25  and  C_26
REMARK   13  A    between atoms: C_26  and  N_27
REMARK   14  A    between atoms: N_27  and  C_28
REMARK   15  A    between atoms: C_42  and  C_43
REMARK                            x       y       z     vdW  Elec       q    Type
REMARK                         _______ _______ _______ _____ _____    ______ ____
ROOT
ATOM      1  C   UNL A   1      42.365 -17.141 -38.191  0.00  0.00    +0.230 C 
ATOM      2  O   UNL A   1      41.553 -17.855 -37.608  0.00  0.00    -0.274 OA
ATOM      3  N   UNL A   1      43.152 -16.203 -37.554  0.00  0.00    -0.314 N 
ATOM      4  H   UNL A   1      43.885 -15.778 -38.054  0.00  0.00    +0.000 HD
ENDROOT
BRANCH   1   5
ATOM      5  C   UNL A   1      42.682 -17.331 -39.681  0.00  0.00    +0.088 C 
BRANCH   5   8
ATOM      6  C   UNL A   1      44.285 -18.467 -41.156  0.00  0.00    +0.246 C 
ATOM      7  O   UNL A   1      44.421 -17.470 -41.858  0.00  0.00    -0.270 OA
ATOM      8  N   UNL A   1      43.547 -18.467 -39.988  0.00  0.00    -0.303 N 
ATOM      9  H   UNL A   1      43.604 -19.229 -39.367  0.00  0.00    +0.000 HD
BRANCH   6  15
ATOM     10  C   UNL A   1      46.245 -20.034 -41.219  0.00  0.00    +0.044 A 
ATOM     11  C   UNL A   1      46.792 -21.263 -41.620  0.00  0.00    -0.040 A 
ATOM     12  C   UNL A   1      46.031 -22.200 -42.323  0.00  0.00    -0.060 A 
ATOM     13  C   UNL A   1      44.704 -21.926 -42.639  0.00  0.00    -0.061 A 
ATOM     14  C   UNL A   1      44.135 -20.712 -42.256  0.00  0.00    -0.048 A 
ATOM     15  C   UNL A   1      44.900 -19.763 -41.557  0.00  0.00    +0.058 A 
BRANCH  10  16
ATOM     16  N   UNL A   1      47.035 -19.085 -40.532  0.00  0.00    -0.314 N 
ATOM     17  H   UNL A   1      47.683 -18.609 -41.100  0.00  0.00    +0.000 HD
BRANCH  16  23
ATOM     18  C   UNL A   1      47.228 -15.485 -37.058  0.00  0.00    -0.039 C 
ATOM     19  C   UNL A   1      47.143 -16.929 -37.472  0.00  0.00    -0.046 A 
ATOM     20  C   UNL A   1      47.098 -17.909 -36.470  0.00  0.00    -0.058 A 
ATOM     21  C   UNL A   1      47.027 -19.257 -36.801  0.00  0.00    -0.060 A 
ATOM     22  C   UNL A   1      47.009 -19.645 -38.139  0.00  0.00    -0.040 A 
ATOM     23  C   UNL A   1      47.059 -18.698 -39.172  0.00  0.00    +0.035 A 
ATOM     24  C   UNL A   1      47.088 -17.319 -38.833  0.00  0.00    -0.026 A 
ATOM     25  C   UNL A   1      47.115 -16.277 -39.929  0.00  0.00    -0.038 C 
ENDBRANCH  16  23
ENDBRANCH  10  16
ENDBRANCH   6  15
ENDBRANCH   5   8
ENDBRANCH   1   5
BRANCH   3  26
ATOM     26  C   UNL A   1      42.934 -15.823 -36.174  0.00  0.00    +0.012 C 
BRANCH  26  27
ATOM     27  C   UNL A   1      44.143 -16.056 -35.266  0.00  0.00    -0.037 C 
BRANCH  27  28
ATOM     28  C   UNL A   1      43.755 -16.495 -33.851  0.00  0.00    -0.052 C 
BRANCH  28  29
ATOM     29  C   UNL A   1      43.076 -17.867 -33.873  0.00  0.00    -0.052 C 
BRANCH  29  30
ATOM     30  C   UNL A   1      44.050 -18.970 -34.286  0.00  0.00    -0.037 C 
BRANCH  30  31
ATOM     31  C   UNL A   1      43.634 -19.605 -35.614  0.00  0.00    +0.009 C 
BRANCH  31  32
ATOM     32  N   UNL A   1      43.212 -20.991 -35.368  0.00  0.00    -0.343 N 
ATOM     33  H   UNL A   1      43.799 -21.691 -34.999  0.00  0.00    +0.000 HD
BRANCH  32  34
ATOM     34  C   UNL A   1      41.846 -21.198 -35.730  0.00  0.00    +0.041 A 
ATOM     35  C   UNL A   1      40.826 -21.125 -34.759  0.00  0.00    -0.005 A 
ATOM     36  C   UNL A   1      39.507 -21.281 -35.197  0.00  0.00    +0.047 A 
ATOM     37  N   UNL A   1      39.168 -21.444 -36.498  0.00  0.00    -0.251 NA
ATOM     38  C   UNL A   1      40.138 -21.498 -37.421  0.00  0.00    +0.073 A 
ATOM     39  C   UNL A   1      39.773 -21.676 -38.750  0.00  0.00    -0.036 A 
ATOM     40  C   UNL A   1      40.720 -21.758 -39.773  0.00  0.00    -0.060 A 
ATOM     41  C   UNL A   1      42.068 -21.667 -39.467  0.00  0.00    -0.061 A 
ATOM     42  C   UNL A   1      42.457 -21.487 -38.140  0.00  0.00    -0.051 A 
ATOM     43  C   UNL A   1      41.503 -21.386 -37.098  0.00  0.00    +0.021 A 
ATOM     44  C   UNL A   1      38.340 -21.213 -34.245  0.00  0.00    -0.010 C 
ATOM     45  C   UNL A   1      38.729 -21.467 -32.795  0.00  0.00    -0.047 C 
ATOM     46  C   UNL A   1      39.925 -20.603 -32.428  0.00  0.00    -0.049 C 
ATOM     47  C   UNL A   1      41.133 -20.965 -33.289  0.00  0.00    -0.024 C 
ENDBRANCH  32  34
ENDBRANCH  31  32
ENDBRANCH  30  31
ENDBRANCH  29  30
ENDBRANCH  28  29
ENDBRANCH  27  28
ENDBRANCH  26  27
ENDBRANCH   3  26
TORSDOF 13
ENDMDL
MODEL 10
REMARK VINA RESULT:    -6.706      2.406      6.479
REMARK INTER + INTRA:         -16.646
REMARK INTER:                 -11.548
REMARK INTRA:                  -5.098
REMARK UNBOUND:                -4.843
REMARK  Name = cpd34.pdb
REMARK  15 active torsions:
REMARK  status: ('A' for Active; 'I' for Inactive)
REMARK    1  A    between atoms: C_1  and  C_2
REMARK    2  A    between atoms: C_6  and  N_7
REMARK    3  A    between atoms: N_7  and  C_8
REMARK    4  A    between atoms: C_13  and  C_14
REMARK    5  A    between atoms: N_16  and  C_17
REMARK    6  A    between atoms: C_17  and  C_18
REMARK    7  A    between atoms: N_20  and  C_21
REMARK    8  A    between atoms: C_21  and  C_22
REMARK    9  A    between atoms: C_22  and  C_23
REMARK   10  A    between atoms: C_23  and  C_24
REMARK   11  A    between atoms: C_24  and  C_25
REMARK   12  A    between atoms: C_25  and  C_26
REMARK   13  A    between atoms: C_26  and  N_27
REMARK   14  A    between atoms: N_27  and  C_28
REMARK   15  A    between atoms: C_42  and  C_43
REMARK                            x       y       z     vdW  Elec       q    Type
REMARK                         _______ _______ _______ _____ _____    ______ ____
ROOT
ATOM      1  C   UNL A   1      28.964 -34.211 -29.021  0.00  0.00    +0.230 C 
ATOM      2  O   UNL A   1      28.269 -33.753 -28.118  0.00  0.00    -0.274 OA
ATOM      3  N   UNL A   1      29.937 -33.485 -29.678  0.00  0.00    -0.314 N 
ATOM      4  H   UNL A   1      30.557 -33.956 -30.280  0.00  0.00    +0.000 HD
ENDROOT
BRANCH   1   5
ATOM      5  C   UNL A   1      28.908 -35.696 -29.408  0.00  0.00    +0.088 C 
BRANCH   5   8
ATOM      6  C   UNL A   1      29.398 -37.301 -31.203  0.00  0.00    +0.246 C 
ATOM      7  O   UNL A   1      29.010 -38.249 -30.528  0.00  0.00    -0.270 OA
ATOM      8  N   UNL A   1      29.275 -35.987 -30.792  0.00  0.00    -0.303 N 
ATOM      9  H   UNL A   1      29.435 -35.253 -31.427  0.00  0.00    +0.000 HD
BRANCH   6  15
ATOM     10  C   UNL A   1      31.462 -37.712 -32.571  0.00  0.00    +0.044 A 
ATOM     11  C   UNL A   1      32.052 -37.917 -33.828  0.00  0.00    -0.040 A 
ATOM     12  C   UNL A   1      31.282 -37.954 -34.993  0.00  0.00    -0.060 A 
ATOM     13  C   UNL A   1      29.903 -37.786 -34.924  0.00  0.00    -0.061 A 
ATOM     14  C   UNL A   1      29.289 -37.576 -33.690  0.00  0.00    -0.048 A 
ATOM     15  C   UNL A   1      30.062 -37.529 -32.517  0.00  0.00    +0.058 A 
BRANCH  10  16
ATOM     16  N   UNL A   1      32.256 -37.651 -31.404  0.00  0.00    -0.314 N 
ATOM     17  H   UNL A   1      31.996 -36.941 -30.773  0.00  0.00    +0.000 HD
BRANCH  16  23
ATOM     18  C   UNL A   1      34.299 -40.861 -28.150  0.00  0.00    -0.039 C 
ATOM     19  C   UNL A   1      34.354 -40.011 -29.391  0.00  0.00    -0.046 A 
ATOM     20  C   UNL A   1      35.542 -39.990 -30.134  0.00  0.00    -0.058 A 
ATOM     21  C   UNL A   1      35.645 -39.215 -31.283  0.00  0.00    -0.060 A 
ATOM     22  C   UNL A   1      34.564 -38.442 -31.700  0.00  0.00    -0.040 A 
ATOM     23  C   UNL A   1      33.359 -38.429 -30.983  0.00  0.00    +0.035 A 
ATOM     24  C   UNL A   1      33.240 -39.254 -29.833  0.00  0.00    -0.026 A 
ATOM     25  C   UNL A   1      31.942 -39.278 -29.057  0.00  0.00    -0.038 C 
ENDBRANCH  16  23
ENDBRANCH  10  16
ENDBRANCH   6  15
ENDBRANCH   5   8
ENDBRANCH   1   5
BRANCH   3  26
ATOM     26  C   UNL A   1      30.076 -32.054 -29.512  0.00  0.00    +0.012 C 
BRANCH  26  27
ATOM     27  C   UNL A   1      31.116 -31.418 -30.434  0.00  0.00    -0.037 C 
BRANCH  27  28
ATOM     28  C   UNL A   1      32.545 -31.884 -30.140  0.00  0.00    -0.052 C 
BRANCH  28  29
ATOM     29  C   UNL A   1      33.110 -32.684 -31.318  0.00  0.00    -0.052 C 
BRANCH  29  30
ATOM     30  C   UNL A   1      34.620 -32.489 -31.457  0.00  0.00    -0.037 C 
BRANCH  30  31
ATOM     31  C   UNL A   1      35.383 -33.357 -30.456  0.00  0.00    +0.009 C 
BRANCH  31  32
ATOM     32  N   UNL A   1      35.153 -34.772 -30.780  0.00  0.00    -0.343 N 
ATOM     33  H   UNL A   1      34.800 -35.092 -31.642  0.00  0.00    +0.000 HD
BRANCH  32  34
ATOM     34  C   UNL A   1      35.503 -35.626 -29.690  0.00  0.00    +0.041 A 
ATOM     35  C   UNL A   1      34.569 -35.916 -28.674  0.00  0.00    -0.005 A 
ATOM     36  C   UNL A   1      34.963 -36.806 -27.670  0.00  0.00    +0.047 A 
ATOM     37  N   UNL A   1      36.164 -37.431 -27.659  0.00  0.00    -0.251 NA
ATOM     38  C   UNL A   1      37.045 -37.166 -28.633  0.00  0.00    +0.073 A 
ATOM     39  C   UNL A   1      38.277 -37.809 -28.600  0.00  0.00    -0.036 A 
ATOM     40  C   UNL A   1      39.258 -37.579 -29.567  0.00  0.00    -0.060 A 
ATOM     41  C   UNL A   1      39.011 -36.681 -30.593  0.00  0.00    -0.061 A 
ATOM     42  C   UNL A   1      37.781 -36.026 -30.645  0.00  0.00    -0.051 A 
ATOM     43  C   UNL A   1      36.774 -36.264 -29.679  0.00  0.00    +0.021 A 
ATOM     44  C   UNL A   1      34.041 -37.191 -26.542  0.00  0.00    -0.010 C 
ATOM     45  C   UNL A   1      32.912 -36.193 -26.318  0.00  0.00    -0.047 C 
ATOM     46  C   UNL A   1      32.233 -35.885 -27.643  0.00  0.00    -0.049 C 
ATOM     47  C   UNL A   1      33.220 -35.239 -28.614  0.00  0.00    -0.024 C 
ENDBRANCH  32  34
ENDBRANCH  31  32
ENDBRANCH  30  31
ENDBRANCH  29  30
ENDBRANCH  28  29
ENDBRANCH  27  28
ENDBRANCH  26  27
ENDBRANCH   3  26
TORSDOF 13
ENDMDL
MODEL 11
REMARK VINA RESULT:    -6.621     19.003     23.251
REMARK INTER + INTRA:         -16.496
REMARK INTER:                 -12.460
REMARK INTRA:                  -4.036
REMARK UNBOUND:                -4.843
REMARK  Name = cpd34.pdb
REMARK  15 active torsions:
REMARK  status: ('A' for Active; 'I' for Inactive)
REMARK    1  A    between atoms: C_1  and  C_2
REMARK    2  A    between atoms: C_6  and  N_7
REMARK    3  A    between atoms: N_7  and  C_8
REMARK    4  A    between atoms: C_13  and  C_14
REMARK    5  A    between atoms: N_16  and  C_17
REMARK    6  A    between atoms: C_17  and  C_18
REMARK    7  A    between atoms: N_20  and  C_21
REMARK    8  A    between atoms: C_21  and  C_22
REMARK    9  A    between atoms: C_22  and  C_23
REMARK   10  A    between atoms: C_23  and  C_24
REMARK   11  A    between atoms: C_24  and  C_25
REMARK   12  A    between atoms: C_25  and  C_26
REMARK   13  A    between atoms: C_26  and  N_27
REMARK   14  A    between atoms: N_27  and  C_28
REMARK   15  A    between atoms: C_42  and  C_43
REMARK                            x       y       z     vdW  Elec       q    Type
REMARK                         _______ _______ _______ _____ _____    ______ ____
ROOT
ATOM      1  C   UNL A   1      43.794 -14.960 -40.276  0.00  0.00    +0.230 C 
ATOM      2  O   UNL A   1      43.598 -14.374 -41.338  0.00  0.00    -0.274 OA
ATOM      3  N   UNL A   1      42.904 -15.861 -39.727  0.00  0.00    -0.314 N 
ATOM      4  H   UNL A   1      43.192 -16.406 -38.960  0.00  0.00    +0.000 HD
ENDROOT
BRANCH   1   5
ATOM      5  C   UNL A   1      45.128 -14.846 -39.525  0.00  0.00    +0.088 C 
BRANCH   5   8
ATOM      6  C   UNL A   1      46.426 -16.518 -38.278  0.00  0.00    +0.246 C 
ATOM      7  O   UNL A   1      47.426 -16.323 -38.961  0.00  0.00    -0.270 OA
ATOM      8  N   UNL A   1      45.279 -15.756 -38.393  0.00  0.00    -0.303 N 
ATOM      9  H   UNL A   1      44.569 -15.826 -37.716  0.00  0.00    +0.000 HD
BRANCH   6  15
ATOM     10  C   UNL A   1      46.765 -18.935 -37.689  0.00  0.00    +0.044 A 
ATOM     11  C   UNL A   1      46.712 -19.959 -36.731  0.00  0.00    -0.040 A 
ATOM     12  C   UNL A   1      46.314 -19.703 -35.416  0.00  0.00    -0.060 A 
ATOM     13  C   UNL A   1      45.961 -18.412 -35.033  0.00  0.00    -0.061 A 
ATOM     14  C   UNL A   1      46.001 -17.375 -35.964  0.00  0.00    -0.048 A 
ATOM     15  C   UNL A   1      46.391 -17.632 -37.289  0.00  0.00    +0.058 A 
BRANCH  10  16
ATOM     16  N   UNL A   1      47.143 -19.214 -39.021  0.00  0.00    -0.314 N 
ATOM     17  H   UNL A   1      47.890 -18.666 -39.354  0.00  0.00    +0.000 HD
BRANCH  16  23
ATOM     18  C   UNL A   1      44.484 -20.182 -43.152  0.00  0.00    -0.039 C 
ATOM     19  C   UNL A   1      45.342 -20.611 -41.992  0.00  0.00    -0.046 A 
ATOM     20  C   UNL A   1      45.634 -21.975 -41.846  0.00  0.00    -0.058 A 
ATOM     21  C   UNL A   1      46.416 -22.423 -40.788  0.00  0.00    -0.060 A 
ATOM     22  C   UNL A   1      46.911 -21.513 -39.856  0.00  0.00    -0.040 A 
ATOM     23  C   UNL A   1      46.639 -20.141 -39.961  0.00  0.00    +0.035 A 
ATOM     24  C   UNL A   1      45.875 -19.680 -41.066  0.00  0.00    -0.026 A 
ATOM     25  C   UNL A   1      45.590 -18.203 -41.217  0.00  0.00    -0.038 C 
ENDBRANCH  16  23
ENDBRANCH  10  16
ENDBRANCH   6  15
ENDBRANCH   5   8
ENDBRANCH   1   5
BRANCH   3  26
ATOM     26  C   UNL A   1      41.563 -16.032 -40.243  0.00  0.00    +0.012 C 
BRANCH  26  27
ATOM     27  C   UNL A   1      40.462 -15.609 -39.269  0.00  0.00    -0.037 C 
BRANCH  27  28
ATOM     28  C   UNL A   1      39.052 -15.876 -39.803  0.00  0.00    -0.052 C 
BRANCH  28  29
ATOM     29  C   UNL A   1      38.808 -17.379 -39.968  0.00  0.00    -0.052 C 
BRANCH  29  30
ATOM     30  C   UNL A   1      37.625 -17.853 -39.125  0.00  0.00    -0.037 C 
BRANCH  30  31
ATOM     31  C   UNL A   1      38.092 -18.389 -37.770  0.00  0.00    +0.009 C 
BRANCH  31  32
ATOM     32  N   UNL A   1      38.264 -19.845 -37.868  0.00  0.00    -0.343 N 
ATOM     33  H   UNL A   1      37.686 -20.435 -38.403  0.00  0.00    +0.000 HD
BRANCH  32  34
ATOM     34  C   UNL A   1      39.374 -20.297 -37.090  0.00  0.00    +0.041 A 
ATOM     35  C   UNL A   1      40.670 -20.341 -37.644  0.00  0.00    -0.005 A 
ATOM     36  C   UNL A   1      41.716 -20.739 -36.806  0.00  0.00    +0.047 A 
ATOM     37  N   UNL A   1      41.550 -21.031 -35.494  0.00  0.00    -0.251 NA
ATOM     38  C   UNL A   1      40.320 -20.974 -34.966  0.00  0.00    +0.073 A 
ATOM     39  C   UNL A   1      40.166 -21.286 -33.621  0.00  0.00    -0.036 A 
ATOM     40  C   UNL A   1      38.919 -21.267 -32.994  0.00  0.00    -0.060 A 
ATOM     41  C   UNL A   1      37.790 -20.934 -33.726  0.00  0.00    -0.061 A 
ATOM     42  C   UNL A   1      37.921 -20.617 -35.077  0.00  0.00    -0.051 A 
ATOM     43  C   UNL A   1      39.184 -20.617 -35.717  0.00  0.00    +0.021 A 
ATOM     44  C   UNL A   1      43.141 -20.813 -37.293  0.00  0.00    -0.010 C 
ATOM     45  C   UNL A   1      43.256 -20.916 -38.809  0.00  0.00    -0.047 C 
ATOM     46  C   UNL A   1      42.396 -19.845 -39.460  0.00  0.00    -0.049 C 
ATOM     47  C   UNL A   1      40.924 -20.049 -39.104  0.00  0.00    -0.024 C 
ENDBRANCH  32  34
ENDBRANCH  31  32
ENDBRANCH  30  31
ENDBRANCH  29  30
ENDBRANCH  28  29
ENDBRANCH  27  28
ENDBRANCH  26  27
ENDBRANCH   3  26
TORSDOF 13
ENDMDL
MODEL 12
REMARK VINA RESULT:    -6.589     20.000     23.289
REMARK INTER + INTRA:         -16.439
REMARK INTER:                 -11.736
REMARK INTRA:                  -4.703
REMARK UNBOUND:                -4.843
REMARK  Name = cpd34.pdb
REMARK  15 active torsions:
REMARK  status: ('A' for Active; 'I' for Inactive)
REMARK    1  A    between atoms: C_1  and  C_2
REMARK    2  A    between atoms: C_6  and  N_7
REMARK    3  A    between atoms: N_7  and  C_8
REMARK    4  A    between atoms: C_13  and  C_14
REMARK    5  A    between atoms: N_16  and  C_17
REMARK    6  A    between atoms: C_17  and  C_18
REMARK    7  A    between atoms: N_20  and  C_21
REMARK    8  A    between atoms: C_21  and  C_22
REMARK    9  A    between atoms: C_22  and  C_23
REMARK   10  A    between atoms: C_23  and  C_24
REMARK   11  A    between atoms: C_24  and  C_25
REMARK   12  A    between atoms: C_25  and  C_26
REMARK   13  A    between atoms: C_26  and  N_27
REMARK   14  A    between atoms: N_27  and  C_28
REMARK   15  A    between atoms: C_42  and  C_43
REMARK                            x       y       z     vdW  Elec       q    Type
REMARK                         _______ _______ _______ _____ _____    ______ ____
ROOT
ATOM      1  C   UNL A   1      43.262 -15.098 -40.001  0.00  0.00    +0.230 C 
ATOM      2  O   UNL A   1      43.219 -15.133 -41.228  0.00  0.00    -0.274 OA
ATOM      3  N   UNL A   1      42.186 -15.400 -39.191  0.00  0.00    -0.314 N 
ATOM      4  H   UNL A   1      42.333 -15.502 -38.223  0.00  0.00    +0.000 HD
ENDROOT
BRANCH   1   5
ATOM      5  C   UNL A   1      44.576 -14.851 -39.247  0.00  0.00    +0.088 C 
BRANCH   5   8
ATOM      6  C   UNL A   1      46.232 -16.283 -38.133  0.00  0.00    +0.246 C 
ATOM      7  O   UNL A   1      47.170 -15.696 -38.663  0.00  0.00    -0.270 OA
ATOM      8  N   UNL A   1      44.921 -15.867 -38.256  0.00  0.00    -0.303 N 
ATOM      9  H   UNL A   1      44.222 -16.255 -37.680  0.00  0.00    +0.000 HD
BRANCH   6  15
ATOM     10  C   UNL A   1      46.913 -18.695 -37.981  0.00  0.00    +0.044 A 
ATOM     11  C   UNL A   1      47.117 -19.840 -37.196  0.00  0.00    -0.040 A 
ATOM     12  C   UNL A   1      46.901 -19.823 -35.816  0.00  0.00    -0.060 A 
ATOM     13  C   UNL A   1      46.476 -18.654 -35.191  0.00  0.00    -0.061 A 
ATOM     14  C   UNL A   1      46.262 -17.502 -35.945  0.00  0.00    -0.048 A 
ATOM     15  C   UNL A   1      46.468 -17.519 -37.335  0.00  0.00    +0.058 A 
BRANCH  10  16
ATOM     16  N   UNL A   1      47.110 -18.735 -39.379  0.00  0.00    -0.314 N 
ATOM     17  H   UNL A   1      48.011 -18.466 -39.669  0.00  0.00    +0.000 HD
BRANCH  16  23
ATOM     18  C   UNL A   1      45.551 -22.087 -42.756  0.00  0.00    -0.039 C 
ATOM     19  C   UNL A   1      45.473 -20.743 -42.083  0.00  0.00    -0.046 A 
ATOM     20  C   UNL A   1      44.513 -19.826 -42.533  0.00  0.00    -0.058 A 
ATOM     21  C   UNL A   1      44.405 -18.569 -41.949  0.00  0.00    -0.060 A 
ATOM     22  C   UNL A   1      45.263 -18.208 -40.912  0.00  0.00    -0.040 A 
ATOM     23  C   UNL A   1      46.241 -19.093 -40.435  0.00  0.00    +0.035 A 
ATOM     24  C   UNL A   1      46.322 -20.392 -41.003  0.00  0.00    -0.026 A 
ATOM     25  C   UNL A   1      47.350 -21.374 -40.489  0.00  0.00    -0.038 C 
ENDBRANCH  16  23
ENDBRANCH  10  16
ENDBRANCH   6  15
ENDBRANCH   5   8
ENDBRANCH   1   5
BRANCH   3  26
ATOM     26  C   UNL A   1      40.848 -15.571 -39.718  0.00  0.00    +0.012 C 
BRANCH  26  27
ATOM     27  C   UNL A   1      40.291 -16.986 -39.555  0.00  0.00    -0.037 C 
BRANCH  27  28
ATOM     28  C   UNL A   1      40.139 -17.407 -38.090  0.00  0.00    -0.052 C 
BRANCH  28  29
ATOM     29  C   UNL A   1      38.662 -17.507 -37.703  0.00  0.00    -0.052 C 
BRANCH  29  30
ATOM     30  C   UNL A   1      38.213 -18.962 -37.566  0.00  0.00    -0.037 C 
BRANCH  30  31
ATOM     31  C   UNL A   1      38.499 -19.499 -36.162  0.00  0.00    +0.009 C 
BRANCH  31  32
ATOM     32  N   UNL A   1      39.228 -20.770 -36.278  0.00  0.00    -0.343 N 
ATOM     33  H   UNL A   1      38.794 -21.650 -36.363  0.00  0.00    +0.000 HD
BRANCH  32  34
ATOM     34  C   UNL A   1      40.642 -20.571 -36.251  0.00  0.00    +0.041 A 
ATOM     35  C   UNL A   1      41.296 -20.218 -35.052  0.00  0.00    -0.005 A 
ATOM     36  C   UNL A   1      42.689 -20.097 -35.089  0.00  0.00    +0.047 A 
ATOM     37  N   UNL A   1      43.429 -20.350 -36.194  0.00  0.00    -0.251 NA
ATOM     38  C   UNL A   1      42.808 -20.700 -37.328  0.00  0.00    +0.073 A 
ATOM     39  C   UNL A   1      43.583 -20.946 -38.455  0.00  0.00    -0.036 A 
ATOM     40  C   UNL A   1      43.015 -21.301 -39.681  0.00  0.00    -0.060 A 
ATOM     41  C   UNL A   1      41.638 -21.409 -39.792  0.00  0.00    -0.061 A 
ATOM     42  C   UNL A   1      40.842 -21.167 -38.673  0.00  0.00    -0.051 A 
ATOM     43  C   UNL A   1      41.408 -20.823 -37.422  0.00  0.00    +0.021 A 
ATOM     44  C   UNL A   1      43.488 -19.733 -33.864  0.00  0.00    -0.010 C 
ATOM     45  C   UNL A   1      42.660 -19.043 -32.787  0.00  0.00    -0.047 C 
ATOM     46  C   UNL A   1      41.392 -19.840 -32.528  0.00  0.00    -0.049 C 
ATOM     47  C   UNL A   1      40.531 -19.902 -33.789  0.00  0.00    -0.024 C 
ENDBRANCH  32  34
ENDBRANCH  31  32
ENDBRANCH  30  31
ENDBRANCH  29  30
ENDBRANCH  28  29
ENDBRANCH  27  28
ENDBRANCH  26  27
ENDBRANCH   3  26
TORSDOF 13
ENDMDL
MODEL 13
REMARK VINA RESULT:    -6.565     18.627     22.805
REMARK INTER + INTRA:         -16.396
REMARK INTER:                 -11.617
REMARK INTRA:                  -4.780
REMARK UNBOUND:                -4.843
REMARK  Name = cpd34.pdb
REMARK  15 active torsions:
REMARK  status: ('A' for Active; 'I' for Inactive)
REMARK    1  A    between atoms: C_1  and  C_2
REMARK    2  A    between atoms: C_6  and  N_7
REMARK    3  A    between atoms: N_7  and  C_8
REMARK    4  A    between atoms: C_13  and  C_14
REMARK    5  A    between atoms: N_16  and  C_17
REMARK    6  A    between atoms: C_17  and  C_18
REMARK    7  A    between atoms: N_20  and  C_21
REMARK    8  A    between atoms: C_21  and  C_22
REMARK    9  A    between atoms: C_22  and  C_23
REMARK   10  A    between atoms: C_23  and  C_24
REMARK   11  A    between atoms: C_24  and  C_25
REMARK   12  A    between atoms: C_25  and  C_26
REMARK   13  A    between atoms: C_26  and  N_27
REMARK   14  A    between atoms: N_27  and  C_28
REMARK   15  A    between atoms: C_42  and  C_43
REMARK                            x       y       z     vdW  Elec       q    Type
REMARK                         _______ _______ _______ _____ _____    ______ ____
ROOT
ATOM      1  C   UNL A   1      40.696 -17.649 -36.885  0.00  0.00    +0.230 C 
ATOM      2  O   UNL A   1      39.920 -18.600 -36.835  0.00  0.00    -0.274 OA
ATOM      3  N   UNL A   1      41.289 -17.088 -35.772  0.00  0.00    -0.314 N 
ATOM      4  H   UNL A   1      42.014 -16.434 -35.897  0.00  0.00    +0.000 HD
ENDROOT
BRANCH   1   5
ATOM      5  C   UNL A   1      41.193 -17.083 -38.223  0.00  0.00    +0.088 C 
BRANCH   5   8
ATOM      6  C   UNL A   1      43.253 -16.481 -39.419  0.00  0.00    +0.246 C 
ATOM      7  O   UNL A   1      42.690 -16.522 -40.509  0.00  0.00    -0.270 OA
ATOM      8  N   UNL A   1      42.578 -16.620 -38.222  0.00  0.00    -0.303 N 
ATOM      9  H   UNL A   1      43.029 -16.408 -37.372  0.00  0.00    +0.000 HD
BRANCH   6  15
ATOM     10  C   UNL A   1      45.578 -17.422 -39.497  0.00  0.00    +0.044 A 
ATOM     11  C   UNL A   1      46.964 -17.216 -39.405  0.00  0.00    -0.040 A 
ATOM     12  C   UNL A   1      47.495 -15.944 -39.175  0.00  0.00    -0.060 A 
ATOM     13  C   UNL A   1      46.648 -14.849 -39.033  0.00  0.00    -0.061 A 
ATOM     14  C   UNL A   1      45.267 -15.024 -39.116  0.00  0.00    -0.048 A 
ATOM     15  C   UNL A   1      44.730 -16.303 -39.337  0.00  0.00    +0.058 A 
BRANCH  10  16
ATOM     16  N   UNL A   1      45.055 -18.717 -39.703  0.00  0.00    -0.314 N 
ATOM     17  H   UNL A   1      44.583 -19.093 -38.925  0.00  0.00    +0.000 HD
BRANCH  16  23
ATOM     18  C   UNL A   1      46.609 -22.948 -41.884  0.00  0.00    -0.039 C 
ATOM     19  C   UNL A   1      45.845 -21.651 -41.892  0.00  0.00    -0.046 A 
ATOM     20  C   UNL A   1      45.162 -21.286 -43.061  0.00  0.00    -0.058 A 
ATOM     21  C   UNL A   1      44.449 -20.094 -43.121  0.00  0.00    -0.060 A 
ATOM     22  C   UNL A   1      44.416 -19.247 -42.016  0.00  0.00    -0.040 A 
ATOM     23  C   UNL A   1      45.090 -19.571 -40.829  0.00  0.00    +0.035 A 
ATOM     24  C   UNL A   1      45.783 -20.808 -40.754  0.00  0.00    -0.026 A 
ATOM     25  C   UNL A   1      46.495 -21.193 -39.478  0.00  0.00    -0.038 C 
ENDBRANCH  16  23
ENDBRANCH  10  16
ENDBRANCH   6  15
ENDBRANCH   5   8
ENDBRANCH   1   5
BRANCH   3  26
ATOM     26  C   UNL A   1      40.879 -17.428 -34.426  0.00  0.00    +0.012 C 
BRANCH  26  27
ATOM     27  C   UNL A   1      39.364 -17.422 -34.216  0.00  0.00    -0.037 C 
BRANCH  27  28
ATOM     28  C   UNL A   1      38.841 -18.714 -33.580  0.00  0.00    -0.052 C 
BRANCH  28  29
ATOM     29  C   UNL A   1      39.823 -19.242 -32.531  0.00  0.00    -0.052 C 
BRANCH  29  30
ATOM     30  C   UNL A   1      40.105 -20.732 -32.723  0.00  0.00    -0.037 C 
BRANCH  30  31
ATOM     31  C   UNL A   1      40.101 -21.107 -34.207  0.00  0.00    +0.009 C 
BRANCH  31  32
ATOM     32  N   UNL A   1      41.336 -21.841 -34.515  0.00  0.00    -0.343 N 
ATOM     33  H   UNL A   1      41.625 -22.658 -34.047  0.00  0.00    +0.000 HD
BRANCH  32  34
ATOM     34  C   UNL A   1      42.066 -21.224 -35.577  0.00  0.00    +0.041 A 
ATOM     35  C   UNL A   1      41.720 -21.465 -36.922  0.00  0.00    -0.005 A 
ATOM     36  C   UNL A   1      42.440 -20.780 -37.906  0.00  0.00    +0.047 A 
ATOM     37  N   UNL A   1      43.405 -19.872 -37.626  0.00  0.00    -0.251 NA
ATOM     38  C   UNL A   1      43.722 -19.633 -36.346  0.00  0.00    +0.073 A 
ATOM     39  C   UNL A   1      44.721 -18.705 -36.078  0.00  0.00    -0.036 A 
ATOM     40  C   UNL A   1      45.123 -18.407 -34.774  0.00  0.00    -0.060 A 
ATOM     41  C   UNL A   1      44.520 -19.053 -33.706  0.00  0.00    -0.061 A 
ATOM     42  C   UNL A   1      43.515 -19.987 -33.953  0.00  0.00    -0.051 A 
ATOM     43  C   UNL A   1      43.088 -20.284 -35.270  0.00  0.00    +0.021 A 
ATOM     44  C   UNL A   1      42.148 -20.958 -39.374  0.00  0.00    -0.010 C 
ATOM     45  C   UNL A   1      41.407 -22.251 -39.689  0.00  0.00    -0.047 C 
ATOM     46  C   UNL A   1      40.212 -22.394 -38.761  0.00  0.00    -0.049 C 
ATOM     47  C   UNL A   1      40.669 -22.479 -37.306  0.00  0.00    -0.024 C 
ENDBRANCH  32  34
ENDBRANCH  31  32
ENDBRANCH  30  31
ENDBRANCH  29  30
ENDBRANCH  28  29
ENDBRANCH  27  28
ENDBRANCH  26  27
ENDBRANCH   3  26
TORSDOF 13
ENDMDL
MODEL 14
REMARK VINA RESULT:    -6.564     19.409     23.658
REMARK INTER + INTRA:         -16.396
REMARK INTER:                 -11.636
REMARK INTRA:                  -4.759
REMARK UNBOUND:                -4.843
REMARK  Name = cpd34.pdb
REMARK  15 active torsions:
REMARK  status: ('A' for Active; 'I' for Inactive)
REMARK    1  A    between atoms: C_1  and  C_2
REMARK    2  A    between atoms: C_6  and  N_7
REMARK    3  A    between atoms: N_7  and  C_8
REMARK    4  A    between atoms: C_13  and  C_14
REMARK    5  A    between atoms: N_16  and  C_17
REMARK    6  A    between atoms: C_17  and  C_18
REMARK    7  A    between atoms: N_20  and  C_21
REMARK    8  A    between atoms: C_21  and  C_22
REMARK    9  A    between atoms: C_22  and  C_23
REMARK   10  A    between atoms: C_23  and  C_24
REMARK   11  A    between atoms: C_24  and  C_25
REMARK   12  A    between atoms: C_25  and  C_26
REMARK   13  A    between atoms: C_26  and  N_27
REMARK   14  A    between atoms: N_27  and  C_28
REMARK   15  A    between atoms: C_42  and  C_43
REMARK                            x       y       z     vdW  Elec       q    Type
REMARK                         _______ _______ _______ _____ _____    ______ ____
ROOT
ATOM      1  C   UNL A   1      45.428 -17.328 -35.390  0.00  0.00    +0.230 C 
ATOM      2  O   UNL A   1      44.421 -17.571 -34.730  0.00  0.00    -0.274 OA
ATOM      3  N   UNL A   1      45.634 -16.140 -36.061  0.00  0.00    -0.314 N 
ATOM      4  H   UNL A   1      46.523 -15.954 -36.438  0.00  0.00    +0.000 HD
ENDROOT
BRANCH   1   5
ATOM      5  C   UNL A   1      46.628 -18.286 -35.411  0.00  0.00    +0.088 C 
BRANCH   5   8
ATOM      6  C   UNL A   1      46.934 -18.826 -37.788  0.00  0.00    +0.246 C 
ATOM      7  O   UNL A   1      47.412 -17.722 -38.028  0.00  0.00    -0.270 OA
ATOM      8  N   UNL A   1      46.630 -19.249 -36.509  0.00  0.00    -0.303 N 
ATOM      9  H   UNL A   1      46.416 -20.195 -36.339  0.00  0.00    +0.000 HD
BRANCH   6  15
ATOM     10  C   UNL A   1      46.505 -19.288 -40.218  0.00  0.00    +0.044 A 
ATOM     11  C   UNL A   1      46.207 -20.210 -41.233  0.00  0.00    -0.040 A 
ATOM     12  C   UNL A   1      46.044 -21.569 -40.954  0.00  0.00    -0.060 A 
ATOM     13  C   UNL A   1      46.179 -22.035 -39.650  0.00  0.00    -0.061 A 
ATOM     14  C   UNL A   1      46.472 -21.142 -38.620  0.00  0.00    -0.048 A 
ATOM     15  C   UNL A   1      46.626 -19.773 -38.896  0.00  0.00    +0.058 A 
BRANCH  10  16
ATOM     16  N   UNL A   1      46.640 -17.913 -40.511  0.00  0.00    -0.314 N 
ATOM     17  H   UNL A   1      47.562 -17.574 -40.449  0.00  0.00    +0.000 HD
BRANCH  16  23
ATOM     18  C   UNL A   1      45.461 -13.131 -41.409  0.00  0.00    -0.039 C 
ATOM     19  C   UNL A   1      45.113 -14.593 -41.328  0.00  0.00    -0.046 A 
ATOM     20  C   UNL A   1      43.798 -14.984 -41.616  0.00  0.00    -0.058 A 
ATOM     21  C   UNL A   1      43.425 -16.321 -41.548  0.00  0.00    -0.060 A 
ATOM     22  C   UNL A   1      44.361 -17.286 -41.181  0.00  0.00    -0.040 A 
ATOM     23  C   UNL A   1      45.685 -16.938 -40.878  0.00  0.00    +0.035 A 
ATOM     24  C   UNL A   1      46.076 -15.577 -40.990  0.00  0.00    -0.026 A 
ATOM     25  C   UNL A   1      47.504 -15.179 -40.695  0.00  0.00    -0.038 C 
ENDBRANCH  16  23
ENDBRANCH  10  16
ENDBRANCH   6  15
ENDBRANCH   5   8
ENDBRANCH   1   5
BRANCH   3  26
ATOM     26  C   UNL A   1      44.584 -15.157 -36.227  0.00  0.00    +0.012 C 
BRANCH  26  27
ATOM     27  C   UNL A   1      43.955 -15.148 -37.621  0.00  0.00    -0.037 C 
BRANCH  27  28
ATOM     28  C   UNL A   1      42.640 -15.929 -37.692  0.00  0.00    -0.052 C 
BRANCH  28  29
ATOM     29  C   UNL A   1      41.615 -15.363 -36.706  0.00  0.00    -0.052 C 
BRANCH  29  30
ATOM     30  C   UNL A   1      41.236 -16.389 -35.638  0.00  0.00    -0.037 C 
BRANCH  30  31
ATOM     31  C   UNL A   1      41.010 -17.770 -36.256  0.00  0.00    +0.009 C 
BRANCH  31  32
ATOM     32  N   UNL A   1      42.069 -18.677 -35.793  0.00  0.00    -0.343 N 
ATOM     33  H   UNL A   1      42.888 -18.382 -35.332  0.00  0.00    +0.000 HD
BRANCH  32  34
ATOM     34  C   UNL A   1      41.765 -20.040 -36.096  0.00  0.00    +0.041 A 
ATOM     35  C   UNL A   1      41.157 -20.872 -35.134  0.00  0.00    -0.005 A 
ATOM     36  C   UNL A   1      40.835 -22.177 -35.520  0.00  0.00    +0.047 A 
ATOM     37  N   UNL A   1      41.033 -22.652 -36.772  0.00  0.00    -0.251 NA
ATOM     38  C   UNL A   1      41.598 -21.856 -37.689  0.00  0.00    +0.073 A 
ATOM     39  C   UNL A   1      41.802 -22.364 -38.967  0.00  0.00    -0.036 A 
ATOM     40  C   UNL A   1      42.398 -21.607 -39.978  0.00  0.00    -0.060 A 
ATOM     41  C   UNL A   1      42.807 -20.310 -39.712  0.00  0.00    -0.061 A 
ATOM     42  C   UNL A   1      42.611 -19.780 -38.437  0.00  0.00    -0.051 A 
ATOM     43  C   UNL A   1      41.993 -20.534 -37.410  0.00  0.00    +0.021 A 
ATOM     44  C   UNL A   1      40.175 -23.147 -34.573  0.00  0.00    -0.010 C 
ATOM     45  C   UNL A   1      40.355 -22.775 -33.107  0.00  0.00    -0.047 C 
ATOM     46  C   UNL A   1      39.995 -21.313 -32.903  0.00  0.00    -0.049 C 
ATOM     47  C   UNL A   1      40.926 -20.413 -33.713  0.00  0.00    -0.024 C 
ENDBRANCH  32  34
ENDBRANCH  31  32
ENDBRANCH  30  31
ENDBRANCH  29  30
ENDBRANCH  28  29
ENDBRANCH  27  28
ENDBRANCH  26  27
ENDBRANCH   3  26
TORSDOF 13
ENDMDL
MODEL 15
REMARK VINA RESULT:    -6.370     18.689     22.886
REMARK INTER + INTRA:         -16.054
REMARK INTER:                 -10.014
REMARK INTRA:                  -6.040
REMARK UNBOUND:                -4.843
REMARK  Name = cpd34.pdb
REMARK  15 active torsions:
REMARK  status: ('A' for Active; 'I' for Inactive)
REMARK    1  A    between atoms: C_1  and  C_2
REMARK    2  A    between atoms: C_6  and  N_7
REMARK    3  A    between atoms: N_7  and  C_8
REMARK    4  A    between atoms: C_13  and  C_14
REMARK    5  A    between atoms: N_16  and  C_17
REMARK    6  A    between atoms: C_17  and  C_18
REMARK    7  A    between atoms: N_20  and  C_21
REMARK    8  A    between atoms: C_21  and  C_22
REMARK    9  A    between atoms: C_22  and  C_23
REMARK   10  A    between atoms: C_23  and  C_24
REMARK   11  A    between atoms: C_24  and  C_25
REMARK   12  A    between atoms: C_25  and  C_26
REMARK   13  A    between atoms: C_26  and  N_27
REMARK   14  A    between atoms: N_27  and  C_28
REMARK   15  A    between atoms: C_42  and  C_43
REMARK                            x       y       z     vdW  Elec       q    Type
REMARK                         _______ _______ _______ _____ _____    ______ ____
ROOT
ATOM      1  C   UNL A   1      41.281 -22.138 -36.589  0.00  0.00    +0.230 C 
ATOM      2  O   UNL A   1      42.101 -21.332 -36.155  0.00  0.00    -0.274 OA
ATOM      3  N   UNL A   1      40.341 -22.769 -35.800  0.00  0.00    -0.314 N 
ATOM      4  H   UNL A   1      39.621 -23.280 -36.234  0.00  0.00    +0.000 HD
ENDROOT
BRANCH   1   5
ATOM      5  C   UNL A   1      41.135 -22.410 -38.093  0.00  0.00    +0.088 C 
BRANCH   5   8
ATOM      6  C   UNL A   1      42.272 -20.829 -39.592  0.00  0.00    +0.246 C 
ATOM      7  O   UNL A   1      41.428 -19.960 -39.396  0.00  0.00    -0.270 OA
ATOM      8  N   UNL A   1      42.289 -22.027 -38.904  0.00  0.00    -0.303 N 
ATOM      9  H   UNL A   1      43.073 -22.619 -38.960  0.00  0.00    +0.000 HD
BRANCH   6  15
ATOM     10  C   UNL A   1      44.238 -19.565 -40.508  0.00  0.00    +0.044 A 
ATOM     11  C   UNL A   1      45.213 -19.415 -41.507  0.00  0.00    -0.040 A 
ATOM     12  C   UNL A   1      45.293 -20.303 -42.582  0.00  0.00    -0.060 A 
ATOM     13  C   UNL A   1      44.397 -21.364 -42.680  0.00  0.00    -0.061 A 
ATOM     14  C   UNL A   1      43.416 -21.537 -41.704  0.00  0.00    -0.048 A 
ATOM     15  C   UNL A   1      43.327 -20.639 -40.627  0.00  0.00    +0.058 A 
BRANCH  10  16
ATOM     16  N   UNL A   1      44.152 -18.644 -39.441  0.00  0.00    -0.314 N 
ATOM     17  H   UNL A   1      43.431 -17.981 -39.535  0.00  0.00    +0.000 HD
BRANCH  16  23
ATOM     18  C   UNL A   1      47.453 -16.062 -36.701  0.00  0.00    -0.039 C 
ATOM     19  C   UNL A   1      46.530 -17.232 -36.917  0.00  0.00    -0.046 A 
ATOM     20  C   UNL A   1      46.448 -18.210 -35.917  0.00  0.00    -0.058 A 
ATOM     21  C   UNL A   1      45.616 -19.313 -36.071  0.00  0.00    -0.060 A 
ATOM     22  C   UNL A   1      44.862 -19.457 -37.234  0.00  0.00    -0.040 A 
ATOM     23  C   UNL A   1      44.919 -18.505 -38.262  0.00  0.00    +0.035 A 
ATOM     24  C   UNL A   1      45.736 -17.357 -38.084  0.00  0.00    -0.026 A 
ATOM     25  C   UNL A   1      45.795 -16.303 -39.167  0.00  0.00    -0.038 C 
ENDBRANCH  16  23
ENDBRANCH  10  16
ENDBRANCH   6  15
ENDBRANCH   5   8
ENDBRANCH   1   5
BRANCH   3  26
ATOM     26  C   UNL A   1      40.379 -22.705 -34.354  0.00  0.00    +0.012 C 
BRANCH  26  27
ATOM     27  C   UNL A   1      39.347 -21.755 -33.745  0.00  0.00    -0.037 C 
BRANCH  27  28
ATOM     28  C   UNL A   1      38.231 -21.373 -34.723  0.00  0.00    -0.052 C 
BRANCH  28  29
ATOM     29  C   UNL A   1      38.103 -19.852 -34.835  0.00  0.00    -0.052 C 
BRANCH  29  30
ATOM     30  C   UNL A   1      39.472 -19.173 -34.869  0.00  0.00    -0.037 C 
BRANCH  30  31
ATOM     31  C   UNL A   1      39.691 -18.439 -36.194  0.00  0.00    +0.009 C 
BRANCH  31  32
ATOM     32  N   UNL A   1      41.086 -18.623 -36.615  0.00  0.00    -0.343 N 
ATOM     33  H   UNL A   1      41.469 -19.485 -36.902  0.00  0.00    +0.000 HD
BRANCH  32  34
ATOM     34  C   UNL A   1      41.821 -17.399 -36.556  0.00  0.00    +0.041 A 
ATOM     35  C   UNL A   1      42.638 -17.104 -35.446  0.00  0.00    -0.005 A 
ATOM     36  C   UNL A   1      43.372 -15.914 -35.485  0.00  0.00    +0.047 A 
ATOM     37  N   UNL A   1      43.373 -15.073 -36.546  0.00  0.00    -0.251 NA
ATOM     38  C   UNL A   1      42.607 -15.363 -37.606  0.00  0.00    +0.073 A 
ATOM     39  C   UNL A   1      42.612 -14.484 -38.682  0.00  0.00    -0.036 A 
ATOM     40  C   UNL A   1      41.833 -14.702 -39.820  0.00  0.00    -0.060 A 
ATOM     41  C   UNL A   1      41.020 -15.823 -39.890  0.00  0.00    -0.061 A 
ATOM     42  C   UNL A   1      41.001 -16.719 -38.821  0.00  0.00    -0.051 A 
ATOM     43  C   UNL A   1      41.800 -16.515 -37.670  0.00  0.00    +0.021 A 
ATOM     44  C   UNL A   1      44.283 -15.505 -34.355  0.00  0.00    -0.010 C 
ATOM     45  C   UNL A   1      43.954 -16.191 -33.036  0.00  0.00    -0.047 C 
ATOM     46  C   UNL A   1      43.818 -17.689 -33.258  0.00  0.00    -0.049 C 
ATOM     47  C   UNL A   1      42.670 -17.987 -34.221  0.00  0.00    -0.024 C 
ENDBRANCH  32  34
ENDBRANCH  31  32
ENDBRANCH  30  31
ENDBRANCH  29  30
ENDBRANCH  28  29
ENDBRANCH  27  28
ENDBRANCH  26  27
ENDBRANCH   3  26
TORSDOF 13
ENDMDL
MODEL 16
REMARK VINA RESULT:    -6.341     18.961     23.038
REMARK INTER + INTRA:         -16.004
REMARK INTER:                 -10.634
REMARK INTRA:                  -5.369
REMARK UNBOUND:                -4.843
REMARK  Name = cpd34.pdb
REMARK  15 active torsions:
REMARK  status: ('A' for Active; 'I' for Inactive)
REMARK    1  A    between atoms: C_1  and  C_2
REMARK    2  A    between atoms: C_6  and  N_7
REMARK    3  A    between atoms: N_7  and  C_8
REMARK    4  A    between atoms: C_13  and  C_14
REMARK    5  A    between atoms: N_16  and  C_17
REMARK    6  A    between atoms: C_17  and  C_18
REMARK    7  A    between atoms: N_20  and  C_21
REMARK    8  A    between atoms: C_21  and  C_22
REMARK    9  A    between atoms: C_22  and  C_23
REMARK   10  A    between atoms: C_23  and  C_24
REMARK   11  A    between atoms: C_24  and  C_25
REMARK   12  A    between atoms: C_25  and  C_26
REMARK   13  A    between atoms: C_26  and  N_27
REMARK   14  A    between atoms: N_27  and  C_28
REMARK   15  A    between atoms: C_42  and  C_43
REMARK                            x       y       z     vdW  Elec       q    Type
REMARK                         _______ _______ _______ _____ _____    ______ ____
ROOT
ATOM      1  C   UNL A   1      45.960 -15.763 -38.553  0.00  0.00    +0.230 C 
ATOM      2  O   UNL A   1      45.435 -14.762 -38.072  0.00  0.00    -0.274 OA
ATOM      3  N   UNL A   1      46.378 -16.842 -37.801  0.00  0.00    -0.314 N 
ATOM      4  H   UNL A   1      46.645 -17.669 -38.263  0.00  0.00    +0.000 HD
ENDROOT
BRANCH   1   5
ATOM      5  C   UNL A   1      46.068 -15.966 -40.071  0.00  0.00    +0.088 C 
BRANCH   5   8
ATOM      6  C   UNL A   1      45.591 -18.201 -40.974  0.00  0.00    +0.246 C 
ATOM      7  O   UNL A   1      44.445 -17.887 -41.279  0.00  0.00    -0.270 OA
ATOM      8  N   UNL A   1      46.513 -17.294 -40.487  0.00  0.00    -0.303 N 
ATOM      9  H   UNL A   1      47.463 -17.541 -40.420  0.00  0.00    +0.000 HD
BRANCH   6  15
ATOM     10  C   UNL A   1      45.197 -20.659 -40.656  0.00  0.00    +0.044 A 
ATOM     11  C   UNL A   1      45.662 -21.978 -40.776  0.00  0.00    -0.040 A 
ATOM     12  C   UNL A   1      46.919 -22.258 -41.319  0.00  0.00    -0.060 A 
ATOM     13  C   UNL A   1      47.738 -21.221 -41.754  0.00  0.00    -0.061 A 
ATOM     14  C   UNL A   1      47.304 -19.900 -41.645  0.00  0.00    -0.048 A 
ATOM     15  C   UNL A   1      46.044 -19.615 -41.091  0.00  0.00    +0.058 A 
BRANCH  10  16
ATOM     16  N   UNL A   1      43.935 -20.390 -40.081  0.00  0.00    -0.314 N 
ATOM     17  H   UNL A   1      43.308 -19.925 -40.680  0.00  0.00    +0.000 HD
BRANCH  16  23
ATOM     18  C   UNL A   1      40.478 -22.577 -37.194  0.00  0.00    -0.039 C 
ATOM     19  C   UNL A   1      41.724 -21.753 -37.384  0.00  0.00    -0.046 A 
ATOM     20  C   UNL A   1      42.369 -21.247 -36.248  0.00  0.00    -0.058 A 
ATOM     21  C   UNL A   1      43.518 -20.475 -36.371  0.00  0.00    -0.060 A 
ATOM     22  C   UNL A   1      44.033 -20.190 -37.634  0.00  0.00    -0.040 A 
ATOM     23  C   UNL A   1      43.415 -20.671 -38.797  0.00  0.00    +0.035 A 
ATOM     24  C   UNL A   1      42.266 -21.496 -38.669  0.00  0.00    -0.026 A 
ATOM     25  C   UNL A   1      41.596 -22.049 -39.906  0.00  0.00    -0.038 C 
ENDBRANCH  16  23
ENDBRANCH  10  16
ENDBRANCH   6  15
ENDBRANCH   5   8
ENDBRANCH   1   5
BRANCH   3  26
ATOM     26  C   UNL A   1      46.437 -16.798 -36.355  0.00  0.00    +0.012 C 
BRANCH  26  27
ATOM     27  C   UNL A   1      46.747 -18.146 -35.703  0.00  0.00    -0.037 C 
BRANCH  27  28
ATOM     28  C   UNL A   1      45.774 -18.507 -34.577  0.00  0.00    -0.052 C 
BRANCH  28  29
ATOM     29  C   UNL A   1      45.559 -17.314 -33.640  0.00  0.00    -0.052 C 
BRANCH  29  30
ATOM     30  C   UNL A   1      44.192 -16.666 -33.860  0.00  0.00    -0.037 C 
BRANCH  30  31
ATOM     31  C   UNL A   1      43.079 -17.716 -33.876  0.00  0.00    +0.009 C 
BRANCH  31  32
ATOM     32  N   UNL A   1      41.807 -17.057 -34.200  0.00  0.00    -0.343 N 
ATOM     33  H   UNL A   1      41.519 -16.194 -33.822  0.00  0.00    +0.000 HD
BRANCH  32  34
ATOM     34  C   UNL A   1      41.038 -17.823 -35.130  0.00  0.00    +0.041 A 
ATOM     35  C   UNL A   1      40.004 -18.669 -34.682  0.00  0.00    -0.005 A 
ATOM     36  C   UNL A   1      39.256 -19.343 -35.653  0.00  0.00    +0.047 A 
ATOM     37  N   UNL A   1      39.445 -19.181 -36.984  0.00  0.00    -0.251 NA
ATOM     38  C   UNL A   1      40.419 -18.364 -37.407  0.00  0.00    +0.073 A 
ATOM     39  C   UNL A   1      40.605 -18.217 -38.777  0.00  0.00    -0.036 A 
ATOM     40  C   UNL A   1      41.606 -17.398 -39.304  0.00  0.00    -0.060 A 
ATOM     41  C   UNL A   1      42.450 -16.709 -38.447  0.00  0.00    -0.061 A 
ATOM     42  C   UNL A   1      42.279 -16.842 -37.069  0.00  0.00    -0.051 A 
ATOM     43  C   UNL A   1      41.257 -17.657 -36.525  0.00  0.00    +0.021 A 
ATOM     44  C   UNL A   1      38.122 -20.266 -35.284  0.00  0.00    -0.010 C 
ATOM     45  C   UNL A   1      38.198 -20.772 -33.850  0.00  0.00    -0.047 C 
ATOM     46  C   UNL A   1      38.422 -19.602 -32.906  0.00  0.00    -0.049 C 
ATOM     47  C   UNL A   1      39.751 -18.913 -33.213  0.00  0.00    -0.024 C 
ENDBRANCH  32  34
ENDBRANCH  31  32
ENDBRANCH  30  31
ENDBRANCH  29  30
ENDBRANCH  28  29
ENDBRANCH  27  28
ENDBRANCH  26  27
ENDBRANCH   3  26
TORSDOF 13
ENDMDL
MODEL 17
REMARK VINA RESULT:    -6.287     19.564     24.272
REMARK INTER + INTRA:         -15.907
REMARK INTER:                 -10.468
REMARK INTRA:                  -5.440
REMARK UNBOUND:                -4.843
REMARK  Name = cpd34.pdb
REMARK  15 active torsions:
REMARK  status: ('A' for Active; 'I' for Inactive)
REMARK    1  A    between atoms: C_1  and  C_2
REMARK    2  A    between atoms: C_6  and  N_7
REMARK    3  A    between atoms: N_7  and  C_8
REMARK    4  A    between atoms: C_13  and  C_14
REMARK    5  A    between atoms: N_16  and  C_17
REMARK    6  A    between atoms: C_17  and  C_18
REMARK    7  A    between atoms: N_20  and  C_21
REMARK    8  A    between atoms: C_21  and  C_22
REMARK    9  A    between atoms: C_22  and  C_23
REMARK   10  A    between atoms: C_23  and  C_24
REMARK   11  A    between atoms: C_24  and  C_25
REMARK   12  A    between atoms: C_25  and  C_26
REMARK   13  A    between atoms: C_26  and  N_27
REMARK   14  A    between atoms: N_27  and  C_28
REMARK   15  A    between atoms: C_42  and  C_43
REMARK                            x       y       z     vdW  Elec       q    Type
REMARK                         _______ _______ _______ _____ _____    ______ ____
ROOT
ATOM      1  C   UNL A   1      41.023 -16.870 -32.937  0.00  0.00    +0.230 C 
ATOM      2  O   UNL A   1      40.279 -17.041 -31.974  0.00  0.00    -0.274 OA
ATOM      3  N   UNL A   1      40.576 -16.781 -34.240  0.00  0.00    -0.314 N 
ATOM      4  H   UNL A   1      41.204 -16.491 -34.939  0.00  0.00    +0.000 HD
ENDROOT
BRANCH   1   5
ATOM      5  C   UNL A   1      42.523 -16.597 -32.759  0.00  0.00    +0.088 C 
BRANCH   5   8
ATOM      6  C   UNL A   1      44.131 -18.096 -33.858  0.00  0.00    +0.246 C 
ATOM      7  O   UNL A   1      44.003 -18.951 -32.988  0.00  0.00    -0.270 OA
ATOM      8  N   UNL A   1      43.356 -16.953 -33.906  0.00  0.00    -0.303 N 
ATOM      9  H   UNL A   1      43.365 -16.381 -34.707  0.00  0.00    +0.000 HD
BRANCH   6  15
ATOM     10  C   UNL A   1      45.114 -19.331 -35.809  0.00  0.00    +0.044 A 
ATOM     11  C   UNL A   1      46.118 -19.436 -36.785  0.00  0.00    -0.040 A 
ATOM     12  C   UNL A   1      47.140 -18.489 -36.880  0.00  0.00    -0.060 A 
ATOM     13  C   UNL A   1      47.178 -17.413 -35.998  0.00  0.00    -0.061 A 
ATOM     14  C   UNL A   1      46.196 -17.283 -35.017  0.00  0.00    -0.048 A 
ATOM     15  C   UNL A   1      45.173 -18.240 -34.913  0.00  0.00    +0.058 A 
BRANCH  10  16
ATOM     16  N   UNL A   1      44.102 -20.311 -35.708  0.00  0.00    -0.314 N 
ATOM     17  H   UNL A   1      44.088 -20.793 -34.850  0.00  0.00    +0.000 HD
BRANCH  16  23
ATOM     18  C   UNL A   1      39.316 -21.400 -36.696  0.00  0.00    -0.039 C 
ATOM     19  C   UNL A   1      40.757 -21.246 -37.106  0.00  0.00    -0.046 A 
ATOM     20  C   UNL A   1      41.108 -21.533 -38.432  0.00  0.00    -0.058 A 
ATOM     21  C   UNL A   1      42.425 -21.413 -38.858  0.00  0.00    -0.060 A 
ATOM     22  C   UNL A   1      43.413 -21.014 -37.960  0.00  0.00    -0.040 A 
ATOM     23  C   UNL A   1      43.106 -20.723 -36.623  0.00  0.00    +0.035 A 
ATOM     24  C   UNL A   1      41.752 -20.804 -36.200  0.00  0.00    -0.026 A 
ATOM     25  C   UNL A   1      41.392 -20.470 -34.770  0.00  0.00    -0.038 C 
ENDBRANCH  16  23
ENDBRANCH  10  16
ENDBRANCH   6  15
ENDBRANCH   5   8
ENDBRANCH   1   5
BRANCH   3  26
ATOM     26  C   UNL A   1      39.213 -17.098 -34.611  0.00  0.00    +0.012 C 
BRANCH  26  27
ATOM     27  C   UNL A   1      39.065 -17.634 -36.036  0.00  0.00    -0.037 C 
BRANCH  27  28
ATOM     28  C   UNL A   1      40.355 -17.530 -36.855  0.00  0.00    -0.052 C 
BRANCH  28  29
ATOM     29  C   UNL A   1      40.047 -17.495 -38.354  0.00  0.00    -0.052 C 
BRANCH  29  30
ATOM     30  C   UNL A   1      41.186 -18.099 -39.176  0.00  0.00    -0.037 C 
BRANCH  30  31
ATOM     31  C   UNL A   1      42.536 -17.505 -38.769  0.00  0.00    +0.009 C 
BRANCH  31  32
ATOM     32  N   UNL A   1      43.121 -16.815 -39.927  0.00  0.00    -0.343 N 
ATOM     33  H   UNL A   1      42.608 -16.257 -40.556  0.00  0.00    +0.000 HD
BRANCH  32  34
ATOM     34  C   UNL A   1      44.526 -17.056 -40.029  0.00  0.00    +0.041 A 
ATOM     35  C   UNL A   1      45.017 -18.133 -40.794  0.00  0.00    -0.005 A 
ATOM     36  C   UNL A   1      46.405 -18.272 -40.895  0.00  0.00    +0.047 A 
ATOM     37  N   UNL A   1      47.283 -17.401 -40.343  0.00  0.00    -0.251 NA
ATOM     38  C   UNL A   1      46.813 -16.369 -39.629  0.00  0.00    +0.073 A 
ATOM     39  C   UNL A   1      47.729 -15.491 -39.061  0.00  0.00    -0.036 A 
ATOM     40  C   UNL A   1      47.326 -14.398 -38.290  0.00  0.00    -0.060 A 
ATOM     41  C   UNL A   1      45.976 -14.174 -38.072  0.00  0.00    -0.061 A 
ATOM     42  C   UNL A   1      45.040 -15.043 -38.633  0.00  0.00    -0.051 A 
ATOM     43  C   UNL A   1      45.438 -16.143 -39.430  0.00  0.00    +0.021 A 
ATOM     44  C   UNL A   1      47.037 -19.383 -41.694  0.00  0.00    -0.010 C 
ATOM     45  C   UNL A   1      46.103 -20.563 -41.929  0.00  0.00    -0.047 C 
ATOM     46  C   UNL A   1      44.766 -20.061 -42.450  0.00  0.00    -0.049 C 
ATOM     47  C   UNL A   1      44.096 -19.153 -41.420  0.00  0.00    -0.024 C 
ENDBRANCH  32  34
ENDBRANCH  31  32
ENDBRANCH  30  31
ENDBRANCH  29  30
ENDBRANCH  28  29
ENDBRANCH  27  28
ENDBRANCH  26  27
ENDBRANCH   3  26
TORSDOF 13
ENDMDL
MODEL 18
REMARK VINA RESULT:    -6.265     18.337     22.577
REMARK INTER + INTRA:         -15.868
REMARK INTER:                 -10.900
REMARK INTRA:                  -4.968
REMARK UNBOUND:                -4.843
REMARK  Name = cpd34.pdb
REMARK  15 active torsions:
REMARK  status: ('A' for Active; 'I' for Inactive)
REMARK    1  A    between atoms: C_1  and  C_2
REMARK    2  A    between atoms: C_6  and  N_7
REMARK    3  A    between atoms: N_7  and  C_8
REMARK    4  A    between atoms: C_13  and  C_14
REMARK    5  A    between atoms: N_16  and  C_17
REMARK    6  A    between atoms: C_17  and  C_18
REMARK    7  A    between atoms: N_20  and  C_21
REMARK    8  A    between atoms: C_21  and  C_22
REMARK    9  A    between atoms: C_22  and  C_23
REMARK   10  A    between atoms: C_23  and  C_24
REMARK   11  A    between atoms: C_24  and  C_25
REMARK   12  A    between atoms: C_25  and  C_26
REMARK   13  A    between atoms: C_26  and  N_27
REMARK   14  A    between atoms: N_27  and  C_28
REMARK   15  A    between atoms: C_42  and  C_43
REMARK                            x       y       z     vdW  Elec       q    Type
REMARK                         _______ _______ _______ _____ _____    ______ ____
ROOT
ATOM      1  C   UNL A   1      44.898 -15.715 -38.851  0.00  0.00    +0.230 C 
ATOM      2  O   UNL A   1      45.620 -15.479 -37.885  0.00  0.00    -0.274 OA
ATOM      3  N   UNL A   1      43.519 -15.715 -38.791  0.00  0.00    -0.314 N 
ATOM      4  H   UNL A   1      43.007 -15.759 -39.629  0.00  0.00    +0.000 HD
ENDROOT
BRANCH   1   5
ATOM      5  C   UNL A   1      45.473 -15.893 -40.263  0.00  0.00    +0.088 C 
BRANCH   5   8
ATOM      6  C   UNL A   1      44.814 -18.209 -40.752  0.00  0.00    +0.246 C 
ATOM      7  O   UNL A   1      43.624 -17.914 -40.792  0.00  0.00    -0.270 OA
ATOM      8  N   UNL A   1      45.817 -17.267 -40.621  0.00  0.00    -0.303 N 
ATOM      9  H   UNL A   1      46.756 -17.521 -40.768  0.00  0.00    +0.000 HD
BRANCH   6  15
ATOM     10  C   UNL A   1      45.823 -20.242 -39.679  0.00  0.00    +0.044 A 
ATOM     11  C   UNL A   1      46.220 -21.585 -39.780  0.00  0.00    -0.040 A 
ATOM     12  C   UNL A   1      46.039 -22.308 -40.961  0.00  0.00    -0.060 A 
ATOM     13  C   UNL A   1      45.454 -21.701 -42.069  0.00  0.00    -0.061 A 
ATOM     14  C   UNL A   1      45.052 -20.368 -41.999  0.00  0.00    -0.048 A 
ATOM     15  C   UNL A   1      45.242 -19.635 -40.815  0.00  0.00    +0.058 A 
BRANCH  10  16
ATOM     16  N   UNL A   1      46.037 -19.516 -38.487  0.00  0.00    -0.314 N 
ATOM     17  H   UNL A   1      46.953 -19.170 -38.381  0.00  0.00    +0.000 HD
BRANCH  16  23
ATOM     18  C   UNL A   1      45.323 -17.642 -33.899  0.00  0.00    -0.039 C 
ATOM     19  C   UNL A   1      44.821 -18.269 -35.172  0.00  0.00    -0.046 A 
ATOM     20  C   UNL A   1      43.452 -18.549 -35.283  0.00  0.00    -0.058 A 
ATOM     21  C   UNL A   1      42.940 -19.133 -36.436  0.00  0.00    -0.060 A 
ATOM     22  C   UNL A   1      43.792 -19.455 -37.490  0.00  0.00    -0.040 A 
ATOM     23  C   UNL A   1      45.169 -19.197 -37.418  0.00  0.00    +0.035 A 
ATOM     24  C   UNL A   1      45.684 -18.560 -36.258  0.00  0.00    -0.026 A 
ATOM     25  C   UNL A   1      47.160 -18.248 -36.166  0.00  0.00    -0.038 C 
ENDBRANCH  16  23
ENDBRANCH  10  16
ENDBRANCH   6  15
ENDBRANCH   5   8
ENDBRANCH   1   5
BRANCH   3  26
ATOM     26  C   UNL A   1      42.802 -15.654 -37.534  0.00  0.00    +0.012 C 
BRANCH  26  27
ATOM     27  C   UNL A   1      41.281 -15.685 -37.684  0.00  0.00    -0.037 C 
BRANCH  27  28
ATOM     28  C   UNL A   1      40.773 -16.939 -38.402  0.00  0.00    -0.052 C 
BRANCH  28  29
ATOM     29  C   UNL A   1      39.483 -16.641 -39.172  0.00  0.00    -0.052 C 
BRANCH  29  30
ATOM     30  C   UNL A   1      38.419 -17.710 -38.923  0.00  0.00    -0.037 C 
BRANCH  30  31
ATOM     31  C   UNL A   1      38.675 -18.447 -37.607  0.00  0.00    +0.009 C 
BRANCH  31  32
ATOM     32  N   UNL A   1      38.264 -19.850 -37.759  0.00  0.00    -0.343 N 
ATOM     33  H   UNL A   1      37.392 -20.135 -38.116  0.00  0.00    +0.000 HD
BRANCH  32  34
ATOM     34  C   UNL A   1      39.287 -20.749 -37.325  0.00  0.00    +0.041 A 
ATOM     35  C   UNL A   1      39.240 -21.324 -36.039  0.00  0.00    -0.005 A 
ATOM     36  C   UNL A   1      40.243 -22.239 -35.705  0.00  0.00    +0.047 A 
ATOM     37  N   UNL A   1      41.211 -22.630 -36.566  0.00  0.00    -0.251 NA
ATOM     38  C   UNL A   1      41.245 -22.094 -37.794  0.00  0.00    +0.073 A 
ATOM     39  C   UNL A   1      42.252 -22.499 -38.662  0.00  0.00    -0.036 A 
ATOM     40  C   UNL A   1      42.370 -21.980 -39.953  0.00  0.00    -0.060 A 
ATOM     41  C   UNL A   1      41.465 -21.027 -40.393  0.00  0.00    -0.061 A 
ATOM     42  C   UNL A   1      40.447 -20.607 -39.539  0.00  0.00    -0.051 A 
ATOM     43  C   UNL A   1      40.309 -21.139 -38.234  0.00  0.00    +0.021 A 
ATOM     44  C   UNL A   1      40.283 -22.919 -34.360  0.00  0.00    -0.010 C 
ATOM     45  C   UNL A   1      39.495 -22.179 -33.286  0.00  0.00    -0.047 C 
ATOM     46  C   UNL A   1      38.108 -21.845 -33.810  0.00  0.00    -0.049 C 
ATOM     47  C   UNL A   1      38.200 -20.918 -35.021  0.00  0.00    -0.024 C 
ENDBRANCH  32  34
ENDBRANCH  31  32
ENDBRANCH  30  31
ENDBRANCH  29  30
ENDBRANCH  28  29
ENDBRANCH  27  28
ENDBRANCH  26  27
ENDBRANCH   3  26
TORSDOF 13
ENDMDL
MODEL 19
REMARK VINA RESULT:    -6.184     18.357     23.167
REMARK INTER + INTRA:         -15.727
REMARK INTER:                 -11.061
REMARK INTRA:                  -4.667
REMARK UNBOUND:                -4.843
REMARK  Name = cpd34.pdb
REMARK  15 active torsions:
REMARK  status: ('A' for Active; 'I' for Inactive)
REMARK    1  A    between atoms: C_1  and  C_2
REMARK    2  A    between atoms: C_6  and  N_7
REMARK    3  A    between atoms: N_7  and  C_8
REMARK    4  A    between atoms: C_13  and  C_14
REMARK    5  A    between atoms: N_16  and  C_17
REMARK    6  A    between atoms: C_17  and  C_18
REMARK    7  A    between atoms: N_20  and  C_21
REMARK    8  A    between atoms: C_21  and  C_22
REMARK    9  A    between atoms: C_22  and  C_23
REMARK   10  A    between atoms: C_23  and  C_24
REMARK   11  A    between atoms: C_24  and  C_25
REMARK   12  A    between atoms: C_25  and  C_26
REMARK   13  A    between atoms: C_26  and  N_27
REMARK   14  A    between atoms: N_27  and  C_28
REMARK   15  A    between atoms: C_42  and  C_43
REMARK                            x       y       z     vdW  Elec       q    Type
REMARK                         _______ _______ _______ _____ _____    ______ ____
ROOT
ATOM      1  C   UNL A   1      42.213 -16.897 -33.319  0.00  0.00    +0.230 C 
ATOM      2  O   UNL A   1      43.198 -17.443 -32.827  0.00  0.00    -0.274 OA
ATOM      3  N   UNL A   1      42.284 -15.988 -34.355  0.00  0.00    -0.314 N 
ATOM      4  H   UNL A   1      41.452 -15.709 -34.801  0.00  0.00    +0.000 HD
ENDROOT
BRANCH   1   5
ATOM      5  C   UNL A   1      40.786 -17.290 -32.914  0.00  0.00    +0.088 C 
BRANCH   5   8
ATOM      6  C   UNL A   1      39.805 -19.210 -34.092  0.00  0.00    +0.246 C 
ATOM      7  O   UNL A   1      39.609 -18.550 -35.107  0.00  0.00    -0.270 OA
ATOM      8  N   UNL A   1      40.491 -18.718 -32.998  0.00  0.00    -0.303 N 
ATOM      9  H   UNL A   1      40.780 -19.327 -32.280  0.00  0.00    +0.000 HD
BRANCH   6  15
ATOM     10  C   UNL A   1      39.951 -21.660 -34.620  0.00  0.00    +0.044 A 
ATOM     11  C   UNL A   1      39.416 -22.952 -34.495  0.00  0.00    -0.040 A 
ATOM     12  C   UNL A   1      38.257 -23.189 -33.751  0.00  0.00    -0.060 A 
ATOM     13  C   UNL A   1      37.609 -22.135 -33.114  0.00  0.00    -0.061 A 
ATOM     14  C   UNL A   1      38.115 -20.841 -33.223  0.00  0.00    -0.048 A 
ATOM     15  C   UNL A   1      39.275 -20.598 -33.978  0.00  0.00    +0.058 A 
BRANCH  10  16
ATOM     16  N   UNL A   1      41.107 -21.432 -35.397  0.00  0.00    -0.314 N 
ATOM     17  H   UNL A   1      41.946 -21.421 -34.883  0.00  0.00    +0.000 HD
BRANCH  16  23
ATOM     18  C   UNL A   1      43.039 -18.754 -39.162  0.00  0.00    -0.039 C 
ATOM     19  C   UNL A   1      42.230 -19.906 -38.627  0.00  0.00    -0.046 A 
ATOM     20  C   UNL A   1      41.621 -20.775 -39.543  0.00  0.00    -0.058 A 
ATOM     21  C   UNL A   1      40.858 -21.849 -39.100  0.00  0.00    -0.060 A 
ATOM     22  C   UNL A   1      40.686 -22.063 -37.735  0.00  0.00    -0.040 A 
ATOM     23  C   UNL A   1      41.273 -21.215 -36.784  0.00  0.00    +0.035 A 
ATOM     24  C   UNL A   1      42.088 -20.144 -37.237  0.00  0.00    -0.026 A 
ATOM     25  C   UNL A   1      42.753 -19.231 -36.233  0.00  0.00    -0.038 C 
ENDBRANCH  16  23
ENDBRANCH  10  16
ENDBRANCH   6  15
ENDBRANCH   5   8
ENDBRANCH   1   5
BRANCH   3  26
ATOM     26  C   UNL A   1      43.541 -15.431 -34.808  0.00  0.00    +0.012 C 
BRANCH  26  27
ATOM     27  C   UNL A   1      44.040 -16.014 -36.131  0.00  0.00    -0.037 C 
BRANCH  27  28
ATOM     28  C   UNL A   1      44.707 -14.971 -37.033  0.00  0.00    -0.052 C 
BRANCH  28  29
ATOM     29  C   UNL A   1      44.591 -15.372 -38.507  0.00  0.00    -0.052 C 
BRANCH  29  30
ATOM     30  C   UNL A   1      45.939 -15.280 -39.222  0.00  0.00    -0.037 C 
BRANCH  30  31
ATOM     31  C   UNL A   1      46.156 -16.480 -40.146  0.00  0.00    +0.009 C 
BRANCH  31  32
ATOM     32  N   UNL A   1      47.245 -17.306 -39.606  0.00  0.00    -0.343 N 
ATOM     33  H   UNL A   1      48.200 -17.074 -39.672  0.00  0.00    +0.000 HD
BRANCH  32  34
ATOM     34  C   UNL A   1      46.747 -18.487 -38.975  0.00  0.00    +0.041 A 
ATOM     35  C   UNL A   1      46.299 -19.580 -39.746  0.00  0.00    -0.005 A 
ATOM     36  C   UNL A   1      45.881 -20.724 -39.060  0.00  0.00    +0.047 A 
ATOM     37  N   UNL A   1      45.935 -20.846 -37.712  0.00  0.00    -0.251 NA
ATOM     38  C   UNL A   1      46.375 -19.812 -36.983  0.00  0.00    +0.073 A 
ATOM     39  C   UNL A   1      46.413 -19.951 -35.600  0.00  0.00    -0.036 A 
ATOM     40  C   UNL A   1      46.844 -18.919 -34.764  0.00  0.00    -0.060 A 
ATOM     41  C   UNL A   1      47.242 -17.711 -35.316  0.00  0.00    -0.061 A 
ATOM     42  C   UNL A   1      47.212 -17.551 -36.701  0.00  0.00    -0.051 A 
ATOM     43  C   UNL A   1      46.793 -18.597 -37.558  0.00  0.00    +0.021 A 
ATOM     44  C   UNL A   1      45.391 -21.952 -39.785  0.00  0.00    -0.010 C 
ATOM     45  C   UNL A   1      44.929 -21.667 -41.208  0.00  0.00    -0.047 C 
ATOM     46  C   UNL A   1      45.988 -20.855 -41.936  0.00  0.00    -0.049 C 
ATOM     47  C   UNL A   1      46.194 -19.505 -41.251  0.00  0.00    -0.024 C 
ENDBRANCH  32  34
ENDBRANCH  31  32
ENDBRANCH  30  31
ENDBRANCH  29  30
ENDBRANCH  28  29
ENDBRANCH  27  28
ENDBRANCH  26  27
ENDBRANCH   3  26
TORSDOF 13
ENDMDL
MODEL 20
REMARK VINA RESULT:    -6.150     16.919     22.046
REMARK INTER + INTRA:         -15.667
REMARK INTER:                 -11.292
REMARK INTRA:                  -4.375
REMARK UNBOUND:                -4.843
REMARK  Name = cpd34.pdb
REMARK  15 active torsions:
REMARK  status: ('A' for Active; 'I' for Inactive)
REMARK    1  A    between atoms: C_1  and  C_2
REMARK    2  A    between atoms: C_6  and  N_7
REMARK    3  A    between atoms: N_7  and  C_8
REMARK    4  A    between atoms: C_13  and  C_14
REMARK    5  A    between atoms: N_16  and  C_17
REMARK    6  A    between atoms: C_17  and  C_18
REMARK    7  A    between atoms: N_20  and  C_21
REMARK    8  A    between atoms: C_21  and  C_22
REMARK    9  A    between atoms: C_22  and  C_23
REMARK   10  A    between atoms: C_23  and  C_24
REMARK   11  A    between atoms: C_24  and  C_25
REMARK   12  A    between atoms: C_25  and  C_26
REMARK   13  A    between atoms: C_26  and  N_27
REMARK   14  A    between atoms: N_27  and  C_28
REMARK   15  A    between atoms: C_42  and  C_43
REMARK                            x       y       z     vdW  Elec       q    Type
REMARK                         _______ _______ _______ _____ _____    ______ ____
ROOT
ATOM      1  C   UNL A   1      44.397 -18.499 -33.297  0.00  0.00    +0.230 C 
ATOM      2  O   UNL A   1      45.272 -18.065 -32.552  0.00  0.00    -0.274 OA
ATOM      3  N   UNL A   1      44.630 -19.430 -34.289  0.00  0.00    -0.314 N 
ATOM      4  H   UNL A   1      43.862 -19.845 -34.742  0.00  0.00    +0.000 HD
ENDROOT
BRANCH   1   5
ATOM      5  C   UNL A   1      42.917 -18.143 -33.094  0.00  0.00    +0.088 C 
BRANCH   5   8
ATOM      6  C   UNL A   1      40.945 -19.530 -32.617  0.00  0.00    +0.246 C 
ATOM      7  O   UNL A   1      40.649 -18.857 -31.635  0.00  0.00    -0.270 OA
ATOM      8  N   UNL A   1      41.973 -19.191 -33.476  0.00  0.00    -0.303 N 
ATOM      9  H   UNL A   1      42.068 -19.652 -34.341  0.00  0.00    +0.000 HD
BRANCH   6  15
ATOM     10  C   UNL A   1      38.802 -20.775 -33.016  0.00  0.00    +0.044 A 
ATOM     11  C   UNL A   1      38.147 -21.984 -33.295  0.00  0.00    -0.040 A 
ATOM     12  C   UNL A   1      38.861 -23.170 -33.484  0.00  0.00    -0.060 A 
ATOM     13  C   UNL A   1      40.250 -23.169 -33.398  0.00  0.00    -0.061 A 
ATOM     14  C   UNL A   1      40.928 -21.983 -33.119  0.00  0.00    -0.048 A 
ATOM     15  C   UNL A   1      40.212 -20.791 -32.919  0.00  0.00    +0.058 A 
BRANCH  10  16
ATOM     16  N   UNL A   1      38.065 -19.589 -32.801  0.00  0.00    -0.314 N 
ATOM     17  H   UNL A   1      37.901 -19.380 -31.853  0.00  0.00    +0.000 HD
BRANCH  16  23
ATOM     18  C   UNL A   1      34.084 -17.288 -34.782  0.00  0.00    -0.039 C 
ATOM     19  C   UNL A   1      35.567 -17.517 -34.668  0.00  0.00    -0.046 A 
ATOM     20  C   UNL A   1      36.422 -16.778 -35.498  0.00  0.00    -0.058 A 
ATOM     21  C   UNL A   1      37.799 -16.957 -35.437  0.00  0.00    -0.060 A 
ATOM     22  C   UNL A   1      38.340 -17.886 -34.551  0.00  0.00    -0.040 A 
ATOM     23  C   UNL A   1      37.521 -18.650 -33.707  0.00  0.00    +0.035 A 
ATOM     24  C   UNL A   1      36.118 -18.435 -33.739  0.00  0.00    -0.026 A 
ATOM     25  C   UNL A   1      35.215 -19.227 -32.821  0.00  0.00    -0.038 C 
ENDBRANCH  16  23
ENDBRANCH  10  16
ENDBRANCH   6  15
ENDBRANCH   5   8
ENDBRANCH   1   5
BRANCH   3  26
ATOM     26  C   UNL A   1      45.969 -19.815 -34.685  0.00  0.00    +0.012 C 
BRANCH  26  27
ATOM     27  C   UNL A   1      46.616 -18.868 -35.697  0.00  0.00    -0.037 C 
BRANCH  27  28
ATOM     28  C   UNL A   1      45.670 -18.466 -36.833  0.00  0.00    -0.052 C 
BRANCH  28  29
ATOM     29  C   UNL A   1      45.428 -16.954 -36.829  0.00  0.00    -0.052 C 
BRANCH  29  30
ATOM     30  C   UNL A   1      43.960 -16.619 -37.094  0.00  0.00    -0.037 C 
BRANCH  30  31
ATOM     31  C   UNL A   1      43.076 -17.859 -36.947  0.00  0.00    +0.009 C 
BRANCH  31  32
ATOM     32  N   UNL A   1      42.086 -17.870 -38.033  0.00  0.00    -0.343 N 
ATOM     33  H   UNL A   1      41.547 -17.089 -38.297  0.00  0.00    +0.000 HD
BRANCH  32  34
ATOM     34  C   UNL A   1      42.001 -19.152 -38.656  0.00  0.00    +0.041 A 
ATOM     35  C   UNL A   1      42.850 -19.487 -39.730  0.00  0.00    -0.005 A 
ATOM     36  C   UNL A   1      42.750 -20.781 -40.252  0.00  0.00    +0.047 A 
ATOM     37  N   UNL A   1      41.924 -21.726 -39.746  0.00  0.00    -0.251 NA
ATOM     38  C   UNL A   1      41.128 -21.411 -38.715  0.00  0.00    +0.073 A 
ATOM     39  C   UNL A   1      40.279 -22.391 -38.215  0.00  0.00    -0.036 A 
ATOM     40  C   UNL A   1      39.407 -22.142 -37.153  0.00  0.00    -0.060 A 
ATOM     41  C   UNL A   1      39.373 -20.883 -36.575  0.00  0.00    -0.061 A 
ATOM     42  C   UNL A   1      40.217 -19.886 -37.061  0.00  0.00    -0.051 A 
ATOM     43  C   UNL A   1      41.117 -20.132 -38.126  0.00  0.00    +0.021 A 
ATOM     44  C   UNL A   1      43.616 -21.246 -41.395  0.00  0.00    -0.010 C 
ATOM     45  C   UNL A   1      44.197 -20.102 -42.217  0.00  0.00    -0.047 C 
ATOM     46  C   UNL A   1      44.831 -19.078 -41.290  0.00  0.00    -0.049 C 
ATOM     47  C   UNL A   1      43.781 -18.476 -40.357  0.00  0.00    -0.024 C 
ENDBRANCH  32  34
ENDBRANCH  31  32
ENDBRANCH  30  31
ENDBRANCH  29  30
ENDBRANCH  28  29
ENDBRANCH  27  28
ENDBRANCH  26  27
ENDBRANCH   3  26
TORSDOF 13
ENDMDL
