REMARK  Name = cpd34.pdb
REMARK  15 active torsions:
REMARK  status: ('A' for Active; 'I' for Inactive)
REMARK    1  A    between atoms: C_1  and  C_2
REMARK    2  A    between atoms: C_6  and  N_7
REMARK    3  A    between atoms: N_7  and  C_8
REMARK    4  A    between atoms: C_13  and  C_14
REMARK    5  A    between atoms: N_16  and  C_17
REMARK    6  A    between atoms: C_17  and  C_18
REMARK    7  A    between atoms: N_20  and  C_21
REMARK    8  A    between atoms: C_21  and  C_22
REMARK    9  A    between atoms: C_22  and  C_23
REMARK   10  A    between atoms: C_23  and  C_24
REMARK   11  A    between atoms: C_24  and  C_25
REMARK   12  A    between atoms: C_25  and  C_26
REMARK   13  A    between atoms: C_26  and  N_27
REMARK   14  A    between atoms: N_27  and  C_28
REMARK   15  A    between atoms: C_42  and  C_43
REMARK                            x       y       z     vdW  Elec       q    Type
REMARK                         _______ _______ _______ _____ _____    ______ ____
ROOT
ATOM      1  C   UNL A   1       4.862   1.612   1.406  0.00  0.00    +0.230 C 
ATOM      2  O   UNL A   1       5.496   0.821   2.100  0.00  0.00    -0.274 OA
ATOM      3  N   UNL A   1       4.922   2.982   1.562  0.00  0.00    -0.314 N 
ATOM      4  H   UNL A   1       4.512   3.557   0.877  0.00  0.00    +0.000 HD
ENDROOT
BRANCH   1   5
ATOM      5  C   UNL A   1       4.044   1.145   0.194  0.00  0.00    +0.088 C 
BRANCH   5   8
ATOM      6  C   UNL A   1       1.935   2.405   0.142  0.00  0.00    +0.246 C 
ATOM      7  O   UNL A   1       1.584   1.958   1.229  0.00  0.00    -0.270 OA
ATOM      8  N   UNL A   1       3.183   2.165  -0.400  0.00  0.00    -0.303 N 
ATOM      9  H   UNL A   1       3.490   2.678  -1.182  0.00  0.00    +0.000 HD
BRANCH   6  15
ATOM     10  C   UNL A   1      -0.387   2.946  -0.643  0.00  0.00    +0.044 A 
ATOM     11  C   UNL A   1      -1.237   3.735  -1.434  0.00  0.00    -0.040 A 
ATOM     12  C   UNL A   1      -0.737   4.773  -2.224  0.00  0.00    -0.060 A 
ATOM     13  C   UNL A   1       0.628   5.044  -2.238  0.00  0.00    -0.061 A 
ATOM     14  C   UNL A   1       1.497   4.275  -1.465  0.00  0.00    -0.048 A 
ATOM     15  C   UNL A   1       0.998   3.224  -0.677  0.00  0.00    +0.058 A 
BRANCH  10  16
ATOM     16  N   UNL A   1      -0.904   1.883   0.130  0.00  0.00    -0.314 N 
ATOM     17  H   UNL A   1      -0.540   1.831   1.043  0.00  0.00    +0.000 HD
BRANCH  16  23
ATOM     18  C   UNL A   1      -3.924  -1.821   1.623  0.00  0.00    -0.039 C 
ATOM     19  C   UNL A   1      -3.339  -0.929   0.561  0.00  0.00    -0.046 A 
ATOM     20  C   UNL A   1      -3.747  -1.116  -0.767  0.00  0.00    -0.058 A 
ATOM     21  C   UNL A   1      -3.231  -0.323  -1.785  0.00  0.00    -0.060 A 
ATOM     22  C   UNL A   1      -2.292   0.663  -1.490  0.00  0.00    -0.040 A 
ATOM     23  C   UNL A   1      -1.852   0.880  -0.176  0.00  0.00    +0.035 A 
ATOM     24  C   UNL A   1      -2.412   0.098   0.869  0.00  0.00    -0.026 A 
ATOM     25  C   UNL A   1      -1.974   0.330   2.297  0.00  0.00    -0.038 C 
ENDBRANCH  16  23
ENDBRANCH  10  16
ENDBRANCH   6  15
ENDBRANCH   5   8
ENDBRANCH   1   5
BRANCH   3  26
ATOM     26  C   UNL A   1       5.568   3.601   2.700  0.00  0.00    +0.012 C 
BRANCH  26  27
ATOM     27  C   UNL A   1       7.091   3.461   2.704  0.00  0.00    -0.037 C 
BRANCH  27  28
ATOM     28  C   UNL A   1       7.755   4.085   1.473  0.00  0.00    -0.052 C 
BRANCH  28  29
ATOM     29  C   UNL A   1       9.274   3.898   1.520  0.00  0.00    -0.052 C 
BRANCH  29  30
ATOM     30  C   UNL A   1       9.949   4.460   0.269  0.00  0.00    -0.037 C 
BRANCH  30  31
ATOM     31  C   UNL A   1      11.458   4.210   0.297  0.00  0.00    +0.009 C 
BRANCH  31  32
ATOM     32  N   UNL A   1      12.049   4.725  -0.946  0.00  0.00    -0.343 N 
ATOM     33  H   UNL A   1      11.557   5.256  -1.614  0.00  0.00    +0.000 HD
BRANCH  32  34
ATOM     34  C   UNL A   1      13.425   4.360  -1.066  0.00  0.00    +0.041 A 
ATOM     35  C   UNL A   1      14.441   5.229  -0.618  0.00  0.00    -0.005 A 
ATOM     36  C   UNL A   1      15.762   4.780  -0.714  0.00  0.00    +0.047 A 
ATOM     37  N   UNL A   1      16.099   3.548  -1.163  0.00  0.00    -0.251 NA
ATOM     38  C   UNL A   1      15.131   2.718  -1.574  0.00  0.00    +0.073 A 
ATOM     39  C   UNL A   1      15.496   1.461  -2.041  0.00  0.00    -0.036 A 
ATOM     40  C   UNL A   1      14.553   0.540  -2.502  0.00  0.00    -0.060 A 
ATOM     41  C   UNL A   1      13.209   0.879  -2.505  0.00  0.00    -0.061 A 
ATOM     42  C   UNL A   1      12.821   2.135  -2.040  0.00  0.00    -0.051 A 
ATOM     43  C   UNL A   1      13.768   3.069  -1.555  0.00  0.00    +0.021 A 
ATOM     44  C   UNL A   1      16.924   5.625  -0.257  0.00  0.00    -0.010 C 
ATOM     45  C   UNL A   1      16.595   7.110  -0.176  0.00  0.00    -0.047 C 
ATOM     46  C   UNL A   1      15.300   7.305   0.596  0.00  0.00    -0.049 C 
ATOM     47  C   UNL A   1      14.138   6.624  -0.125  0.00  0.00    -0.024 C 
ENDBRANCH  32  34
ENDBRANCH  31  32
ENDBRANCH  30  31
ENDBRANCH  29  30
ENDBRANCH  28  29
ENDBRANCH  27  28
ENDBRANCH  26  27
ENDBRANCH   3  26
TORSDOF 13
