REMARK  Name = cpd67.pdb
REMARK  1 active torsions:
REMARK  status: ('A' for Active; 'I' for Inactive)
REMARK    1  A    between atoms: N_1  and  C_2
REMARK                            x       y       z     vdW  Elec       q    Type
REMARK                         _______ _______ _______ _____ _____    ______ ____
ROOT
ATOM      1  C   UNL A   1       1.855  -0.298   0.132  0.00  0.00    +0.040 A 
ATOM      2  C   UNL A   1       0.671   0.407   0.448  0.00  0.00    -0.005 A 
ATOM      3  C   UNL A   1       0.734   1.799   0.465  0.00  0.00    +0.047 A 
ATOM      4  N   UNL A   1       1.881   2.481   0.257  0.00  0.00    -0.251 NA
ATOM      5  C   UNL A   1       3.018   1.813   0.043  0.00  0.00    +0.074 A 
ATOM      6  C   UNL A   1       4.154   2.597  -0.108  0.00  0.00    -0.036 A 
ATOM      7  C   UNL A   1       5.412   2.049  -0.335  0.00  0.00    -0.058 A 
ATOM      8  C   UNL A   1       5.537   0.675  -0.421  0.00  0.00    -0.043 A 
ATOM      9  C   UNL A   1       4.405  -0.138  -0.278  0.00  0.00    +0.052 A 
ATOM     10 CL   UNL A   1       4.709  -1.840  -0.453  0.00  0.00    -0.083 Cl
ATOM     11  C   UNL A   1       3.101   0.407  -0.031  0.00  0.00    +0.040 A 
ATOM     12  C   UNL A   1      -0.480   2.657   0.715  0.00  0.00    -0.010 C 
ATOM     13  C   UNL A   1      -1.550   2.504  -0.366  0.00  0.00    -0.048 C 
ATOM     14  C   UNL A   1      -2.430   1.268  -0.191  0.00  0.00    -0.052 C 
ATOM     15  C   UNL A   1      -1.697  -0.068  -0.308  0.00  0.00    -0.049 C 
ATOM     16  C   UNL A   1      -0.636  -0.280   0.773  0.00  0.00    -0.024 C 
ENDROOT
BRANCH   1  17
ATOM     17  N   UNL A   1       1.829  -1.714   0.168  0.00  0.00    -0.357 N 
ATOM     18  H   UNL A   1       0.973  -2.188   0.280  0.00  0.00    +0.000 HD
ATOM     19  H   UNL A   1       2.667  -2.224   0.081  0.00  0.00    +0.000 HD
ENDBRANCH   1  17
TORSDOF 1
