MODEL 1
REMARK VINA RESULT:    -8.574      0.000      0.000
REMARK INTER + INTRA:          -8.824
REMARK INTER:                  -8.824
REMARK INTRA:                   0.000
REMARK UNBOUND:                 0.000
REMARK  Name = cpd67.pdb
REMARK  1 active torsions:
REMARK  status: ('A' for Active; 'I' for Inactive)
REMARK    1  A    between atoms: N_1  and  C_2
REMARK                            x       y       z     vdW  Elec       q    Type
REMARK                         _______ _______ _______ _____ _____    ______ ____
ROOT
ATOM      1  C   UNL A   1      38.056 -35.895 -30.988  0.00  0.00    +0.040 A 
ATOM      2  C   UNL A   1      39.444 -36.115 -31.139  0.00  0.00    -0.005 A 
ATOM      3  C   UNL A   1      40.062 -36.980 -30.238  0.00  0.00    +0.047 A 
ATOM      4  N   UNL A   1      39.405 -37.553 -29.207  0.00  0.00    -0.251 NA
ATOM      5  C   UNL A   1      38.112 -37.277 -29.012  0.00  0.00    +0.074 A 
ATOM      6  C   UNL A   1      37.534 -37.870 -27.898  0.00  0.00    -0.036 A 
ATOM      7  C   UNL A   1      36.198 -37.679 -27.561  0.00  0.00    -0.058 A 
ATOM      8  C   UNL A   1      35.414 -36.875 -28.367  0.00  0.00    -0.043 A 
ATOM      9  C   UNL A   1      35.972 -36.270 -29.501  0.00  0.00    +0.052 A 
ATOM     10 CL   UNL A   1      34.856 -35.326 -30.440  0.00  0.00    -0.083 Cl
ATOM     11  C   UNL A   1      37.350 -36.445 -29.859  0.00  0.00    +0.040 A 
ATOM     12  C   UNL A   1      41.520 -37.349 -30.346  0.00  0.00    -0.010 C 
ATOM     13  C   UNL A   1      41.848 -38.108 -31.632  0.00  0.00    -0.048 C 
ATOM     14  C   UNL A   1      42.021 -37.207 -32.852  0.00  0.00    -0.052 C 
ATOM     15  C   UNL A   1      40.766 -36.441 -33.272  0.00  0.00    -0.049 C 
ATOM     16  C   UNL A   1      40.272 -35.452 -32.216  0.00  0.00    -0.024 C 
ENDROOT
BRANCH   1  17
ATOM     17  N   UNL A   1      37.419 -34.973 -31.855  0.00  0.00    -0.357 N 
ATOM     18  H   UNL A   1      36.440 -34.987 -31.955  0.00  0.00    +0.000 HD
ATOM     19  H   UNL A   1      37.957 -34.318 -32.357  0.00  0.00    +0.000 HD
ENDBRANCH   1  17
TORSDOF 1
ENDMDL
MODEL 2
REMARK VINA RESULT:    -8.317      2.200      5.770
REMARK INTER + INTRA:          -8.560
REMARK INTER:                  -8.560
REMARK INTRA:                   0.000
REMARK UNBOUND:                 0.000
REMARK  Name = cpd67.pdb
REMARK  1 active torsions:
REMARK  status: ('A' for Active; 'I' for Inactive)
REMARK    1  A    between atoms: N_1  and  C_2
REMARK                            x       y       z     vdW  Elec       q    Type
REMARK                         _______ _______ _______ _____ _____    ______ ____
ROOT
ATOM      1  C   UNL A   1      39.269 -37.913 -29.266  0.00  0.00    +0.040 A 
ATOM      2  C   UNL A   1      38.002 -37.371 -28.952  0.00  0.00    -0.005 A 
ATOM      3  C   UNL A   1      37.473 -36.420 -29.822  0.00  0.00    +0.047 A 
ATOM      4  N   UNL A   1      38.146 -35.961 -30.899  0.00  0.00    -0.251 NA
ATOM      5  C   UNL A   1      39.379 -36.410 -31.150  0.00  0.00    +0.074 A 
ATOM      6  C   UNL A   1      40.012 -35.843 -32.248  0.00  0.00    -0.036 A 
ATOM      7  C   UNL A   1      41.298 -36.206 -32.635  0.00  0.00    -0.058 A 
ATOM      8  C   UNL A   1      41.969 -37.170 -31.906  0.00  0.00    -0.043 A 
ATOM      9  C   UNL A   1      41.350 -37.762 -30.798  0.00  0.00    +0.052 A 
ATOM     10 CL   UNL A   1      42.297 -38.986 -30.007  0.00  0.00    -0.083 Cl
ATOM     11  C   UNL A   1      40.029 -37.393 -30.374  0.00  0.00    +0.040 A 
ATOM     12  C   UNL A   1      36.100 -35.828 -29.630  0.00  0.00    -0.010 C 
ATOM     13  C   UNL A   1      34.983 -36.865 -29.742  0.00  0.00    -0.048 C 
ATOM     14  C   UNL A   1      34.772 -37.682 -28.469  0.00  0.00    -0.052 C 
ATOM     15  C   UNL A   1      35.954 -38.562 -28.062  0.00  0.00    -0.049 C 
ATOM     16  C   UNL A   1      37.217 -37.769 -27.722  0.00  0.00    -0.024 C 
ENDROOT
BRANCH   1  17
ATOM     17  N   UNL A   1      39.853 -38.837 -28.364  0.00  0.00    -0.357 N 
ATOM     18  H   UNL A   1      40.197 -39.698 -28.695  0.00  0.00    +0.000 HD
ATOM     19  H   UNL A   1      39.914 -38.617 -27.406  0.00  0.00    +0.000 HD
ENDBRANCH   1  17
TORSDOF 1
ENDMDL
MODEL 3
REMARK VINA RESULT:    -7.979      1.641      3.199
REMARK INTER + INTRA:          -8.212
REMARK INTER:                  -8.212
REMARK INTRA:                   0.000
REMARK UNBOUND:                 0.000
REMARK  Name = cpd67.pdb
REMARK  1 active torsions:
REMARK  status: ('A' for Active; 'I' for Inactive)
REMARK    1  A    between atoms: N_1  and  C_2
REMARK                            x       y       z     vdW  Elec       q    Type
REMARK                         _______ _______ _______ _____ _____    ______ ____
ROOT
ATOM      1  C   UNL A   1      37.588 -36.803 -29.357  0.00  0.00    +0.040 A 
ATOM      2  C   UNL A   1      38.556 -36.589 -30.365  0.00  0.00    -0.005 A 
ATOM      3  C   UNL A   1      38.290 -35.607 -31.318  0.00  0.00    +0.047 A 
ATOM      4  N   UNL A   1      37.132 -34.913 -31.347  0.00  0.00    -0.251 NA
ATOM      5  C   UNL A   1      36.181 -35.174 -30.447  0.00  0.00    +0.074 A 
ATOM      6  C   UNL A   1      35.006 -34.448 -30.588  0.00  0.00    -0.036 A 
ATOM      7  C   UNL A   1      33.924 -34.608 -29.729  0.00  0.00    -0.058 A 
ATOM      8  C   UNL A   1      34.022 -35.518 -28.693  0.00  0.00    -0.043 A 
ATOM      9  C   UNL A   1      35.198 -36.260 -28.526  0.00  0.00    +0.052 A 
ATOM     10 CL   UNL A   1      35.191 -37.330 -27.157  0.00  0.00    -0.083 Cl
ATOM     11  C   UNL A   1      36.321 -36.118 -29.408  0.00  0.00    +0.040 A 
ATOM     12  C   UNL A   1      39.280 -35.240 -32.394  0.00  0.00    -0.010 C 
ATOM     13  C   UNL A   1      40.575 -34.651 -31.835  0.00  0.00    -0.048 C 
ATOM     14  C   UNL A   1      41.563 -35.702 -31.332  0.00  0.00    -0.052 C 
ATOM     15  C   UNL A   1      41.077 -36.529 -30.143  0.00  0.00    -0.049 C 
ATOM     16  C   UNL A   1      39.843 -37.378 -30.453  0.00  0.00    -0.024 C 
ENDROOT
BRANCH   1  17
ATOM     17  N   UNL A   1      37.810 -37.836 -28.414  0.00  0.00    -0.357 N 
ATOM     18  H   UNL A   1      37.688 -38.778 -28.678  0.00  0.00    +0.000 HD
ATOM     19  H   UNL A   1      38.086 -37.613 -27.496  0.00  0.00    +0.000 HD
ENDBRANCH   1  17
TORSDOF 1
ENDMDL
MODEL 4
REMARK VINA RESULT:    -7.857      2.239      5.054
REMARK INTER + INTRA:          -8.087
REMARK INTER:                  -8.087
REMARK INTRA:                   0.000
REMARK UNBOUND:                 0.000
REMARK  Name = cpd67.pdb
REMARK  1 active torsions:
REMARK  status: ('A' for Active; 'I' for Inactive)
REMARK    1  A    between atoms: N_1  and  C_2
REMARK                            x       y       z     vdW  Elec       q    Type
REMARK                         _______ _______ _______ _____ _____    ______ ____
ROOT
ATOM      1  C   UNL A   1      37.816 -35.996 -31.455  0.00  0.00    +0.040 A 
ATOM      2  C   UNL A   1      36.500 -35.978 -30.937  0.00  0.00    -0.005 A 
ATOM      3  C   UNL A   1      36.288 -36.571 -29.694  0.00  0.00    +0.047 A 
ATOM      4  N   UNL A   1      37.265 -37.205 -29.010  0.00  0.00    -0.251 NA
ATOM      5  C   UNL A   1      38.489 -37.297 -29.538  0.00  0.00    +0.074 A 
ATOM      6  C   UNL A   1      39.413 -38.011 -28.788  0.00  0.00    -0.036 A 
ATOM      7  C   UNL A   1      40.727 -38.196 -29.204  0.00  0.00    -0.058 A 
ATOM      8  C   UNL A   1      41.132 -37.643 -30.405  0.00  0.00    -0.043 A 
ATOM      9  C   UNL A   1      40.220 -36.912 -31.178  0.00  0.00    +0.052 A 
ATOM     10 CL   UNL A   1      40.883 -36.242 -32.638  0.00  0.00    -0.083 Cl
ATOM     11  C   UNL A   1      38.857 -36.721 -30.772  0.00  0.00    +0.040 A 
ATOM     12  C   UNL A   1      34.945 -36.547 -29.009  0.00  0.00    -0.010 C 
ATOM     13  C   UNL A   1      34.482 -35.134 -28.656  0.00  0.00    -0.048 C 
ATOM     14  C   UNL A   1      33.860 -34.378 -29.828  0.00  0.00    -0.052 C 
ATOM     15  C   UNL A   1      34.809 -34.096 -30.992  0.00  0.00    -0.049 C 
ATOM     16  C   UNL A   1      35.333 -35.361 -31.673  0.00  0.00    -0.024 C 
ENDROOT
BRANCH   1  17
ATOM     17  N   UNL A   1      38.043 -35.454 -32.744  0.00  0.00    -0.357 N 
ATOM     18  H   UNL A   1      37.382 -35.594 -33.460  0.00  0.00    +0.000 HD
ATOM     19  H   UNL A   1      38.862 -34.937 -32.923  0.00  0.00    +0.000 HD
ENDBRANCH   1  17
TORSDOF 1
ENDMDL
MODEL 5
REMARK VINA RESULT:    -7.817      2.130      5.698
REMARK INTER + INTRA:          -8.046
REMARK INTER:                  -8.046
REMARK INTRA:                   0.000
REMARK UNBOUND:                 0.000
REMARK  Name = cpd67.pdb
REMARK  1 active torsions:
REMARK  status: ('A' for Active; 'I' for Inactive)
REMARK    1  A    between atoms: N_1  and  C_2
REMARK                            x       y       z     vdW  Elec       q    Type
REMARK                         _______ _______ _______ _____ _____    ______ ____
ROOT
ATOM      1  C   UNL A   1      38.551 -37.220 -29.698  0.00  0.00    +0.040 A 
ATOM      2  C   UNL A   1      37.300 -36.561 -29.705  0.00  0.00    -0.005 A 
ATOM      3  C   UNL A   1      37.022 -35.716 -30.777  0.00  0.00    +0.047 A 
ATOM      4  N   UNL A   1      37.915 -35.462 -31.758  0.00  0.00    -0.251 NA
ATOM      5  C   UNL A   1      39.129 -36.018 -31.707  0.00  0.00    +0.074 A 
ATOM      6  C   UNL A   1      39.996 -35.657 -32.729  0.00  0.00    -0.036 A 
ATOM      7  C   UNL A   1      41.294 -36.151 -32.814  0.00  0.00    -0.058 A 
ATOM      8  C   UNL A   1      41.736 -37.038 -31.850  0.00  0.00    -0.043 A 
ATOM      9  C   UNL A   1      40.878 -37.422 -30.811  0.00  0.00    +0.052 A 
ATOM     10 CL   UNL A   1      41.556 -38.574 -29.700  0.00  0.00    -0.083 Cl
ATOM     11  C   UNL A   1      39.540 -36.915 -30.699  0.00  0.00    +0.040 A 
ATOM     12  C   UNL A   1      35.694 -35.019 -30.930  0.00  0.00    -0.010 C 
ATOM     13  C   UNL A   1      34.529 -35.991 -31.115  0.00  0.00    -0.048 C 
ATOM     14  C   UNL A   1      34.021 -36.599 -29.809  0.00  0.00    -0.052 C 
ATOM     15  C   UNL A   1      35.029 -37.480 -29.072  0.00  0.00    -0.049 C 
ATOM     16  C   UNL A   1      36.275 -36.726 -28.606  0.00  0.00    -0.024 C 
ENDROOT
BRANCH   1  17
ATOM     17  N   UNL A   1      38.879 -38.036 -28.587  0.00  0.00    -0.357 N 
ATOM     18  H   UNL A   1      39.820 -38.146 -28.318  0.00  0.00    +0.000 HD
ATOM     19  H   UNL A   1      38.166 -38.493 -28.084  0.00  0.00    +0.000 HD
ENDBRANCH   1  17
TORSDOF 1
ENDMDL
MODEL 6
REMARK VINA RESULT:    -7.333      1.815      5.192
REMARK INTER + INTRA:          -7.547
REMARK INTER:                  -7.547
REMARK INTRA:                   0.000
REMARK UNBOUND:                 0.000
REMARK  Name = cpd67.pdb
REMARK  1 active torsions:
REMARK  status: ('A' for Active; 'I' for Inactive)
REMARK    1  A    between atoms: N_1  and  C_2
REMARK                            x       y       z     vdW  Elec       q    Type
REMARK                         _______ _______ _______ _____ _____    ______ ____
ROOT
ATOM      1  C   UNL A   1      37.422 -36.435 -30.783  0.00  0.00    +0.040 A 
ATOM      2  C   UNL A   1      36.385 -36.890 -29.937  0.00  0.00    -0.005 A 
ATOM      3  C   UNL A   1      36.740 -37.697 -28.858  0.00  0.00    +0.047 A 
ATOM      4  N   UNL A   1      38.009 -38.103 -28.636  0.00  0.00    -0.251 NA
ATOM      5  C   UNL A   1      38.976 -37.743 -29.485  0.00  0.00    +0.074 A 
ATOM      6  C   UNL A   1      40.238 -38.251 -29.205  0.00  0.00    -0.036 A 
ATOM      7  C   UNL A   1      41.347 -37.968 -29.996  0.00  0.00    -0.058 A 
ATOM      8  C   UNL A   1      41.190 -37.147 -31.097  0.00  0.00    -0.043 A 
ATOM      9  C   UNL A   1      39.929 -36.617 -31.397  0.00  0.00    +0.052 A 
ATOM     10 CL   UNL A   1      39.895 -35.569 -32.783  0.00  0.00    -0.083 Cl
ATOM     11  C   UNL A   1      38.771 -36.907 -30.601  0.00  0.00    +0.040 A 
ATOM     12  C   UNL A   1      35.732 -38.180 -27.847  0.00  0.00    -0.010 C 
ATOM     13  C   UNL A   1      35.086 -37.041 -27.059  0.00  0.00    -0.048 C 
ATOM     14  C   UNL A   1      33.952 -36.341 -27.805  0.00  0.00    -0.052 C 
ATOM     15  C   UNL A   1      34.371 -35.617 -29.084  0.00  0.00    -0.049 C 
ATOM     16  C   UNL A   1      34.929 -36.550 -30.160  0.00  0.00    -0.024 C 
ENDROOT
BRANCH   1  17
ATOM     17  N   UNL A   1      37.077 -35.663 -31.920  0.00  0.00    -0.357 N 
ATOM     18  H   UNL A   1      36.200 -35.787 -32.352  0.00  0.00    +0.000 HD
ATOM     19  H   UNL A   1      37.713 -35.003 -32.279  0.00  0.00    +0.000 HD
ENDBRANCH   1  17
TORSDOF 1
ENDMDL
MODEL 7
REMARK VINA RESULT:    -7.152      2.915      4.951
REMARK INTER + INTRA:          -7.361
REMARK INTER:                  -7.361
REMARK INTRA:                   0.000
REMARK UNBOUND:                 0.000
REMARK  Name = cpd67.pdb
REMARK  1 active torsions:
REMARK  status: ('A' for Active; 'I' for Inactive)
REMARK    1  A    between atoms: N_1  and  C_2
REMARK                            x       y       z     vdW  Elec       q    Type
REMARK                         _______ _______ _______ _____ _____    ______ ____
ROOT
ATOM      1  C   UNL A   1      34.747 -35.590 -28.793  0.00  0.00    +0.040 A 
ATOM      2  C   UNL A   1      35.786 -36.457 -29.203  0.00  0.00    -0.005 A 
ATOM      3  C   UNL A   1      36.625 -36.019 -30.225  0.00  0.00    +0.047 A 
ATOM      4  N   UNL A   1      36.443 -34.846 -30.868  0.00  0.00    -0.251 NA
ATOM      5  C   UNL A   1      35.410 -34.065 -30.539  0.00  0.00    +0.074 A 
ATOM      6  C   UNL A   1      35.273 -32.905 -31.290  0.00  0.00    -0.036 A 
ATOM      7  C   UNL A   1      34.247 -31.992 -31.069  0.00  0.00    -0.058 A 
ATOM      8  C   UNL A   1      33.334 -32.243 -30.062  0.00  0.00    -0.043 A 
ATOM      9  C   UNL A   1      33.454 -33.404 -29.286  0.00  0.00    +0.052 A 
ATOM     10 CL   UNL A   1      32.262 -33.563 -28.032  0.00  0.00    -0.083 Cl
ATOM     11  C   UNL A   1      34.497 -34.364 -29.507  0.00  0.00    +0.040 A 
ATOM     12  C   UNL A   1      37.810 -36.824 -30.694  0.00  0.00    -0.010 C 
ATOM     13  C   UNL A   1      38.872 -37.008 -29.610  0.00  0.00    -0.048 C 
ATOM     14  C   UNL A   1      38.551 -38.123 -28.616  0.00  0.00    -0.052 C 
ATOM     15  C   UNL A   1      37.299 -37.893 -27.770  0.00  0.00    -0.049 C 
ATOM     16  C   UNL A   1      36.011 -37.821 -28.592  0.00  0.00    -0.024 C 
ENDROOT
BRANCH   1  17
ATOM     17  N   UNL A   1      33.845 -36.039 -27.796  0.00  0.00    -0.357 N 
ATOM     18  H   UNL A   1      32.877 -35.904 -27.912  0.00  0.00    +0.000 HD
ATOM     19  H   UNL A   1      34.187 -36.487 -26.989  0.00  0.00    +0.000 HD
ENDBRANCH   1  17
TORSDOF 1
ENDMDL
MODEL 8
REMARK VINA RESULT:    -7.113      2.168      5.937
REMARK INTER + INTRA:          -7.321
REMARK INTER:                  -7.321
REMARK INTRA:                   0.000
REMARK UNBOUND:                 0.000
REMARK  Name = cpd67.pdb
REMARK  1 active torsions:
REMARK  status: ('A' for Active; 'I' for Inactive)
REMARK    1  A    between atoms: N_1  and  C_2
REMARK                            x       y       z     vdW  Elec       q    Type
REMARK                         _______ _______ _______ _____ _____    ______ ____
ROOT
ATOM      1  C   UNL A   1      37.267 -37.261 -28.782  0.00  0.00    +0.040 A 
ATOM      2  C   UNL A   1      36.030 -36.577 -28.818  0.00  0.00    -0.005 A 
ATOM      3  C   UNL A   1      35.807 -35.704 -29.880  0.00  0.00    +0.047 A 
ATOM      4  N   UNL A   1      36.739 -35.446 -30.823  0.00  0.00    -0.251 NA
ATOM      5  C   UNL A   1      37.939 -36.026 -30.742  0.00  0.00    +0.074 A 
ATOM      6  C   UNL A   1      38.849 -35.660 -31.725  0.00  0.00    -0.036 A 
ATOM      7  C   UNL A   1      40.140 -36.177 -31.775  0.00  0.00    -0.058 A 
ATOM      8  C   UNL A   1      40.530 -37.093 -30.816  0.00  0.00    -0.043 A 
ATOM      9  C   UNL A   1      39.629 -37.484 -29.817  0.00  0.00    +0.052 A 
ATOM     10 CL   UNL A   1      40.245 -38.673 -28.710  0.00  0.00    -0.083 Cl
ATOM     11  C   UNL A   1      38.298 -36.953 -29.741  0.00  0.00    +0.040 A 
ATOM     12  C   UNL A   1      34.498 -34.978 -30.064  0.00  0.00    -0.010 C 
ATOM     13  C   UNL A   1      33.322 -35.923 -30.312  0.00  0.00    -0.048 C 
ATOM     14  C   UNL A   1      32.757 -36.549 -29.039  0.00  0.00    -0.052 C 
ATOM     15  C   UNL A   1      33.721 -37.466 -28.287  0.00  0.00    -0.049 C 
ATOM     16  C   UNL A   1      34.964 -36.747 -27.760  0.00  0.00    -0.024 C 
ENDROOT
BRANCH   1  17
ATOM     17  N   UNL A   1      37.541 -38.108 -27.680  0.00  0.00    -0.357 N 
ATOM     18  H   UNL A   1      38.102 -37.785 -26.938  0.00  0.00    +0.000 HD
ATOM     19  H   UNL A   1      37.169 -39.019 -27.655  0.00  0.00    +0.000 HD
ENDBRANCH   1  17
TORSDOF 1
ENDMDL
MODEL 9
REMARK VINA RESULT:    -6.936      3.171      6.205
REMARK INTER + INTRA:          -7.139
REMARK INTER:                  -7.139
REMARK INTRA:                   0.000
REMARK UNBOUND:                 0.000
REMARK  Name = cpd67.pdb
REMARK  1 active torsions:
REMARK  status: ('A' for Active; 'I' for Inactive)
REMARK    1  A    between atoms: N_1  and  C_2
REMARK                            x       y       z     vdW  Elec       q    Type
REMARK                         _______ _______ _______ _____ _____    ______ ____
ROOT
ATOM      1  C   UNL A   1      35.094 -35.688 -28.978  0.00  0.00    +0.040 A 
ATOM      2  C   UNL A   1      34.434 -34.589 -29.575  0.00  0.00    -0.005 A 
ATOM      3  C   UNL A   1      35.015 -34.026 -30.710  0.00  0.00    +0.047 A 
ATOM      4  N   UNL A   1      36.197 -34.446 -31.210  0.00  0.00    -0.251 NA
ATOM      5  C   UNL A   1      36.863 -35.428 -30.597  0.00  0.00    +0.074 A 
ATOM      6  C   UNL A   1      38.093 -35.756 -31.152  0.00  0.00    -0.036 A 
ATOM      7  C   UNL A   1      38.905 -36.755 -30.627  0.00  0.00    -0.058 A 
ATOM      8  C   UNL A   1      38.471 -37.453 -29.515  0.00  0.00    -0.043 A 
ATOM      9  C   UNL A   1      37.232 -37.145 -28.939  0.00  0.00    +0.052 A 
ATOM     10 CL   UNL A   1      36.801 -38.134 -27.576  0.00  0.00    -0.083 Cl
ATOM     11  C   UNL A   1      36.385 -36.110 -29.458  0.00  0.00    +0.040 A 
ATOM     12  C   UNL A   1      34.365 -32.900 -31.473  0.00  0.00    -0.010 C 
ATOM     13  C   UNL A   1      33.025 -33.298 -32.093  0.00  0.00    -0.048 C 
ATOM     14  C   UNL A   1      31.856 -33.260 -31.110  0.00  0.00    -0.052 C 
ATOM     15  C   UNL A   1      31.954 -34.254 -29.953  0.00  0.00    -0.049 C 
ATOM     16  C   UNL A   1      33.150 -34.005 -29.032  0.00  0.00    -0.024 C 
ENDROOT
BRANCH   1  17
ATOM     17  N   UNL A   1      34.553 -36.237 -27.790  0.00  0.00    -0.357 N 
ATOM     18  H   UNL A   1      35.127 -36.762 -27.185  0.00  0.00    +0.000 HD
ATOM     19  H   UNL A   1      33.604 -36.094 -27.568  0.00  0.00    +0.000 HD
ENDBRANCH   1  17
TORSDOF 1
ENDMDL
MODEL 10
REMARK VINA RESULT:    -6.795      3.026      5.737
REMARK INTER + INTRA:          -6.994
REMARK INTER:                  -6.994
REMARK INTRA:                   0.000
REMARK UNBOUND:                 0.000
REMARK  Name = cpd67.pdb
REMARK  1 active torsions:
REMARK  status: ('A' for Active; 'I' for Inactive)
REMARK    1  A    between atoms: N_1  and  C_2
REMARK                            x       y       z     vdW  Elec       q    Type
REMARK                         _______ _______ _______ _____ _____    ______ ____
ROOT
ATOM      1  C   UNL A   1      36.243 -35.172 -30.699  0.00  0.00    +0.040 A 
ATOM      2  C   UNL A   1      34.943 -34.615 -30.676  0.00  0.00    -0.005 A 
ATOM      3  C   UNL A   1      34.083 -35.026 -29.660  0.00  0.00    +0.047 A 
ATOM      4  N   UNL A   1      34.421 -35.967 -28.752  0.00  0.00    -0.251 NA
ATOM      5  C   UNL A   1      35.618 -36.555 -28.825  0.00  0.00    +0.074 A 
ATOM      6  C   UNL A   1      35.856 -37.547 -27.882  0.00  0.00    -0.036 A 
ATOM      7  C   UNL A   1      37.054 -38.252 -27.829  0.00  0.00    -0.058 A 
ATOM      8  C   UNL A   1      38.047 -37.952 -28.743  0.00  0.00    -0.043 A 
ATOM      9  C   UNL A   1      37.834 -36.952 -29.701  0.00  0.00    +0.052 A 
ATOM     10 CL   UNL A   1      39.185 -36.656 -30.752  0.00  0.00    -0.083 Cl
ATOM     11  C   UNL A   1      36.601 -36.222 -29.779  0.00  0.00    +0.040 A 
ATOM     12  C   UNL A   1      32.702 -34.446 -29.491  0.00  0.00    -0.010 C 
ATOM     13  C   UNL A   1      32.718 -32.952 -29.168  0.00  0.00    -0.048 C 
ATOM     14  C   UNL A   1      32.906 -32.059 -30.392  0.00  0.00    -0.052 C 
ATOM     15  C   UNL A   1      34.245 -32.222 -31.111  0.00  0.00    -0.049 C 
ATOM     16  C   UNL A   1      34.456 -33.616 -31.702  0.00  0.00    -0.024 C 
ENDROOT
BRANCH   1  17
ATOM     17  N   UNL A   1      37.113 -34.815 -31.758  0.00  0.00    -0.357 N 
ATOM     18  H   UNL A   1      37.610 -35.513 -32.244  0.00  0.00    +0.000 HD
ATOM     19  H   UNL A   1      37.221 -33.869 -32.008  0.00  0.00    +0.000 HD
ENDBRANCH   1  17
TORSDOF 1
ENDMDL
MODEL 11
REMARK VINA RESULT:    -6.273     35.666     37.128
REMARK INTER + INTRA:          -6.457
REMARK INTER:                  -6.457
REMARK INTRA:                   0.000
REMARK UNBOUND:                 0.000
REMARK  Name = cpd67.pdb
REMARK  1 active torsions:
REMARK  status: ('A' for Active; 'I' for Inactive)
REMARK    1  A    between atoms: N_1  and  C_2
REMARK                            x       y       z     vdW  Elec       q    Type
REMARK                         _______ _______ _______ _____ _____    ______ ____
ROOT
ATOM      1  C   UNL A   1      64.016 -22.305  -7.473  0.00  0.00    +0.040 A 
ATOM      2  C   UNL A   1      64.091 -22.404  -6.064  0.00  0.00    -0.005 A 
ATOM      3  C   UNL A   1      63.593 -23.563  -5.472  0.00  0.00    +0.047 A 
ATOM      4  N   UNL A   1      62.995 -24.546  -6.179  0.00  0.00    -0.251 NA
ATOM      5  C   UNL A   1      62.847 -24.414  -7.500  0.00  0.00    +0.074 A 
ATOM      6  C   UNL A   1      62.175 -25.451  -8.134  0.00  0.00    -0.036 A 
ATOM      7  C   UNL A   1      61.941 -25.458  -9.505  0.00  0.00    -0.058 A 
ATOM      8  C   UNL A   1      62.400 -24.400 -10.267  0.00  0.00    -0.043 A 
ATOM      9  C   UNL A   1      63.086 -23.344  -9.652  0.00  0.00    +0.052 A 
ATOM     10 CL   UNL A   1      63.640 -22.108 -10.742  0.00  0.00    -0.083 Cl
ATOM     11  C   UNL A   1      63.327 -23.312  -8.238  0.00  0.00    +0.040 A 
ATOM     12  C   UNL A   1      63.686 -23.813  -3.988  0.00  0.00    -0.010 C 
ATOM     13  C   UNL A   1      65.128 -23.921  -3.492  0.00  0.00    -0.048 C 
ATOM     14  C   UNL A   1      65.806 -22.570  -3.273  0.00  0.00    -0.052 C 
ATOM     15  C   UNL A   1      65.989 -21.727  -4.534  0.00  0.00    -0.049 C 
ATOM     16  C   UNL A   1      64.671 -21.315  -5.191  0.00  0.00    -0.024 C 
ENDROOT
BRANCH   1  17
ATOM     17  N   UNL A   1      64.461 -21.110  -8.091  0.00  0.00    -0.357 N 
ATOM     18  H   UNL A   1      65.423 -20.956  -8.228  0.00  0.00    +0.000 HD
ATOM     19  H   UNL A   1      63.807 -20.434  -8.383  0.00  0.00    +0.000 HD
ENDBRANCH   1  17
TORSDOF 1
ENDMDL
MODEL 12
REMARK VINA RESULT:    -6.260     19.964     21.658
REMARK INTER + INTRA:          -6.443
REMARK INTER:                  -6.443
REMARK INTRA:                   0.000
REMARK UNBOUND:                 0.000
REMARK  Name = cpd67.pdb
REMARK  1 active torsions:
REMARK  status: ('A' for Active; 'I' for Inactive)
REMARK    1  A    between atoms: N_1  and  C_2
REMARK                            x       y       z     vdW  Elec       q    Type
REMARK                         _______ _______ _______ _____ _____    ______ ____
ROOT
ATOM      1  C   UNL A   1      46.618 -19.462 -39.709  0.00  0.00    +0.040 A 
ATOM      2  C   UNL A   1      46.322 -20.729 -40.262  0.00  0.00    -0.005 A 
ATOM      3  C   UNL A   1      45.394 -20.779 -41.301  0.00  0.00    +0.047 A 
ATOM      4  N   UNL A   1      44.735 -19.687 -41.745  0.00  0.00    -0.251 NA
ATOM      5  C   UNL A   1      44.951 -18.503 -41.165  0.00  0.00    +0.074 A 
ATOM      6  C   UNL A   1      44.189 -17.449 -41.653  0.00  0.00    -0.036 A 
ATOM      7  C   UNL A   1      44.299 -16.157 -41.151  0.00  0.00    -0.058 A 
ATOM      8  C   UNL A   1      45.203 -15.909 -40.135  0.00  0.00    -0.043 A 
ATOM      9  C   UNL A   1      45.987 -16.954 -39.629  0.00  0.00    +0.052 A 
ATOM     10 CL   UNL A   1      47.107 -16.483 -38.386  0.00  0.00    -0.083 Cl
ATOM     11  C   UNL A   1      45.880 -18.296 -40.125  0.00  0.00    +0.040 A 
ATOM     12  C   UNL A   1      45.055 -22.061 -42.017  0.00  0.00    -0.010 C 
ATOM     13  C   UNL A   1      46.247 -22.659 -42.765  0.00  0.00    -0.048 C 
ATOM     14  C   UNL A   1      47.201 -23.450 -41.872  0.00  0.00    -0.052 C 
ATOM     15  C   UNL A   1      47.908 -22.627 -40.795  0.00  0.00    -0.049 C 
ATOM     16  C   UNL A   1      46.954 -22.011 -39.771  0.00  0.00    -0.024 C 
ENDROOT
BRANCH   1  17
ATOM     17  N   UNL A   1      47.512 -19.395 -38.613  0.00  0.00    -0.357 N 
ATOM     18  H   UNL A   1      47.374 -18.723 -37.906  0.00  0.00    +0.000 HD
ATOM     19  H   UNL A   1      48.271 -20.020 -38.557  0.00  0.00    +0.000 HD
ENDBRANCH   1  17
TORSDOF 1
ENDMDL
MODEL 13
REMARK VINA RESULT:    -6.162      3.131      5.026
REMARK INTER + INTRA:          -6.343
REMARK INTER:                  -6.343
REMARK INTRA:                   0.000
REMARK UNBOUND:                 0.000
REMARK  Name = cpd67.pdb
REMARK  1 active torsions:
REMARK  status: ('A' for Active; 'I' for Inactive)
REMARK    1  A    between atoms: N_1  and  C_2
REMARK                            x       y       z     vdW  Elec       q    Type
REMARK                         _______ _______ _______ _____ _____    ______ ____
ROOT
ATOM      1  C   UNL A   1      35.491 -34.734 -30.197  0.00  0.00    +0.040 A 
ATOM      2  C   UNL A   1      36.044 -35.813 -29.471  0.00  0.00    -0.005 A 
ATOM      3  C   UNL A   1      35.277 -36.362 -28.445  0.00  0.00    +0.047 A 
ATOM      4  N   UNL A   1      34.074 -35.864 -28.086  0.00  0.00    -0.251 NA
ATOM      5  C   UNL A   1      33.588 -34.790 -28.716  0.00  0.00    +0.074 A 
ATOM      6  C   UNL A   1      32.370 -34.319 -28.244  0.00  0.00    -0.036 A 
ATOM      7  C   UNL A   1      31.737 -33.210 -28.794  0.00  0.00    -0.058 A 
ATOM      8  C   UNL A   1      32.337 -32.555 -29.853  0.00  0.00    -0.043 A 
ATOM      9  C   UNL A   1      33.563 -33.014 -30.352  0.00  0.00    +0.052 A 
ATOM     10 CL   UNL A   1      34.173 -32.119 -31.711  0.00  0.00    -0.083 Cl
ATOM     11  C   UNL A   1      34.238 -34.149 -29.790  0.00  0.00    +0.040 A 
ATOM     12  C   UNL A   1      35.731 -37.561 -27.653  0.00  0.00    -0.010 C 
ATOM     13  C   UNL A   1      35.875 -38.820 -28.509  0.00  0.00    -0.048 C 
ATOM     14  C   UNL A   1      37.185 -38.885 -29.293  0.00  0.00    -0.052 C 
ATOM     15  C   UNL A   1      37.363 -37.789 -30.344  0.00  0.00    -0.049 C 
ATOM     16  C   UNL A   1      37.417 -36.379 -29.754  0.00  0.00    -0.024 C 
ENDROOT
BRANCH   1  17
ATOM     17  N   UNL A   1      36.277 -34.122 -31.204  0.00  0.00    -0.357 N 
ATOM     18  H   UNL A   1      36.221 -34.441 -32.134  0.00  0.00    +0.000 HD
ATOM     19  H   UNL A   1      36.880 -33.378 -30.974  0.00  0.00    +0.000 HD
ENDBRANCH   1  17
TORSDOF 1
ENDMDL
MODEL 14
REMARK VINA RESULT:    -6.120     20.162     21.379
REMARK INTER + INTRA:          -6.299
REMARK INTER:                  -6.299
REMARK INTRA:                   0.000
REMARK UNBOUND:                 0.000
REMARK  Name = cpd67.pdb
REMARK  1 active torsions:
REMARK  status: ('A' for Active; 'I' for Inactive)
REMARK    1  A    between atoms: N_1  and  C_2
REMARK                            x       y       z     vdW  Elec       q    Type
REMARK                         _______ _______ _______ _____ _____    ______ ____
ROOT
ATOM      1  C   UNL A   1      46.644 -20.415 -39.305  0.00  0.00    +0.040 A 
ATOM      2  C   UNL A   1      46.737 -19.269 -38.483  0.00  0.00    -0.005 A 
ATOM      3  C   UNL A   1      46.012 -18.141 -38.864  0.00  0.00    +0.047 A 
ATOM      4  N   UNL A   1      45.290 -18.088 -40.005  0.00  0.00    -0.251 NA
ATOM      5  C   UNL A   1      45.272 -19.142 -40.825  0.00  0.00    +0.074 A 
ATOM      6  C   UNL A   1      44.546 -18.976 -41.997  0.00  0.00    -0.036 A 
ATOM      7  C   UNL A   1      44.433 -19.981 -42.952  0.00  0.00    -0.058 A 
ATOM      8  C   UNL A   1      45.060 -21.192 -42.725  0.00  0.00    -0.043 A 
ATOM      9  C   UNL A   1      45.793 -21.387 -41.547  0.00  0.00    +0.052 A 
ATOM     10 CL   UNL A   1      46.487 -22.972 -41.380  0.00  0.00    -0.083 Cl
ATOM     11  C   UNL A   1      45.932 -20.359 -40.556  0.00  0.00    +0.040 A 
ATOM     12  C   UNL A   1      45.974 -16.887 -38.028  0.00  0.00    -0.010 C 
ATOM     13  C   UNL A   1      45.329 -17.104 -36.660  0.00  0.00    -0.048 C 
ATOM     14  C   UNL A   1      46.269 -17.723 -35.627  0.00  0.00    -0.052 C 
ATOM     15  C   UNL A   1      46.748 -19.136 -35.956  0.00  0.00    -0.049 C 
ATOM     16  C   UNL A   1      47.585 -19.217 -37.233  0.00  0.00    -0.024 C 
ENDROOT
BRANCH   1  17
ATOM     17  N   UNL A   1      47.420 -21.553 -38.969  0.00  0.00    -0.357 N 
ATOM     18  H   UNL A   1      47.934 -21.567 -38.129  0.00  0.00    +0.000 HD
ATOM     19  H   UNL A   1      47.444 -22.328 -39.576  0.00  0.00    +0.000 HD
ENDBRANCH   1  17
TORSDOF 1
ENDMDL
MODEL 15
REMARK VINA RESULT:    -6.115     36.033     37.561
REMARK INTER + INTRA:          -6.294
REMARK INTER:                  -6.294
REMARK INTRA:                   0.000
REMARK UNBOUND:                 0.000
REMARK  Name = cpd67.pdb
REMARK  1 active torsions:
REMARK  status: ('A' for Active; 'I' for Inactive)
REMARK    1  A    between atoms: N_1  and  C_2
REMARK                            x       y       z     vdW  Elec       q    Type
REMARK                         _______ _______ _______ _____ _____    ______ ____
ROOT
ATOM      1  C   UNL A   1      63.536 -24.227  -5.869  0.00  0.00    +0.040 A 
ATOM      2  C   UNL A   1      64.260 -23.205  -5.213  0.00  0.00    -0.005 A 
ATOM      3  C   UNL A   1      64.577 -22.065  -5.949  0.00  0.00    +0.047 A 
ATOM      4  N   UNL A   1      64.278 -21.935  -7.259  0.00  0.00    -0.251 NA
ATOM      5  C   UNL A   1      63.670 -22.936  -7.902  0.00  0.00    +0.074 A 
ATOM      6  C   UNL A   1      63.450 -22.732  -9.258  0.00  0.00    -0.036 A 
ATOM      7  C   UNL A   1      62.830 -23.682 -10.062  0.00  0.00    -0.058 A 
ATOM      8  C   UNL A   1      62.409 -24.869  -9.492  0.00  0.00    -0.043 A 
ATOM      9  C   UNL A   1      62.614 -25.097  -8.125  0.00  0.00    +0.052 A 
ATOM     10 CL   UNL A   1      61.995 -26.612  -7.543  0.00  0.00    -0.083 Cl
ATOM     11  C   UNL A   1      63.263 -24.135  -7.281  0.00  0.00    +0.040 A 
ATOM     12  C   UNL A   1      65.279 -20.881  -5.336  0.00  0.00    -0.010 C 
ATOM     13  C   UNL A   1      64.459 -20.205  -4.237  0.00  0.00    -0.048 C 
ATOM     14  C   UNL A   1      64.542 -20.911  -2.885  0.00  0.00    -0.052 C 
ATOM     15  C   UNL A   1      63.965 -22.326  -2.859  0.00  0.00    -0.049 C 
ATOM     16  C   UNL A   1      64.705 -23.305  -3.772  0.00  0.00    -0.024 C 
ENDROOT
BRANCH   1  17
ATOM     17  N   UNL A   1      63.256 -25.420  -5.158  0.00  0.00    -0.357 N 
ATOM     18  H   UNL A   1      63.912 -26.155  -5.150  0.00  0.00    +0.000 HD
ATOM     19  H   UNL A   1      62.404 -25.515  -4.673  0.00  0.00    +0.000 HD
ENDBRANCH   1  17
TORSDOF 1
ENDMDL
MODEL 16
REMARK VINA RESULT:    -6.044     23.212     26.170
REMARK INTER + INTRA:          -6.220
REMARK INTER:                  -6.220
REMARK INTRA:                   0.000
REMARK UNBOUND:                 0.000
REMARK  Name = cpd67.pdb
REMARK  1 active torsions:
REMARK  status: ('A' for Active; 'I' for Inactive)
REMARK    1  A    between atoms: N_1  and  C_2
REMARK                            x       y       z     vdW  Elec       q    Type
REMARK                         _______ _______ _______ _____ _____    ______ ____
ROOT
ATOM      1  C   UNL A   1      54.724 -35.658 -49.803  0.00  0.00    +0.040 A 
ATOM      2  C   UNL A   1      55.387 -35.268 -48.618  0.00  0.00    -0.005 A 
ATOM      3  C   UNL A   1      56.297 -34.216 -48.704  0.00  0.00    +0.047 A 
ATOM      4  N   UNL A   1      56.607 -33.612 -49.871  0.00  0.00    -0.251 NA
ATOM      5  C   UNL A   1      56.044 -34.037 -51.006  0.00  0.00    +0.074 A 
ATOM      6  C   UNL A   1      56.463 -33.391 -52.161  0.00  0.00    -0.036 A 
ATOM      7  C   UNL A   1      55.970 -33.721 -53.419  0.00  0.00    -0.058 A 
ATOM      8  C   UNL A   1      55.024 -34.724 -53.524  0.00  0.00    -0.043 A 
ATOM      9  C   UNL A   1      54.581 -35.387 -52.373  0.00  0.00    +0.052 A 
ATOM     10 CL   UNL A   1      53.361 -36.592 -52.656  0.00  0.00    -0.083 Cl
ATOM     11  C   UNL A   1      55.085 -35.070 -51.068  0.00  0.00    +0.040 A 
ATOM     12  C   UNL A   1      57.008 -33.665 -47.494  0.00  0.00    -0.010 C 
ATOM     13  C   UNL A   1      56.053 -33.041 -46.476  0.00  0.00    -0.048 C 
ATOM     14  C   UNL A   1      55.369 -34.060 -45.567  0.00  0.00    -0.052 C 
ATOM     15  C   UNL A   1      54.440 -35.041 -46.282  0.00  0.00    -0.049 C 
ATOM     16  C   UNL A   1      55.160 -35.944 -47.284  0.00  0.00    -0.024 C 
ENDROOT
BRANCH   1  17
ATOM     17  N   UNL A   1      53.840 -36.765 -49.751  0.00  0.00    -0.357 N 
ATOM     18  H   UNL A   1      53.156 -36.881 -50.450  0.00  0.00    +0.000 HD
ATOM     19  H   UNL A   1      53.911 -37.416 -49.016  0.00  0.00    +0.000 HD
ENDBRANCH   1  17
TORSDOF 1
ENDMDL
MODEL 17
REMARK VINA RESULT:    -5.808     19.389     21.542
REMARK INTER + INTRA:          -5.978
REMARK INTER:                  -5.978
REMARK INTRA:                   0.000
REMARK UNBOUND:                 0.000
REMARK  Name = cpd67.pdb
REMARK  1 active torsions:
REMARK  status: ('A' for Active; 'I' for Inactive)
REMARK    1  A    between atoms: N_1  and  C_2
REMARK                            x       y       z     vdW  Elec       q    Type
REMARK                         _______ _______ _______ _____ _____    ______ ____
ROOT
ATOM      1  C   UNL A   1      46.429 -19.935 -38.679  0.00  0.00    +0.040 A 
ATOM      2  C   UNL A   1      45.631 -20.355 -39.767  0.00  0.00    -0.005 A 
ATOM      3  C   UNL A   1      45.106 -19.369 -40.601  0.00  0.00    +0.047 A 
ATOM      4  N   UNL A   1      45.279 -18.050 -40.370  0.00  0.00    -0.251 NA
ATOM      5  C   UNL A   1      45.961 -17.650 -39.294  0.00  0.00    +0.074 A 
ATOM      6  C   UNL A   1      46.041 -16.276 -39.111  0.00  0.00    -0.036 A 
ATOM      7  C   UNL A   1      46.716 -15.706 -38.037  0.00  0.00    -0.058 A 
ATOM      8  C   UNL A   1      47.335 -16.535 -37.120  0.00  0.00    -0.043 A 
ATOM      9  C   UNL A   1      47.274 -17.925 -37.285  0.00  0.00    +0.052 A 
ATOM     10 CL   UNL A   1      48.134 -18.836 -36.081  0.00  0.00    -0.083 Cl
ATOM     11  C   UNL A   1      46.573 -18.533 -38.379  0.00  0.00    +0.040 A 
ATOM     12  C   UNL A   1      44.304 -19.700 -41.834  0.00  0.00    -0.010 C 
ATOM     13  C   UNL A   1      45.113 -20.461 -42.884  0.00  0.00    -0.048 C 
ATOM     14  C   UNL A   1      45.235 -21.958 -42.603  0.00  0.00    -0.052 C 
ATOM     15  C   UNL A   1      45.995 -22.315 -41.327  0.00  0.00    -0.049 C 
ATOM     16  C   UNL A   1      45.321 -21.808 -40.051  0.00  0.00    -0.024 C 
ENDROOT
BRANCH   1  17
ATOM     17  N   UNL A   1      46.923 -20.916 -37.784  0.00  0.00    -0.357 N 
ATOM     18  H   UNL A   1      47.408 -20.642 -36.972  0.00  0.00    +0.000 HD
ATOM     19  H   UNL A   1      46.780 -21.872 -37.974  0.00  0.00    +0.000 HD
ENDBRANCH   1  17
TORSDOF 1
ENDMDL
MODEL 18
REMARK VINA RESULT:    -5.764     32.419     34.056
REMARK INTER + INTRA:          -5.933
REMARK INTER:                  -5.933
REMARK INTRA:                   0.000
REMARK UNBOUND:                 0.000
REMARK  Name = cpd67.pdb
REMARK  1 active torsions:
REMARK  status: ('A' for Active; 'I' for Inactive)
REMARK    1  A    between atoms: N_1  and  C_2
REMARK                            x       y       z     vdW  Elec       q    Type
REMARK                         _______ _______ _______ _____ _____    ______ ____
ROOT
ATOM      1  C   UNL A   1      64.009 -12.839 -30.304  0.00  0.00    +0.040 A 
ATOM      2  C   UNL A   1      64.715 -14.063 -30.243  0.00  0.00    -0.005 A 
ATOM      3  C   UNL A   1      64.100 -15.190 -30.784  0.00  0.00    +0.047 A 
ATOM      4  N   UNL A   1      62.851 -15.165 -31.297  0.00  0.00    -0.251 NA
ATOM      5  C   UNL A   1      62.150 -14.028 -31.278  0.00  0.00    +0.074 A 
ATOM      6  C   UNL A   1      60.858 -14.112 -31.779  0.00  0.00    -0.036 A 
ATOM      7  C   UNL A   1      60.005 -13.015 -31.825  0.00  0.00    -0.058 A 
ATOM      8  C   UNL A   1      60.460 -11.794 -31.363  0.00  0.00    -0.043 A 
ATOM      9  C   UNL A   1      61.762 -11.682 -30.858  0.00  0.00    +0.052 A 
ATOM     10 CL   UNL A   1      62.207 -10.079 -30.354  0.00  0.00    -0.083 Cl
ATOM     11  C   UNL A   1      62.653 -12.804 -30.790  0.00  0.00    +0.040 A 
ATOM     12  C   UNL A   1      64.785 -16.531 -30.842  0.00  0.00    -0.010 C 
ATOM     13  C   UNL A   1      66.034 -16.524 -31.724  0.00  0.00    -0.048 C 
ATOM     14  C   UNL A   1      67.273 -15.959 -31.032  0.00  0.00    -0.052 C 
ATOM     15  C   UNL A   1      67.178 -14.485 -30.641  0.00  0.00    -0.049 C 
ATOM     16  C   UNL A   1      66.083 -14.195 -29.613  0.00  0.00    -0.024 C 
ENDROOT
BRANCH   1  17
ATOM     17  N   UNL A   1      64.589 -11.693 -29.707  0.00  0.00    -0.357 N 
ATOM     18  H   UNL A   1      65.083 -11.777 -28.859  0.00  0.00    +0.000 HD
ATOM     19  H   UNL A   1      64.498 -10.813 -30.139  0.00  0.00    +0.000 HD
ENDBRANCH   1  17
TORSDOF 1
ENDMDL
MODEL 19
REMARK VINA RESULT:    -5.755     19.122     20.133
REMARK INTER + INTRA:          -5.923
REMARK INTER:                  -5.923
REMARK INTRA:                   0.000
REMARK UNBOUND:                 0.000
REMARK  Name = cpd67.pdb
REMARK  1 active torsions:
REMARK  status: ('A' for Active; 'I' for Inactive)
REMARK    1  A    between atoms: N_1  and  C_2
REMARK                            x       y       z     vdW  Elec       q    Type
REMARK                         _______ _______ _______ _____ _____    ______ ____
ROOT
ATOM      1  C   UNL A   1      46.133 -20.894 -38.878  0.00  0.00    +0.040 A 
ATOM      2  C   UNL A   1      45.020 -20.081 -38.565  0.00  0.00    -0.005 A 
ATOM      3  C   UNL A   1      43.962 -20.059 -39.472  0.00  0.00    +0.047 A 
ATOM      4  N   UNL A   1      43.993 -20.724 -40.647  0.00  0.00    -0.251 NA
ATOM      5  C   UNL A   1      45.081 -21.423 -40.983  0.00  0.00    +0.074 A 
ATOM      6  C   UNL A   1      45.042 -22.030 -42.231  0.00  0.00    -0.036 A 
ATOM      7  C   UNL A   1      46.098 -22.790 -42.723  0.00  0.00    -0.058 A 
ATOM      8  C   UNL A   1      47.225 -22.955 -41.939  0.00  0.00    -0.043 A 
ATOM      9  C   UNL A   1      47.286 -22.359 -40.673  0.00  0.00    +0.052 A 
ATOM     10 CL   UNL A   1      48.744 -22.689 -39.787  0.00  0.00    -0.083 Cl
ATOM     11  C   UNL A   1      46.214 -21.560 -40.153  0.00  0.00    +0.040 A 
ATOM     12  C   UNL A   1      42.693 -19.289 -39.211  0.00  0.00    -0.010 C 
ATOM     13  C   UNL A   1      41.922 -19.807 -37.996  0.00  0.00    -0.048 C 
ATOM     14  C   UNL A   1      42.464 -19.300 -36.661  0.00  0.00    -0.052 C 
ATOM     15  C   UNL A   1      43.885 -19.755 -36.327  0.00  0.00    -0.049 C 
ATOM     16  C   UNL A   1      44.938 -19.242 -37.310  0.00  0.00    -0.024 C 
ENDROOT
BRANCH   1  17
ATOM     17  N   UNL A   1      47.245 -20.885 -38.000  0.00  0.00    -0.357 N 
ATOM     18  H   UNL A   1      47.452 -20.077 -37.476  0.00  0.00    +0.000 HD
ATOM     19  H   UNL A   1      47.811 -21.687 -37.914  0.00  0.00    +0.000 HD
ENDBRANCH   1  17
TORSDOF 1
ENDMDL
MODEL 20
REMARK VINA RESULT:    -5.572     19.129     19.592
REMARK INTER + INTRA:          -5.735
REMARK INTER:                  -5.735
REMARK INTRA:                   0.000
REMARK UNBOUND:                 0.000
REMARK  Name = cpd67.pdb
REMARK  1 active torsions:
REMARK  status: ('A' for Active; 'I' for Inactive)
REMARK    1  A    between atoms: N_1  and  C_2
REMARK                            x       y       z     vdW  Elec       q    Type
REMARK                         _______ _______ _______ _____ _____    ______ ____
ROOT
ATOM      1  C   UNL A   1      44.370 -20.943 -40.483  0.00  0.00    +0.040 A 
ATOM      2  C   UNL A   1      45.625 -21.192 -41.084  0.00  0.00    -0.005 A 
ATOM      3  C   UNL A   1      46.757 -21.090 -40.279  0.00  0.00    +0.047 A 
ATOM      4  N   UNL A   1      46.702 -20.706 -38.986  0.00  0.00    -0.251 NA
ATOM      5  C   UNL A   1      45.525 -20.387 -38.440  0.00  0.00    +0.074 A 
ATOM      6  C   UNL A   1      45.573 -19.954 -37.122  0.00  0.00    -0.036 A 
ATOM      7  C   UNL A   1      44.432 -19.585 -36.417  0.00  0.00    -0.058 A 
ATOM      8  C   UNL A   1      43.204 -19.658 -37.048  0.00  0.00    -0.043 A 
ATOM      9  C   UNL A   1      43.128 -20.098 -38.376  0.00  0.00    +0.052 A 
ATOM     10 CL   UNL A   1      41.516 -20.179 -39.020  0.00  0.00    -0.083 Cl
ATOM     11  C   UNL A   1      44.294 -20.471 -39.124  0.00  0.00    +0.040 A 
ATOM     12  C   UNL A   1      48.140 -21.406 -40.791  0.00  0.00    -0.010 C 
ATOM     13  C   UNL A   1      48.302 -22.868 -41.205  0.00  0.00    -0.048 C 
ATOM     14  C   UNL A   1      47.754 -23.179 -42.596  0.00  0.00    -0.052 C 
ATOM     15  C   UNL A   1      46.245 -22.992 -42.752  0.00  0.00    -0.049 C 
ATOM     16  C   UNL A   1      45.783 -21.549 -42.545  0.00  0.00    -0.024 C 
ENDROOT
BRANCH   1  17
ATOM     17  N   UNL A   1      43.210 -20.981 -41.297  0.00  0.00    -0.357 N 
ATOM     18  H   UNL A   1      42.318 -21.009 -40.881  0.00  0.00    +0.000 HD
ATOM     19  H   UNL A   1      43.297 -20.981 -42.278  0.00  0.00    +0.000 HD
ENDBRANCH   1  17
TORSDOF 1
ENDMDL
