@<TRIPOS>MOLECULE
*****
 17 19 0 0 0
SMALL
GASTEIGER

@<TRIPOS>ATOM
      1 N           1.6479   -0.8765    0.0000 N.pl3   1  UNL1       -0.1283
      2 C           1.6479    0.1235    0.0000 C.ar    1  UNL1        0.0885
      3 C           0.7818    0.6235    0.0000 C.ar    1  UNL1        0.0082
      4 C           0.7818    1.6235    0.0000 C.ar    1  UNL1        0.0563
      5 N           1.6479    2.1235    0.0000 N.ar    1  UNL1       -0.2499
      6 C           2.5139    1.6235    0.0000 C.ar    1  UNL1        0.0830
      7 C           3.3799    2.1235    0.0000 C.ar    1  UNL1        0.0192
      8 C           4.2459    1.6235    0.0000 C.ar    1  UNL1        0.0024
      9 C           4.2459    0.6235    0.0000 C.ar    1  UNL1        0.0115
     10 C           3.3799    0.1235    0.0000 C.ar    1  UNL1        0.0604
     11 CL          3.3799   -0.8765    0.0000 Cl      1  UNL1       -0.0822
     12 C           2.5139    0.6235    0.0000 C.ar    1  UNL1        0.0447
     13 C          -0.0000    2.2470    0.0000 C.3     1  UNL1        0.0455
     14 C          -0.9749    2.0245    0.0000 C.3     1  UNL1        0.0063
     15 C          -1.4088    1.1235    0.0000 C.3     1  UNL1        0.0007
     16 C          -0.9749    0.2225    0.0000 C.3     1  UNL1        0.0048
     17 C           0.0000    0.0000    0.0000 C.3     1  UNL1        0.0289
@<TRIPOS>BOND
     1     1     2    1
     2     2     3   ar
     3     3     4   ar
     4     4     5   ar
     5     5     6   ar
     6     6     7   ar
     7     7     8   ar
     8     8     9   ar
     9     9    10   ar
    10    10    11    1
    11    10    12   ar
    12     2    12   ar
    13     6    12   ar
    14     4    13    1
    15    13    14    1
    16    14    15    1
    17    15    16    1
    18    16    17    1
    19     3    17    1
