MODEL 1
REMARK VINA RESULT:    -6.173      0.000      0.000
REMARK INTER + INTRA:         -12.187
REMARK INTER:                 -10.684
REMARK INTRA:                  -1.502
REMARK UNBOUND:                -1.502
REMARK  Name = cpd297.pdb
REMARK  19 active torsions:
REMARK  status: ('A' for Active; 'I' for Inactive)
REMARK    1  A    between atoms: C_1  and  C_2
REMARK    2  A    between atoms: C_2  and  N_3
REMARK    3  A    between atoms: N_3  and  C_4
REMARK    4  A    between atoms: N_3  and  C_6
REMARK    5  A    between atoms: C_4  and  C_5
REMARK    6  A    between atoms: C_6  and  C_7
REMARK    7  A    between atoms: C_7  and  O_8
REMARK    8  A    between atoms: O_8  and  C_9
REMARK    9  A    between atoms: C_9  and  C_11
REMARK   10  A    between atoms: C_11  and  C_12
REMARK   11  A    between atoms: C_12  and  C_13
REMARK   12  A    between atoms: C_12  and  C_14
REMARK   13  A    between atoms: C_14  and  C_15
REMARK   14  A    between atoms: C_15  and  C_16
REMARK   15  A    between atoms: C_17  and  C_18
REMARK   16  A    between atoms: C_18  and  O_19
REMARK   17  A    between atoms: C_23  and  C_24
REMARK   18  A    between atoms: C_23  and  C_25
REMARK   19  A    between atoms: C_29  and  C_30
REMARK                            x       y       z     vdW  Elec       q    Type
REMARK                         _______ _______ _______ _____ _____    ______ ____
ROOT
ATOM      1  C   UNL     1      43.702 -21.458 -39.771  0.00  0.00    -0.046 C 
ENDROOT
BRANCH   1   2
ATOM      2  C   UNL     1      44.412 -20.394 -40.721  0.00  0.00    -0.012 C 
ATOM      3  C   UNL     1      45.569 -21.159 -41.374  0.00  0.00    -0.045 C 
ATOM      4  C   UNL     1      46.786 -20.810 -40.957  0.00  0.00    -0.082 C 
ATOM      5  C   UNL     1      46.842 -19.597 -40.104  0.00  0.00    -0.031 C 
ATOM      6  C   UNL     1      45.636 -18.588 -40.503  0.00  0.00    -0.027 C 
ATOM      7  C   UNL     1      46.368 -17.096 -40.155  0.00  0.00    -0.031 C 
ATOM      8  C   UNL     1      47.442 -16.753 -41.224  0.00  0.00    -0.060 C 
ATOM      9  C   UNL     1      47.034 -17.040 -38.755  0.00  0.00    -0.060 C 
ATOM     10  C   UNL     1      45.322 -15.952 -40.177  0.00  0.00    -0.048 C 
ATOM     11  C   UNL     1      44.325 -16.222 -41.268  0.00  0.00    -0.052 C 
ATOM     12  C   UNL     1      43.839 -17.663 -41.137  0.00  0.00    -0.047 C 
ATOM     13  C   UNL     1      44.803 -18.696 -39.961  0.00  0.00    -0.022 C 
ATOM     14  C   UNL     1      43.970 -18.804 -39.418  0.00  0.00    -0.059 C 
BRANCH   3  15
ATOM     15  C   UNL     1      45.249 -22.231 -42.382  0.00  0.00    +0.066 C 
BRANCH  15  16
ATOM     16  O   UNL     1      46.198 -23.287 -42.334  0.00  0.00    -0.391 OA
ATOM     17  H   UNL     1      46.936 -23.087 -42.931  0.00  0.00    +0.000 HD
ENDBRANCH  15  16
ENDBRANCH   3  15
ENDBRANCH   1   2
BRANCH   1  18
ATOM     18  C   UNL     1      42.275 -21.804 -40.240  0.00  0.00    -0.049 C 
BRANCH  18  19
ATOM     19  C   UNL     1      41.179 -21.680 -39.162  0.00  0.00    -0.034 C 
ATOM     20  C   UNL     1      40.205 -20.540 -39.487  0.00  0.00    -0.062 C 
BRANCH  19  21
ATOM     21  C   UNL     1      41.763 -21.539 -37.748  0.00  0.00    +0.048 C 
BRANCH  21  22
ATOM     22  C   UNL     1      40.835 -22.075 -36.682  0.00  0.00    +0.307 C 
ATOM     23  O   UNL     1      40.362 -23.203 -36.688  0.00  0.00    -0.251 OA
BRANCH  22  24
ATOM     24  O   UNL     1      40.603 -21.134 -35.728  0.00  0.00    -0.463 OA
BRANCH  24  25
ATOM     25  C   UNL     1      41.111 -21.467 -34.426  0.00  0.00    +0.105 C 
BRANCH  25  26
ATOM     26  C   UNL     1      40.064 -21.038 -33.386  0.00  0.00    +0.033 C 
BRANCH  26  27
ATOM     27  N   UNL     1      38.992 -21.997 -33.061  0.00  0.00    -0.300 N 
ATOM     28  H   UNL     1      38.882 -21.894 -32.052  0.00  0.00    +0.000 HD
BRANCH  27  30
ATOM     29  C   UNL     1      36.985 -20.486 -33.064  0.00  0.00    -0.052 C 
ATOM     30  C   UNL     1      37.701 -21.678 -33.693  0.00  0.00    -0.004 C 
ENDBRANCH  27  30
BRANCH  27  31
ATOM     31  C   UNL     1      39.348 -23.400 -33.337  0.00  0.00    -0.004 C 
ATOM     32  C   UNL     1      38.193 -24.243 -33.871  0.00  0.00    -0.052 C 
ENDBRANCH  27  31
ENDBRANCH  26  27
ENDBRANCH  25  26
ENDBRANCH  24  25
ENDBRANCH  22  24
ENDBRANCH  21  22
ENDBRANCH  19  21
ENDBRANCH  18  19
ENDBRANCH   1  18
TORSDOF 13
ENDMDL
MODEL 2
REMARK VINA RESULT:    -6.062     16.584     20.493
REMARK INTER + INTRA:         -11.995
REMARK INTER:                 -10.217
REMARK INTRA:                  -1.777
REMARK UNBOUND:                -1.502
REMARK  Name = cpd297.pdb
REMARK  19 active torsions:
REMARK  status: ('A' for Active; 'I' for Inactive)
REMARK    1  A    between atoms: C_1  and  C_2
REMARK    2  A    between atoms: C_2  and  N_3
REMARK    3  A    between atoms: N_3  and  C_4
REMARK    4  A    between atoms: N_3  and  C_6
REMARK    5  A    between atoms: C_4  and  C_5
REMARK    6  A    between atoms: C_6  and  C_7
REMARK    7  A    between atoms: C_7  and  O_8
REMARK    8  A    between atoms: O_8  and  C_9
REMARK    9  A    between atoms: C_9  and  C_11
REMARK   10  A    between atoms: C_11  and  C_12
REMARK   11  A    between atoms: C_12  and  C_13
REMARK   12  A    between atoms: C_12  and  C_14
REMARK   13  A    between atoms: C_14  and  C_15
REMARK   14  A    between atoms: C_15  and  C_16
REMARK   15  A    between atoms: C_17  and  C_18
REMARK   16  A    between atoms: C_18  and  O_19
REMARK   17  A    between atoms: C_23  and  C_24
REMARK   18  A    between atoms: C_23  and  C_25
REMARK   19  A    between atoms: C_29  and  C_30
REMARK                            x       y       z     vdW  Elec       q    Type
REMARK                         _______ _______ _______ _____ _____    ______ ____
ROOT
ATOM      1  C   UNL     1      35.649 -35.966 -30.596  0.00  0.00    -0.046 C 
ENDROOT
BRANCH   1   2
ATOM      2  C   UNL     1      34.430 -35.240 -31.324  0.00  0.00    -0.012 C 
ATOM      3  C   UNL     1      34.395 -33.832 -30.720  0.00  0.00    -0.045 C 
ATOM      4  C   UNL     1      33.366 -33.589 -29.909  0.00  0.00    -0.082 C 
ATOM      5  C   UNL     1      32.308 -34.630 -29.895  0.00  0.00    -0.031 C 
ATOM      6  C   UNL     1      32.242 -35.366 -31.339  0.00  0.00    -0.027 C 
ATOM      7  C   UNL     1      30.590 -35.752 -31.402  0.00  0.00    -0.031 C 
ATOM      8  C   UNL     1      29.740 -34.475 -31.652  0.00  0.00    -0.060 C 
ATOM      9  C   UNL     1      30.063 -36.447 -30.119  0.00  0.00    -0.060 C 
ATOM     10  C   UNL     1      30.297 -36.729 -32.569  0.00  0.00    -0.048 C 
ATOM     11  C   UNL     1      31.174 -36.372 -33.736  0.00  0.00    -0.052 C 
ATOM     12  C   UNL     1      32.609 -36.226 -33.239  0.00  0.00    -0.047 C 
ATOM     13  C   UNL     1      32.791 -36.198 -31.410  0.00  0.00    -0.022 C 
ATOM     14  C   UNL     1      33.341 -37.031 -31.482  0.00  0.00    -0.059 C 
BRANCH   3  15
ATOM     15  C   UNL     1      35.506 -32.871 -31.056  0.00  0.00    +0.066 C 
BRANCH  15  16
ATOM     16  O   UNL     1      35.123 -31.980 -32.094  0.00  0.00    -0.391 OA
ATOM     17  H   UNL     1      35.822 -31.321 -32.228  0.00  0.00    +0.000 HD
ENDBRANCH  15  16
ENDBRANCH   3  15
ENDBRANCH   1   2
BRANCH   1  18
ATOM     18  C   UNL     1      35.612 -35.786 -29.066  0.00  0.00    -0.049 C 
BRANCH  18  19
ATOM     19  C   UNL     1      35.226 -37.044 -28.263  0.00  0.00    -0.034 C 
ATOM     20  C   UNL     1      34.060 -36.759 -27.307  0.00  0.00    -0.062 C 
BRANCH  19  21
ATOM     21  C   UNL     1      36.425 -37.657 -27.525  0.00  0.00    +0.048 C 
BRANCH  21  22
ATOM     22  C   UNL     1      37.190 -38.642 -28.381  0.00  0.00    +0.307 C 
ATOM     23  O   UNL     1      36.736 -39.709 -28.772  0.00  0.00    -0.251 OA
BRANCH  22  24
ATOM     24  O   UNL     1      38.440 -38.179 -28.649  0.00  0.00    -0.463 OA
BRANCH  24  25
ATOM     25  C   UNL     1      38.674 -37.858 -30.030  0.00  0.00    +0.105 C 
BRANCH  25  26
ATOM     26  C   UNL     1      39.738 -36.750 -30.083  0.00  0.00    +0.033 C 
BRANCH  26  27
ATOM     27  N   UNL     1      40.534 -36.627 -31.318  0.00  0.00    -0.300 N 
ATOM     28  H   UNL     1      40.655 -37.594 -31.619  0.00  0.00    +0.000 HD
BRANCH  27  30
ATOM     29  C   UNL     1      39.188 -34.599 -31.941  0.00  0.00    -0.052 C 
ATOM     30  C   UNL     1      39.844 -35.899 -32.397  0.00  0.00    -0.004 C 
ENDBRANCH  27  30
BRANCH  27  31
ATOM     31  C   UNL     1      41.873 -36.048 -31.105  0.00  0.00    -0.004 C 
ATOM     32  C   UNL     1      43.018 -36.934 -31.587  0.00  0.00    -0.052 C 
ENDBRANCH  27  31
ENDBRANCH  26  27
ENDBRANCH  25  26
ENDBRANCH  24  25
ENDBRANCH  22  24
ENDBRANCH  21  22
ENDBRANCH  19  21
ENDBRANCH  18  19
ENDBRANCH   1  18
TORSDOF 13
ENDMDL
MODEL 3
REMARK VINA RESULT:    -6.007     17.059     20.848
REMARK INTER + INTRA:         -11.898
REMARK INTER:                 -10.115
REMARK INTRA:                  -1.783
REMARK UNBOUND:                -1.502
REMARK  Name = cpd297.pdb
REMARK  19 active torsions:
REMARK  status: ('A' for Active; 'I' for Inactive)
REMARK    1  A    between atoms: C_1  and  C_2
REMARK    2  A    between atoms: C_2  and  N_3
REMARK    3  A    between atoms: N_3  and  C_4
REMARK    4  A    between atoms: N_3  and  C_6
REMARK    5  A    between atoms: C_4  and  C_5
REMARK    6  A    between atoms: C_6  and  C_7
REMARK    7  A    between atoms: C_7  and  O_8
REMARK    8  A    between atoms: O_8  and  C_9
REMARK    9  A    between atoms: C_9  and  C_11
REMARK   10  A    between atoms: C_11  and  C_12
REMARK   11  A    between atoms: C_12  and  C_13
REMARK   12  A    between atoms: C_12  and  C_14
REMARK   13  A    between atoms: C_14  and  C_15
REMARK   14  A    between atoms: C_15  and  C_16
REMARK   15  A    between atoms: C_17  and  C_18
REMARK   16  A    between atoms: C_18  and  O_19
REMARK   17  A    between atoms: C_23  and  C_24
REMARK   18  A    between atoms: C_23  and  C_25
REMARK   19  A    between atoms: C_29  and  C_30
REMARK                            x       y       z     vdW  Elec       q    Type
REMARK                         _______ _______ _______ _____ _____    ______ ____
ROOT
ATOM      1  C   UNL     1      34.702 -37.040 -27.848  0.00  0.00    -0.046 C 
ENDROOT
BRANCH   1   2
ATOM      2  C   UNL     1      33.776 -35.827 -28.306  0.00  0.00    -0.012 C 
ATOM      3  C   UNL     1      32.342 -36.336 -28.124  0.00  0.00    -0.045 C 
ATOM      4  C   UNL     1      31.678 -36.577 -29.254  0.00  0.00    -0.082 C 
ATOM      5  C   UNL     1      32.345 -36.107 -30.495  0.00  0.00    -0.031 C 
ATOM      6  C   UNL     1      33.251 -34.801 -30.171  0.00  0.00    -0.027 C 
ATOM      7  C   UNL     1      33.137 -33.983 -31.655  0.00  0.00    -0.031 C 
ATOM      8  C   UNL     1      31.724 -33.360 -31.826  0.00  0.00    -0.060 C 
ATOM      9  C   UNL     1      33.429 -34.881 -32.885  0.00  0.00    -0.060 C 
ATOM     10  C   UNL     1      34.159 -32.820 -31.722  0.00  0.00    -0.048 C 
ATOM     11  C   UNL     1      34.270 -32.189 -30.363  0.00  0.00    -0.052 C 
ATOM     12  C   UNL     1      34.476 -33.292 -29.329  0.00  0.00    -0.047 C 
ATOM     13  C   UNL     1      34.209 -34.998 -29.961  0.00  0.00    -0.022 C 
ATOM     14  C   UNL     1      35.166 -35.194 -29.751  0.00  0.00    -0.059 C 
BRANCH   3  15
ATOM     15  C   UNL     1      31.820 -36.545 -26.727  0.00  0.00    +0.066 C 
BRANCH  15  16
ATOM     16  O   UNL     1      32.473 -35.692 -25.796  0.00  0.00    -0.391 OA
ATOM     17  H   UNL     1      33.025 -36.225 -25.202  0.00  0.00    +0.000 HD
ENDBRANCH  15  16
ENDBRANCH   3  15
ENDBRANCH   1   2
BRANCH   1  18
ATOM     18  C   UNL     1      34.170 -38.402 -28.333  0.00  0.00    -0.049 C 
BRANCH  18  19
ATOM     19  C   UNL     1      34.884 -38.988 -29.567  0.00  0.00    -0.034 C 
ATOM     20  C   UNL     1      33.877 -39.446 -30.630  0.00  0.00    -0.062 C 
BRANCH  19  21
ATOM     21  C   UNL     1      35.865 -40.111 -29.196  0.00  0.00    +0.048 C 
BRANCH  21  22
ATOM     22  C   UNL     1      37.226 -39.584 -28.799  0.00  0.00    +0.307 C 
ATOM     23  O   UNL     1      37.946 -40.108 -27.961  0.00  0.00    -0.251 OA
BRANCH  22  24
ATOM     24  O   UNL     1      37.529 -38.457 -29.498  0.00  0.00    -0.463 OA
BRANCH  24  25
ATOM     25  C   UNL     1      38.603 -37.682 -28.942  0.00  0.00    +0.105 C 
BRANCH  25  26
ATOM     26  C   UNL     1      39.732 -37.623 -29.984  0.00  0.00    +0.033 C 
BRANCH  26  27
ATOM     27  N   UNL     1      39.941 -36.348 -30.693  0.00  0.00    -0.300 N 
ATOM     28  H   UNL     1      40.293 -35.727 -29.964  0.00  0.00    +0.000 HD
BRANCH  27  30
ATOM     29  C   UNL     1      42.305 -35.824 -31.362  0.00  0.00    -0.052 C 
ATOM     30  C   UNL     1      40.957 -36.422 -31.756  0.00  0.00    -0.004 C 
ENDBRANCH  27  30
BRANCH  27  31
ATOM     31  C   UNL     1      38.701 -35.758 -31.231  0.00  0.00    -0.004 C 
ATOM     32  C   UNL     1      38.901 -34.414 -31.925  0.00  0.00    -0.052 C 
ENDBRANCH  27  31
ENDBRANCH  26  27
ENDBRANCH  25  26
ENDBRANCH  24  25
ENDBRANCH  22  24
ENDBRANCH  21  22
ENDBRANCH  19  21
ENDBRANCH  18  19
ENDBRANCH   1  18
TORSDOF 13
ENDMDL
MODEL 4
REMARK VINA RESULT:    -5.884      2.211      4.029
REMARK INTER + INTRA:         -11.687
REMARK INTER:                  -9.548
REMARK INTRA:                  -2.139
REMARK UNBOUND:                -1.502
REMARK  Name = cpd297.pdb
REMARK  19 active torsions:
REMARK  status: ('A' for Active; 'I' for Inactive)
REMARK    1  A    between atoms: C_1  and  C_2
REMARK    2  A    between atoms: C_2  and  N_3
REMARK    3  A    between atoms: N_3  and  C_4
REMARK    4  A    between atoms: N_3  and  C_6
REMARK    5  A    between atoms: C_4  and  C_5
REMARK    6  A    between atoms: C_6  and  C_7
REMARK    7  A    between atoms: C_7  and  O_8
REMARK    8  A    between atoms: O_8  and  C_9
REMARK    9  A    between atoms: C_9  and  C_11
REMARK   10  A    between atoms: C_11  and  C_12
REMARK   11  A    between atoms: C_12  and  C_13
REMARK   12  A    between atoms: C_12  and  C_14
REMARK   13  A    between atoms: C_14  and  C_15
REMARK   14  A    between atoms: C_15  and  C_16
REMARK   15  A    between atoms: C_17  and  C_18
REMARK   16  A    between atoms: C_18  and  O_19
REMARK   17  A    between atoms: C_23  and  C_24
REMARK   18  A    between atoms: C_23  and  C_25
REMARK   19  A    between atoms: C_29  and  C_30
REMARK                            x       y       z     vdW  Elec       q    Type
REMARK                         _______ _______ _______ _____ _____    ______ ____
ROOT
ATOM      1  C   UNL     1      42.191 -19.011 -38.750  0.00  0.00    -0.046 C 
ENDROOT
BRANCH   1   2
ATOM      2  C   UNL     1      43.721 -19.027 -39.196  0.00  0.00    -0.012 C 
ATOM      3  C   UNL     1      43.911 -17.734 -39.996  0.00  0.00    -0.045 C 
ATOM      4  C   UNL     1      44.076 -17.899 -41.309  0.00  0.00    -0.082 C 
ATOM      5  C   UNL     1      44.273 -19.302 -41.753  0.00  0.00    -0.031 C 
ATOM      6  C   UNL     1      44.996 -20.154 -40.578  0.00  0.00    -0.027 C 
ATOM      7  C   UNL     1      45.874 -21.267 -41.513  0.00  0.00    -0.031 C 
ATOM      8  C   UNL     1      47.083 -20.571 -42.197  0.00  0.00    -0.060 C 
ATOM      9  C   UNL     1      45.026 -21.965 -42.609  0.00  0.00    -0.060 C 
ATOM     10  C   UNL     1      46.445 -22.402 -40.625  0.00  0.00    -0.048 C 
ATOM     11  C   UNL     1      46.863 -21.825 -39.303  0.00  0.00    -0.052 C 
ATOM     12  C   UNL     1      45.720 -20.971 -38.762  0.00  0.00    -0.047 C 
ATOM     13  C   UNL     1      44.371 -20.639 -39.966  0.00  0.00    -0.022 C 
ATOM     14  C   UNL     1      43.746 -21.123 -39.354  0.00  0.00    -0.059 C 
BRANCH   3  15
ATOM     15  C   UNL     1      43.870 -16.417 -39.266  0.00  0.00    +0.066 C 
BRANCH  15  16
ATOM     16  O   UNL     1      44.693 -16.441 -38.109  0.00  0.00    -0.391 OA
ATOM     17  H   UNL     1      44.147 -16.620 -37.327  0.00  0.00    +0.000 HD
ENDBRANCH  15  16
ENDBRANCH   3  15
ENDBRANCH   1   2
BRANCH   1  18
ATOM     18  C   UNL     1      42.019 -18.700 -37.250  0.00  0.00    -0.049 C 
BRANCH  18  19
ATOM     19  C   UNL     1      41.899 -19.932 -36.331  0.00  0.00    -0.034 C 
ATOM     20  C   UNL     1      43.275 -20.403 -35.845  0.00  0.00    -0.062 C 
BRANCH  19  21
ATOM     21  C   UNL     1      41.109 -21.075 -36.988  0.00  0.00    +0.048 C 
BRANCH  21  22
ATOM     22  C   UNL     1      39.755 -21.287 -36.348  0.00  0.00    +0.307 C 
ATOM     23  O   UNL     1      38.928 -20.401 -36.187  0.00  0.00    -0.251 OA
BRANCH  22  24
ATOM     24  O   UNL     1      39.594 -22.586 -35.981  0.00  0.00    -0.463 OA
BRANCH  24  25
ATOM     25  C   UNL     1      40.365 -22.982 -34.835  0.00  0.00    +0.105 C 
BRANCH  25  26
ATOM     26  C   UNL     1      39.440 -22.942 -33.608  0.00  0.00    +0.033 C 
BRANCH  26  27
ATOM     27  N   UNL     1      39.732 -21.942 -32.565  0.00  0.00    -0.300 N 
ATOM     28  H   UNL     1      39.786 -22.498 -31.712  0.00  0.00    +0.000 HD
BRANCH  27  30
ATOM     29  C   UNL     1      40.959 -19.749 -32.547  0.00  0.00    -0.052 C 
ATOM     30  C   UNL     1      41.026 -21.261 -32.745  0.00  0.00    -0.004 C 
ENDBRANCH  27  30
BRANCH  27  31
ATOM     31  C   UNL     1      38.665 -20.941 -32.387  0.00  0.00    -0.004 C 
ATOM     32  C   UNL     1      37.328 -21.340 -33.005  0.00  0.00    -0.052 C 
ENDBRANCH  27  31
ENDBRANCH  26  27
ENDBRANCH  25  26
ENDBRANCH  24  25
ENDBRANCH  22  24
ENDBRANCH  21  22
ENDBRANCH  19  21
ENDBRANCH  18  19
ENDBRANCH   1  18
TORSDOF 13
ENDMDL
MODEL 5
REMARK VINA RESULT:    -5.853      3.200      6.081
REMARK INTER + INTRA:         -11.632
REMARK INTER:                  -9.223
REMARK INTRA:                  -2.409
REMARK UNBOUND:                -1.502
REMARK  Name = cpd297.pdb
REMARK  19 active torsions:
REMARK  status: ('A' for Active; 'I' for Inactive)
REMARK    1  A    between atoms: C_1  and  C_2
REMARK    2  A    between atoms: C_2  and  N_3
REMARK    3  A    between atoms: N_3  and  C_4
REMARK    4  A    between atoms: N_3  and  C_6
REMARK    5  A    between atoms: C_4  and  C_5
REMARK    6  A    between atoms: C_6  and  C_7
REMARK    7  A    between atoms: C_7  and  O_8
REMARK    8  A    between atoms: O_8  and  C_9
REMARK    9  A    between atoms: C_9  and  C_11
REMARK   10  A    between atoms: C_11  and  C_12
REMARK   11  A    between atoms: C_12  and  C_13
REMARK   12  A    between atoms: C_12  and  C_14
REMARK   13  A    between atoms: C_14  and  C_15
REMARK   14  A    between atoms: C_15  and  C_16
REMARK   15  A    between atoms: C_17  and  C_18
REMARK   16  A    between atoms: C_18  and  O_19
REMARK   17  A    between atoms: C_23  and  C_24
REMARK   18  A    between atoms: C_23  and  C_25
REMARK   19  A    between atoms: C_29  and  C_30
REMARK                            x       y       z     vdW  Elec       q    Type
REMARK                         _______ _______ _______ _____ _____    ______ ____
ROOT
ATOM      1  C   UNL     1      41.908 -18.856 -38.862  0.00  0.00    -0.046 C 
ENDROOT
BRANCH   1   2
ATOM      2  C   UNL     1      43.481 -18.808 -39.115  0.00  0.00    -0.012 C 
ATOM      3  C   UNL     1      43.754 -17.389 -39.627  0.00  0.00    -0.045 C 
ATOM      4  C   UNL     1      44.078 -17.305 -40.917  0.00  0.00    -0.082 C 
ATOM      5  C   UNL     1      44.340 -18.600 -41.592  0.00  0.00    -0.031 C 
ATOM      6  C   UNL     1      44.924 -19.670 -40.522  0.00  0.00    -0.027 C 
ATOM      7  C   UNL     1      45.919 -20.597 -41.538  0.00  0.00    -0.031 C 
ATOM      8  C   UNL     1      47.196 -19.800 -41.926  0.00  0.00    -0.060 C 
ATOM      9  C   UNL     1      45.218 -21.063 -42.841  0.00  0.00    -0.060 C 
ATOM     10  C   UNL     1      46.389 -21.888 -40.821  0.00  0.00    -0.048 C 
ATOM     11  C   UNL     1      46.638 -21.578 -39.372  0.00  0.00    -0.052 C 
ATOM     12  C   UNL     1      45.430 -20.826 -38.820  0.00  0.00    -0.047 C 
ATOM     13  C   UNL     1      44.234 -20.253 -40.094  0.00  0.00    -0.022 C 
ATOM     14  C   UNL     1      43.544 -20.836 -39.665  0.00  0.00    -0.059 C 
BRANCH   3  15
ATOM     15  C   UNL     1      43.612 -16.235 -38.670  0.00  0.00    +0.066 C 
BRANCH  15  16
ATOM     16  O   UNL     1      44.187 -15.049 -39.200  0.00  0.00    -0.391 OA
ATOM     17  H   UNL     1      43.916 -14.944 -40.125  0.00  0.00    +0.000 HD
ENDBRANCH  15  16
ENDBRANCH   3  15
ENDBRANCH   1   2
BRANCH   1  18
ATOM     18  C   UNL     1      41.557 -19.079 -37.378  0.00  0.00    -0.049 C 
BRANCH  18  19
ATOM     19  C   UNL     1      41.224 -20.533 -36.991  0.00  0.00    -0.034 C 
ATOM     20  C   UNL     1      39.903 -20.615 -36.215  0.00  0.00    -0.062 C 
BRANCH  19  21
ATOM     21  C   UNL     1      42.371 -21.213 -36.228  0.00  0.00    +0.048 C 
BRANCH  21  22
ATOM     22  C   UNL     1      43.014 -20.296 -35.212  0.00  0.00    +0.307 C 
ATOM     23  O   UNL     1      42.472 -19.931 -34.178  0.00  0.00    -0.251 OA
BRANCH  22  24
ATOM     24  O   UNL     1      44.265 -19.938 -35.609  0.00  0.00    -0.463 OA
BRANCH  24  25
ATOM     25  C   UNL     1      44.906 -18.972 -34.760  0.00  0.00    +0.105 C 
BRANCH  25  26
ATOM     26  C   UNL     1      45.280 -17.758 -35.625  0.00  0.00    +0.033 C 
BRANCH  26  27
ATOM     27  N   UNL     1      46.713 -17.503 -35.860  0.00  0.00    -0.300 N 
ATOM     28  H   UNL     1      46.760 -16.488 -35.954  0.00  0.00    +0.000 HD
BRANCH  27  30
ATOM     29  C   UNL     1      48.782 -18.734 -35.144  0.00  0.00    -0.052 C 
ATOM     30  C   UNL     1      47.576 -17.894 -34.733  0.00  0.00    -0.004 C 
ENDBRANCH  27  30
BRANCH  27  31
ATOM     31  C   UNL     1      47.225 -18.097 -37.108  0.00  0.00    -0.004 C 
ATOM     32  C   UNL     1      47.150 -17.168 -38.317  0.00  0.00    -0.052 C 
ENDBRANCH  27  31
ENDBRANCH  26  27
ENDBRANCH  25  26
ENDBRANCH  24  25
ENDBRANCH  22  24
ENDBRANCH  21  22
ENDBRANCH  19  21
ENDBRANCH  18  19
ENDBRANCH   1  18
TORSDOF 13
ENDMDL
MODEL 6
REMARK VINA RESULT:    -5.842      2.011      3.145
REMARK INTER + INTRA:         -11.613
REMARK INTER:                 -10.074
REMARK INTRA:                  -1.539
REMARK UNBOUND:                -1.502
REMARK  Name = cpd297.pdb
REMARK  19 active torsions:
REMARK  status: ('A' for Active; 'I' for Inactive)
REMARK    1  A    between atoms: C_1  and  C_2
REMARK    2  A    between atoms: C_2  and  N_3
REMARK    3  A    between atoms: N_3  and  C_4
REMARK    4  A    between atoms: N_3  and  C_6
REMARK    5  A    between atoms: C_4  and  C_5
REMARK    6  A    between atoms: C_6  and  C_7
REMARK    7  A    between atoms: C_7  and  O_8
REMARK    8  A    between atoms: O_8  and  C_9
REMARK    9  A    between atoms: C_9  and  C_11
REMARK   10  A    between atoms: C_11  and  C_12
REMARK   11  A    between atoms: C_12  and  C_13
REMARK   12  A    between atoms: C_12  and  C_14
REMARK   13  A    between atoms: C_14  and  C_15
REMARK   14  A    between atoms: C_15  and  C_16
REMARK   15  A    between atoms: C_17  and  C_18
REMARK   16  A    between atoms: C_18  and  O_19
REMARK   17  A    between atoms: C_23  and  C_24
REMARK   18  A    between atoms: C_23  and  C_25
REMARK   19  A    between atoms: C_29  and  C_30
REMARK                            x       y       z     vdW  Elec       q    Type
REMARK                         _______ _______ _______ _____ _____    ______ ____
ROOT
ATOM      1  C   UNL     1      44.302 -19.282 -40.440  0.00  0.00    -0.046 C 
ENDROOT
BRANCH   1   2
ATOM      2  C   UNL     1      45.707 -18.999 -39.741  0.00  0.00    -0.012 C 
ATOM      3  C   UNL     1      46.512 -20.288 -39.942  0.00  0.00    -0.045 C 
ATOM      4  C   UNL     1      46.708 -21.011 -38.839  0.00  0.00    -0.082 C 
ATOM      5  C   UNL     1      46.315 -20.351 -37.569  0.00  0.00    -0.031 C 
ATOM      6  C   UNL     1      46.486 -18.744 -37.708  0.00  0.00    -0.027 C 
ATOM      7  C   UNL     1      46.874 -18.345 -36.105  0.00  0.00    -0.031 C 
ATOM      8  C   UNL     1      48.323 -18.794 -35.766  0.00  0.00    -0.060 C 
ATOM      9  C   UNL     1      45.911 -18.964 -35.058  0.00  0.00    -0.060 C 
ATOM     10  C   UNL     1      46.811 -16.811 -35.889  0.00  0.00    -0.048 C 
ATOM     11  C   UNL     1      47.316 -16.123 -37.125  0.00  0.00    -0.052 C 
ATOM     12  C   UNL     1      46.613 -16.726 -38.338  0.00  0.00    -0.047 C 
ATOM     13  C   UNL     1      45.659 -18.258 -37.992  0.00  0.00    -0.022 C 
ATOM     14  C   UNL     1      44.832 -17.772 -38.276  0.00  0.00    -0.059 C 
BRANCH   3  15
ATOM     15  C   UNL     1      46.980 -20.642 -41.329  0.00  0.00    +0.066 C 
BRANCH  15  16
ATOM     16  O   UNL     1      48.249 -20.069 -41.609  0.00  0.00    -0.391 OA
ATOM     17  H   UNL     1      48.379 -19.283 -41.055  0.00  0.00    +0.000 HD
ENDBRANCH  15  16
ENDBRANCH   3  15
ENDBRANCH   1   2
BRANCH   1  18
ATOM     18  C   UNL     1      43.767 -20.695 -40.135  0.00  0.00    -0.049 C 
BRANCH  18  19
ATOM     19  C   UNL     1      42.480 -20.744 -39.287  0.00  0.00    -0.034 C 
ATOM     20  C   UNL     1      42.801 -20.795 -37.788  0.00  0.00    -0.062 C 
BRANCH  19  21
ATOM     21  C   UNL     1      41.549 -21.892 -39.706  0.00  0.00    +0.048 C 
BRANCH  21  22
ATOM     22  C   UNL     1      40.295 -21.958 -38.863  0.00  0.00    +0.307 C 
ATOM     23  O   UNL     1      39.351 -21.188 -38.978  0.00  0.00    -0.251 OA
BRANCH  22  24
ATOM     24  O   UNL     1      40.368 -22.980 -37.969  0.00  0.00    -0.463 OA
BRANCH  24  25
ATOM     25  C   UNL     1      39.635 -22.761 -36.752  0.00  0.00    +0.105 C 
BRANCH  25  26
ATOM     26  C   UNL     1      40.643 -22.742 -35.592  0.00  0.00    +0.033 C 
BRANCH  26  27
ATOM     27  N   UNL     1      40.118 -22.937 -34.228  0.00  0.00    -0.300 N 
ATOM     28  H   UNL     1      40.594 -23.780 -33.909  0.00  0.00    +0.000 HD
BRANCH  27  30
ATOM     29  C   UNL     1      41.275 -20.725 -33.942  0.00  0.00    -0.052 C 
ATOM     30  C   UNL     1      40.460 -21.845 -33.301  0.00  0.00    -0.004 C 
ENDBRANCH  27  30
BRANCH  27  31
ATOM     31  C   UNL     1      38.667 -23.191 -34.182  0.00  0.00    -0.004 C 
ATOM     32  C   UNL     1      37.873 -22.139 -33.412  0.00  0.00    -0.052 C 
ENDBRANCH  27  31
ENDBRANCH  26  27
ENDBRANCH  25  26
ENDBRANCH  24  25
ENDBRANCH  22  24
ENDBRANCH  21  22
ENDBRANCH  19  21
ENDBRANCH  18  19
ENDBRANCH   1  18
TORSDOF 13
ENDMDL
MODEL 7
REMARK VINA RESULT:    -5.836      2.973      5.402
REMARK INTER + INTRA:         -11.603
REMARK INTER:                  -9.863
REMARK INTRA:                  -1.740
REMARK UNBOUND:                -1.502
REMARK  Name = cpd297.pdb
REMARK  19 active torsions:
REMARK  status: ('A' for Active; 'I' for Inactive)
REMARK    1  A    between atoms: C_1  and  C_2
REMARK    2  A    between atoms: C_2  and  N_3
REMARK    3  A    between atoms: N_3  and  C_4
REMARK    4  A    between atoms: N_3  and  C_6
REMARK    5  A    between atoms: C_4  and  C_5
REMARK    6  A    between atoms: C_6  and  C_7
REMARK    7  A    between atoms: C_7  and  O_8
REMARK    8  A    between atoms: O_8  and  C_9
REMARK    9  A    between atoms: C_9  and  C_11
REMARK   10  A    between atoms: C_11  and  C_12
REMARK   11  A    between atoms: C_12  and  C_13
REMARK   12  A    between atoms: C_12  and  C_14
REMARK   13  A    between atoms: C_14  and  C_15
REMARK   14  A    between atoms: C_15  and  C_16
REMARK   15  A    between atoms: C_17  and  C_18
REMARK   16  A    between atoms: C_18  and  O_19
REMARK   17  A    between atoms: C_23  and  C_24
REMARK   18  A    between atoms: C_23  and  C_25
REMARK   19  A    between atoms: C_29  and  C_30
REMARK                            x       y       z     vdW  Elec       q    Type
REMARK                         _______ _______ _______ _____ _____    ______ ____
ROOT
ATOM      1  C   UNL     1      45.997 -17.537 -37.326  0.00  0.00    -0.046 C 
ENDROOT
BRANCH   1   2
ATOM      2  C   UNL     1      46.425 -18.130 -38.742  0.00  0.00    -0.012 C 
ATOM      3  C   UNL     1      46.280 -16.958 -39.719  0.00  0.00    -0.045 C 
ATOM      4  C   UNL     1      45.265 -17.059 -40.578  0.00  0.00    -0.082 C 
ATOM      5  C   UNL     1      44.581 -18.376 -40.601  0.00  0.00    -0.031 C 
ATOM      6  C   UNL     1      45.632 -19.549 -40.213  0.00  0.00    -0.027 C 
ATOM      7  C   UNL     1      44.995 -20.833 -41.123  0.00  0.00    -0.031 C 
ATOM      8  C   UNL     1      45.287 -20.627 -42.636  0.00  0.00    -0.060 C 
ATOM      9  C   UNL     1      43.467 -21.029 -40.941  0.00  0.00    -0.060 C 
ATOM     10  C   UNL     1      45.651 -22.176 -40.712  0.00  0.00    -0.048 C 
ATOM     11  C   UNL     1      47.101 -21.937 -40.402  0.00  0.00    -0.052 C 
ATOM     12  C   UNL     1      47.206 -20.746 -39.454  0.00  0.00    -0.047 C 
ATOM     13  C   UNL     1      45.649 -19.791 -39.243  0.00  0.00    -0.022 C 
ATOM     14  C   UNL     1      45.666 -20.034 -38.273  0.00  0.00    -0.059 C 
BRANCH   3  15
ATOM     15  C   UNL     1      47.247 -15.808 -39.619  0.00  0.00    +0.066 C 
BRANCH  15  16
ATOM     16  O   UNL     1      48.154 -15.797 -40.712  0.00  0.00    -0.391 OA
ATOM     17  H   UNL     1      47.921 -15.077 -41.319  0.00  0.00    +0.000 HD
ENDBRANCH  15  16
ENDBRANCH   3  15
ENDBRANCH   1   2
BRANCH   1  18
ATOM     18  C   UNL     1      47.204 -17.307 -36.396  0.00  0.00    -0.049 C 
BRANCH  18  19
ATOM     19  C   UNL     1      47.147 -18.051 -35.046  0.00  0.00    -0.034 C 
ATOM     20  C   UNL     1      48.463 -18.785 -34.759  0.00  0.00    -0.062 C 
BRANCH  19  21
ATOM     21  C   UNL     1      45.940 -18.996 -34.951  0.00  0.00    +0.048 C 
BRANCH  21  22
ATOM     22  C   UNL     1      45.043 -18.673 -33.777  0.00  0.00    +0.307 C 
ATOM     23  O   UNL     1      45.363 -17.942 -32.850  0.00  0.00    -0.251 OA
BRANCH  22  24
ATOM     24  O   UNL     1      43.845 -19.306 -33.897  0.00  0.00    -0.463 OA
BRANCH  24  25
ATOM     25  C   UNL     1      43.701 -20.086 -35.096  0.00  0.00    +0.105 C 
BRANCH  25  26
ATOM     26  C   UNL     1      42.200 -20.211 -35.400  0.00  0.00    +0.033 C 
BRANCH  26  27
ATOM     27  N   UNL     1      41.677 -21.553 -35.716  0.00  0.00    -0.300 N 
ATOM     28  H   UNL     1      42.203 -22.165 -35.093  0.00  0.00    +0.000 HD
BRANCH  27  30
ATOM     29  C   UNL     1      39.879 -23.111 -34.909  0.00  0.00    -0.052 C 
ATOM     30  C   UNL     1      40.245 -21.717 -35.410  0.00  0.00    -0.004 C 
ENDBRANCH  27  30
BRANCH  27  31
ATOM     31  C   UNL     1      41.941 -21.981 -37.102  0.00  0.00    -0.004 C 
ATOM     32  C   UNL     1      41.013 -21.350 -38.136  0.00  0.00    -0.052 C 
ENDBRANCH  27  31
ENDBRANCH  26  27
ENDBRANCH  25  26
ENDBRANCH  24  25
ENDBRANCH  22  24
ENDBRANCH  21  22
ENDBRANCH  19  21
ENDBRANCH  18  19
ENDBRANCH   1  18
TORSDOF 13
ENDMDL
MODEL 8
REMARK VINA RESULT:    -5.816      2.281      3.920
REMARK INTER + INTRA:         -11.569
REMARK INTER:                  -8.855
REMARK INTRA:                  -2.714
REMARK UNBOUND:                -1.502
REMARK  Name = cpd297.pdb
REMARK  19 active torsions:
REMARK  status: ('A' for Active; 'I' for Inactive)
REMARK    1  A    between atoms: C_1  and  C_2
REMARK    2  A    between atoms: C_2  and  N_3
REMARK    3  A    between atoms: N_3  and  C_4
REMARK    4  A    between atoms: N_3  and  C_6
REMARK    5  A    between atoms: C_4  and  C_5
REMARK    6  A    between atoms: C_6  and  C_7
REMARK    7  A    between atoms: C_7  and  O_8
REMARK    8  A    between atoms: O_8  and  C_9
REMARK    9  A    between atoms: C_9  and  C_11
REMARK   10  A    between atoms: C_11  and  C_12
REMARK   11  A    between atoms: C_12  and  C_13
REMARK   12  A    between atoms: C_12  and  C_14
REMARK   13  A    between atoms: C_14  and  C_15
REMARK   14  A    between atoms: C_15  and  C_16
REMARK   15  A    between atoms: C_17  and  C_18
REMARK   16  A    between atoms: C_18  and  O_19
REMARK   17  A    between atoms: C_23  and  C_24
REMARK   18  A    between atoms: C_23  and  C_25
REMARK   19  A    between atoms: C_29  and  C_30
REMARK                            x       y       z     vdW  Elec       q    Type
REMARK                         _______ _______ _______ _____ _____    ______ ____
ROOT
ATOM      1  C   UNL     1      44.618 -17.711 -38.356  0.00  0.00    -0.046 C 
ENDROOT
BRANCH   1   2
ATOM      2  C   UNL     1      44.580 -19.256 -38.746  0.00  0.00    -0.012 C 
ATOM      3  C   UNL     1      45.118 -19.987 -37.511  0.00  0.00    -0.045 C 
ATOM      4  C   UNL     1      46.329 -20.525 -37.654  0.00  0.00    -0.082 C 
ATOM      5  C   UNL     1      46.864 -20.526 -39.039  0.00  0.00    -0.031 C 
ATOM      6  C   UNL     1      45.641 -20.615 -40.100  0.00  0.00    -0.027 C 
ATOM      7  C   UNL     1      46.398 -21.467 -41.358  0.00  0.00    -0.031 C 
ATOM      8  C   UNL     1      46.593 -22.958 -40.967  0.00  0.00    -0.060 C 
ATOM      9  C   UNL     1      47.776 -20.883 -41.765  0.00  0.00    -0.060 C 
ATOM     10  C   UNL     1      45.528 -21.443 -42.641  0.00  0.00    -0.048 C 
ATOM     11  C   UNL     1      44.080 -21.531 -42.250  0.00  0.00    -0.052 C 
ATOM     12  C   UNL     1      43.808 -20.503 -41.156  0.00  0.00    -0.047 C 
ATOM     13  C   UNL     1      45.312 -19.731 -40.434  0.00  0.00    -0.022 C 
ATOM     14  C   UNL     1      44.983 -18.848 -40.768  0.00  0.00    -0.059 C 
BRANCH   3  15
ATOM     15  C   UNL     1      44.277 -20.015 -36.262  0.00  0.00    +0.066 C 
BRANCH  15  16
ATOM     16  O   UNL     1      43.357 -21.098 -36.281  0.00  0.00    -0.391 OA
ATOM     17  H   UNL     1      43.772 -21.867 -36.702  0.00  0.00    +0.000 HD
ENDBRANCH  15  16
ENDBRANCH   3  15
ENDBRANCH   1   2
BRANCH   1  18
ATOM     18  C   UNL     1      43.218 -17.150 -38.039  0.00  0.00    -0.049 C 
BRANCH  18  19
ATOM     19  C   UNL     1      42.048 -17.852 -38.757  0.00  0.00    -0.034 C 
ATOM     20  C   UNL     1      41.357 -16.908 -39.751  0.00  0.00    -0.062 C 
BRANCH  19  21
ATOM     21  C   UNL     1      41.045 -18.470 -37.772  0.00  0.00    +0.048 C 
BRANCH  21  22
ATOM     22  C   UNL     1      40.683 -19.894 -38.131  0.00  0.00    +0.307 C 
ATOM     23  O   UNL     1      41.454 -20.686 -38.654  0.00  0.00    -0.251 OA
BRANCH  22  24
ATOM     24  O   UNL     1      39.393 -20.162 -37.795  0.00  0.00    -0.463 OA
BRANCH  24  25
ATOM     25  C   UNL     1      39.210 -21.381 -37.055  0.00  0.00    +0.105 C 
BRANCH  25  26
ATOM     26  C   UNL     1      39.323 -21.046 -35.559  0.00  0.00    +0.033 C 
BRANCH  26  27
ATOM     27  N   UNL     1      40.520 -21.522 -34.842  0.00  0.00    -0.300 N 
ATOM     28  H   UNL     1      41.252 -21.484 -35.551  0.00  0.00    +0.000 HD
BRANCH  27  30
ATOM     29  C   UNL     1      41.183 -19.204 -34.135  0.00  0.00    -0.052 C 
ATOM     30  C   UNL     1      40.925 -20.651 -33.725  0.00  0.00    -0.004 C 
ENDBRANCH  27  30
BRANCH  27  31
ATOM     31  C   UNL     1      40.415 -22.916 -34.373  0.00  0.00    -0.004 C 
ATOM     32  C   UNL     1      39.036 -23.292 -33.839  0.00  0.00    -0.052 C 
ENDBRANCH  27  31
ENDBRANCH  26  27
ENDBRANCH  25  26
ENDBRANCH  24  25
ENDBRANCH  22  24
ENDBRANCH  21  22
ENDBRANCH  19  21
ENDBRANCH  18  19
ENDBRANCH   1  18
TORSDOF 13
ENDMDL
MODEL 9
REMARK VINA RESULT:    -5.731     17.130     20.816
REMARK INTER + INTRA:         -11.421
REMARK INTER:                  -9.272
REMARK INTRA:                  -2.149
REMARK UNBOUND:                -1.502
REMARK  Name = cpd297.pdb
REMARK  19 active torsions:
REMARK  status: ('A' for Active; 'I' for Inactive)
REMARK    1  A    between atoms: C_1  and  C_2
REMARK    2  A    between atoms: C_2  and  N_3
REMARK    3  A    between atoms: N_3  and  C_4
REMARK    4  A    between atoms: N_3  and  C_6
REMARK    5  A    between atoms: C_4  and  C_5
REMARK    6  A    between atoms: C_6  and  C_7
REMARK    7  A    between atoms: C_7  and  O_8
REMARK    8  A    between atoms: O_8  and  C_9
REMARK    9  A    between atoms: C_9  and  C_11
REMARK   10  A    between atoms: C_11  and  C_12
REMARK   11  A    between atoms: C_12  and  C_13
REMARK   12  A    between atoms: C_12  and  C_14
REMARK   13  A    between atoms: C_14  and  C_15
REMARK   14  A    between atoms: C_15  and  C_16
REMARK   15  A    between atoms: C_17  and  C_18
REMARK   16  A    between atoms: C_18  and  O_19
REMARK   17  A    between atoms: C_23  and  C_24
REMARK   18  A    between atoms: C_23  and  C_25
REMARK   19  A    between atoms: C_29  and  C_30
REMARK                            x       y       z     vdW  Elec       q    Type
REMARK                         _______ _______ _______ _____ _____    ______ ____
ROOT
ATOM      1  C   UNL     1      36.325 -36.000 -29.190  0.00  0.00    -0.046 C 
ENDROOT
BRANCH   1   2
ATOM      2  C   UNL     1      35.336 -35.345 -30.254  0.00  0.00    -0.012 C 
ATOM      3  C   UNL     1      36.085 -34.118 -30.785  0.00  0.00    -0.045 C 
ATOM      4  C   UNL     1      35.594 -32.942 -30.395  0.00  0.00    -0.082 C 
ATOM      5  C   UNL     1      34.283 -32.999 -29.701  0.00  0.00    -0.031 C 
ATOM      6  C   UNL     1      33.428 -34.265 -30.246  0.00  0.00    -0.027 C 
ATOM      7  C   UNL     1      31.852 -33.656 -30.077  0.00  0.00    -0.031 C 
ATOM      8  C   UNL     1      31.563 -32.582 -31.162  0.00  0.00    -0.060 C 
ATOM      9  C   UNL     1      31.571 -33.034 -28.684  0.00  0.00    -0.060 C 
ATOM     10  C   UNL     1      30.804 -34.783 -30.261  0.00  0.00    -0.048 C 
ATOM     11  C   UNL     1      31.285 -35.727 -31.326  0.00  0.00    -0.052 C 
ATOM     12  C   UNL     1      32.730 -36.108 -31.022  0.00  0.00    -0.047 C 
ATOM     13  C   UNL     1      33.531 -35.102 -29.708  0.00  0.00    -0.022 C 
ATOM     14  C   UNL     1      33.635 -35.939 -29.171  0.00  0.00    -0.059 C 
BRANCH   3  15
ATOM     15  C   UNL     1      37.296 -34.329 -31.655  0.00  0.00    +0.066 C 
BRANCH  15  16
ATOM     16  O   UNL     1      38.047 -33.132 -31.798  0.00  0.00    -0.391 OA
ATOM     17  H   UNL     1      38.932 -33.344 -32.133  0.00  0.00    +0.000 HD
ENDBRANCH  15  16
ENDBRANCH   3  15
ENDBRANCH   1   2
BRANCH   1  18
ATOM     18  C   UNL     1      36.991 -37.284 -29.719  0.00  0.00    -0.049 C 
BRANCH  18  19
ATOM     19  C   UNL     1      37.555 -38.228 -28.638  0.00  0.00    -0.034 C 
ATOM     20  C   UNL     1      39.089 -38.228 -28.642  0.00  0.00    -0.062 C 
BRANCH  19  21
ATOM     21  C   UNL     1      36.989 -39.652 -28.752  0.00  0.00    +0.048 C 
BRANCH  21  22
ATOM     22  C   UNL     1      35.480 -39.684 -28.660  0.00  0.00    +0.307 C 
ATOM     23  O   UNL     1      34.733 -39.615 -29.627  0.00  0.00    -0.251 OA
BRANCH  22  24
ATOM     24  O   UNL     1      35.078 -39.798 -27.366  0.00  0.00    -0.463 OA
BRANCH  24  25
ATOM     25  C   UNL     1      34.405 -38.639 -26.847  0.00  0.00    +0.105 C 
BRANCH  25  26
ATOM     26  C   UNL     1      32.920 -38.995 -26.672  0.00  0.00    +0.033 C 
BRANCH  26  27
ATOM     27  N   UNL     1      32.070 -38.036 -25.942  0.00  0.00    -0.300 N 
ATOM     28  H   UNL     1      31.727 -38.580 -25.150  0.00  0.00    +0.000 HD
BRANCH  27  30
ATOM     29  C   UNL     1      32.172 -35.533 -25.754  0.00  0.00    -0.052 C 
ATOM     30  C   UNL     1      32.807 -36.877 -25.411  0.00  0.00    -0.004 C 
ENDBRANCH  27  30
BRANCH  27  31
ATOM     31  C   UNL     1      30.902 -37.572 -26.713  0.00  0.00    -0.004 C 
ATOM     32  C   UNL     1      30.861 -38.083 -28.150  0.00  0.00    -0.052 C 
ENDBRANCH  27  31
ENDBRANCH  26  27
ENDBRANCH  25  26
ENDBRANCH  24  25
ENDBRANCH  22  24
ENDBRANCH  21  22
ENDBRANCH  19  21
ENDBRANCH  18  19
ENDBRANCH   1  18
TORSDOF 13
ENDMDL
MODEL 10
REMARK VINA RESULT:    -5.710      2.124      3.781
REMARK INTER + INTRA:         -11.385
REMARK INTER:                  -9.069
REMARK INTRA:                  -2.316
REMARK UNBOUND:                -1.502
REMARK  Name = cpd297.pdb
REMARK  19 active torsions:
REMARK  status: ('A' for Active; 'I' for Inactive)
REMARK    1  A    between atoms: C_1  and  C_2
REMARK    2  A    between atoms: C_2  and  N_3
REMARK    3  A    between atoms: N_3  and  C_4
REMARK    4  A    between atoms: N_3  and  C_6
REMARK    5  A    between atoms: C_4  and  C_5
REMARK    6  A    between atoms: C_6  and  C_7
REMARK    7  A    between atoms: C_7  and  O_8
REMARK    8  A    between atoms: O_8  and  C_9
REMARK    9  A    between atoms: C_9  and  C_11
REMARK   10  A    between atoms: C_11  and  C_12
REMARK   11  A    between atoms: C_12  and  C_13
REMARK   12  A    between atoms: C_12  and  C_14
REMARK   13  A    between atoms: C_14  and  C_15
REMARK   14  A    between atoms: C_15  and  C_16
REMARK   15  A    between atoms: C_17  and  C_18
REMARK   16  A    between atoms: C_18  and  O_19
REMARK   17  A    between atoms: C_23  and  C_24
REMARK   18  A    between atoms: C_23  and  C_25
REMARK   19  A    between atoms: C_29  and  C_30
REMARK                            x       y       z     vdW  Elec       q    Type
REMARK                         _______ _______ _______ _____ _____    ______ ____
ROOT
ATOM      1  C   UNL     1      41.979 -18.799 -37.319  0.00  0.00    -0.046 C 
ENDROOT
BRANCH   1   2
ATOM      2  C   UNL     1      43.069 -19.898 -37.697  0.00  0.00    -0.012 C 
ATOM      3  C   UNL     1      43.858 -20.130 -36.403  0.00  0.00    -0.045 C 
ATOM      4  C   UNL     1      45.105 -19.658 -36.407  0.00  0.00    -0.082 C 
ATOM      5  C   UNL     1      45.601 -19.188 -37.725  0.00  0.00    -0.031 C 
ATOM      6  C   UNL     1      44.888 -20.029 -38.914  0.00  0.00    -0.027 C 
ATOM      7  C   UNL     1      46.128 -20.019 -40.073  0.00  0.00    -0.031 C 
ATOM      8  C   UNL     1      47.279 -20.973 -39.649  0.00  0.00    -0.060 C 
ATOM      9  C   UNL     1      46.728 -18.612 -40.331  0.00  0.00    -0.060 C 
ATOM     10  C   UNL     1      45.604 -20.519 -41.444  0.00  0.00    -0.048 C 
ATOM     11  C   UNL     1      44.609 -21.620 -41.214  0.00  0.00    -0.052 C 
ATOM     12  C   UNL     1      43.602 -21.155 -40.166  0.00  0.00    -0.047 C 
ATOM     13  C   UNL     1      44.064 -19.606 -39.290  0.00  0.00    -0.022 C 
ATOM     14  C   UNL     1      43.239 -19.183 -39.666  0.00  0.00    -0.059 C 
BRANCH   3  15
ATOM     15  C   UNL     1      43.177 -20.826 -35.254  0.00  0.00    +0.066 C 
BRANCH  15  16
ATOM     16  O   UNL     1      43.934 -20.713 -34.057  0.00  0.00    -0.391 OA
ATOM     17  H   UNL     1      44.751 -21.230 -34.142  0.00  0.00    +0.000 HD
ENDBRANCH  15  16
ENDBRANCH   3  15
ENDBRANCH   1   2
BRANCH   1  18
ATOM     18  C   UNL     1      40.566 -19.396 -37.175  0.00  0.00    -0.049 C 
BRANCH  18  19
ATOM     19  C   UNL     1      40.208 -20.495 -38.196  0.00  0.00    -0.034 C 
ATOM     20  C   UNL     1      39.564 -19.899 -39.454  0.00  0.00    -0.062 C 
BRANCH  19  21
ATOM     21  C   UNL     1      39.333 -21.599 -37.582  0.00  0.00    +0.048 C 
BRANCH  21  22
ATOM     22  C   UNL     1      40.098 -22.473 -36.614  0.00  0.00    +0.307 C 
ATOM     23  O   UNL     1      41.136 -23.058 -36.891  0.00  0.00    -0.251 OA
BRANCH  22  24
ATOM     24  O   UNL     1      39.473 -22.517 -35.407  0.00  0.00    -0.463 OA
BRANCH  24  25
ATOM     25  C   UNL     1      40.312 -22.929 -34.316  0.00  0.00    +0.105 C 
BRANCH  25  26
ATOM     26  C   UNL     1      40.132 -21.916 -33.174  0.00  0.00    +0.033 C 
BRANCH  26  27
ATOM     27  N   UNL     1      39.369 -20.688 -33.464  0.00  0.00    -0.300 N 
ATOM     28  H   UNL     1      39.024 -20.843 -34.412  0.00  0.00    +0.000 HD
BRANCH  27  30
ATOM     29  C   UNL     1      37.087 -21.509 -32.808  0.00  0.00    -0.052 C 
ATOM     30  C   UNL     1      38.204 -20.494 -32.585  0.00  0.00    -0.004 C 
ENDBRANCH  27  30
BRANCH  27  31
ATOM     31  C   UNL     1      40.193 -19.466 -33.476  0.00  0.00    -0.004 C 
ATOM     32  C   UNL     1      39.430 -18.204 -33.868  0.00  0.00    -0.052 C 
ENDBRANCH  27  31
ENDBRANCH  26  27
ENDBRANCH  25  26
ENDBRANCH  24  25
ENDBRANCH  22  24
ENDBRANCH  21  22
ENDBRANCH  19  21
ENDBRANCH  18  19
ENDBRANCH   1  18
TORSDOF 13
ENDMDL
MODEL 11
REMARK VINA RESULT:    -5.708      2.049      3.853
REMARK INTER + INTRA:         -11.381
REMARK INTER:                  -9.273
REMARK INTRA:                  -2.108
REMARK UNBOUND:                -1.502
REMARK  Name = cpd297.pdb
REMARK  19 active torsions:
REMARK  status: ('A' for Active; 'I' for Inactive)
REMARK    1  A    between atoms: C_1  and  C_2
REMARK    2  A    between atoms: C_2  and  N_3
REMARK    3  A    between atoms: N_3  and  C_4
REMARK    4  A    between atoms: N_3  and  C_6
REMARK    5  A    between atoms: C_4  and  C_5
REMARK    6  A    between atoms: C_6  and  C_7
REMARK    7  A    between atoms: C_7  and  O_8
REMARK    8  A    between atoms: O_8  and  C_9
REMARK    9  A    between atoms: C_9  and  C_11
REMARK   10  A    between atoms: C_11  and  C_12
REMARK   11  A    between atoms: C_12  and  C_13
REMARK   12  A    between atoms: C_12  and  C_14
REMARK   13  A    between atoms: C_14  and  C_15
REMARK   14  A    between atoms: C_15  and  C_16
REMARK   15  A    between atoms: C_17  and  C_18
REMARK   16  A    between atoms: C_18  and  O_19
REMARK   17  A    between atoms: C_23  and  C_24
REMARK   18  A    between atoms: C_23  and  C_25
REMARK   19  A    between atoms: C_29  and  C_30
REMARK                            x       y       z     vdW  Elec       q    Type
REMARK                         _______ _______ _______ _____ _____    ______ ____
ROOT
ATOM      1  C   UNL     1      43.162 -20.711 -36.796  0.00  0.00    -0.046 C 
ENDROOT
BRANCH   1   2
ATOM      2  C   UNL     1      44.529 -20.139 -37.382  0.00  0.00    -0.012 C 
ATOM      3  C   UNL     1      44.642 -18.723 -36.807  0.00  0.00    -0.045 C 
ATOM      4  C   UNL     1      44.467 -17.738 -37.688  0.00  0.00    -0.082 C 
ATOM      5  C   UNL     1      44.414 -18.159 -39.110  0.00  0.00    -0.031 C 
ATOM      6  C   UNL     1      45.316 -19.490 -39.323  0.00  0.00    -0.027 C 
ATOM      7  C   UNL     1      45.829 -19.251 -40.923  0.00  0.00    -0.031 C 
ATOM      8  C   UNL     1      46.898 -18.124 -40.991  0.00  0.00    -0.060 C 
ATOM      9  C   UNL     1      44.678 -18.893 -41.900  0.00  0.00    -0.060 C 
ATOM     10  C   UNL     1      46.487 -20.536 -41.489  0.00  0.00    -0.048 C 
ATOM     11  C   UNL     1      47.266 -21.207 -40.394  0.00  0.00    -0.052 C 
ATOM     12  C   UNL     1      46.376 -21.317 -39.160  0.00  0.00    -0.047 C 
ATOM     13  C   UNL     1      44.814 -20.352 -39.250  0.00  0.00    -0.022 C 
ATOM     14  C   UNL     1      44.312 -21.214 -39.176  0.00  0.00    -0.059 C 
BRANCH   3  15
ATOM     15  C   UNL     1      44.906 -18.559 -35.333  0.00  0.00    +0.066 C 
BRANCH  15  16
ATOM     16  O   UNL     1      45.930 -19.438 -34.889  0.00  0.00    -0.391 OA
ATOM     17  H   UNL     1      45.794 -20.316 -35.280  0.00  0.00    +0.000 HD
ENDBRANCH  15  16
ENDBRANCH   3  15
ENDBRANCH   1   2
BRANCH   1  18
ATOM     18  C   UNL     1      41.979 -19.747 -37.014  0.00  0.00    -0.049 C 
BRANCH  18  19
ATOM     19  C   UNL     1      41.174 -19.973 -38.309  0.00  0.00    -0.034 C 
ATOM     20  C   UNL     1      40.699 -18.644 -38.910  0.00  0.00    -0.062 C 
BRANCH  19  21
ATOM     21  C   UNL     1      40.007 -20.952 -38.108  0.00  0.00    +0.048 C 
BRANCH  21  22
ATOM     22  C   UNL     1      40.406 -22.389 -38.362  0.00  0.00    +0.307 C 
ATOM     23  O   UNL     1      40.856 -22.798 -39.423  0.00  0.00    -0.251 OA
BRANCH  22  24
ATOM     24  O   UNL     1      40.192 -23.151 -37.256  0.00  0.00    -0.463 OA
BRANCH  24  25
ATOM     25  C   UNL     1      39.542 -22.462 -36.174  0.00  0.00    +0.105 C 
BRANCH  25  26
ATOM     26  C   UNL     1      40.379 -22.683 -34.904  0.00  0.00    +0.033 C 
BRANCH  26  27
ATOM     27  N   UNL     1      40.385 -21.607 -33.896  0.00  0.00    -0.300 N 
ATOM     28  H   UNL     1      40.017 -20.804 -34.405  0.00  0.00    +0.000 HD
BRANCH  27  30
ATOM     29  C   UNL     1      38.272 -20.955 -32.705  0.00  0.00    -0.052 C 
ATOM     30  C   UNL     1      39.496 -21.865 -32.750  0.00  0.00    -0.004 C 
ENDBRANCH  27  30
BRANCH  27  31
ATOM     31  C   UNL     1      41.732 -21.257 -33.410  0.00  0.00    -0.004 C 
ATOM     32  C   UNL     1      41.869 -19.812 -32.939  0.00  0.00    -0.052 C 
ENDBRANCH  27  31
ENDBRANCH  26  27
ENDBRANCH  25  26
ENDBRANCH  24  25
ENDBRANCH  22  24
ENDBRANCH  21  22
ENDBRANCH  19  21
ENDBRANCH  18  19
ENDBRANCH   1  18
TORSDOF 13
ENDMDL
MODEL 12
REMARK VINA RESULT:    -5.697      2.654      3.726
REMARK INTER + INTRA:         -11.363
REMARK INTER:                  -8.993
REMARK INTRA:                  -2.370
REMARK UNBOUND:                -1.502
REMARK  Name = cpd297.pdb
REMARK  19 active torsions:
REMARK  status: ('A' for Active; 'I' for Inactive)
REMARK    1  A    between atoms: C_1  and  C_2
REMARK    2  A    between atoms: C_2  and  N_3
REMARK    3  A    between atoms: N_3  and  C_4
REMARK    4  A    between atoms: N_3  and  C_6
REMARK    5  A    between atoms: C_4  and  C_5
REMARK    6  A    between atoms: C_6  and  C_7
REMARK    7  A    between atoms: C_7  and  O_8
REMARK    8  A    between atoms: O_8  and  C_9
REMARK    9  A    between atoms: C_9  and  C_11
REMARK   10  A    between atoms: C_11  and  C_12
REMARK   11  A    between atoms: C_12  and  C_13
REMARK   12  A    between atoms: C_12  and  C_14
REMARK   13  A    between atoms: C_14  and  C_15
REMARK   14  A    between atoms: C_15  and  C_16
REMARK   15  A    between atoms: C_17  and  C_18
REMARK   16  A    between atoms: C_18  and  O_19
REMARK   17  A    between atoms: C_23  and  C_24
REMARK   18  A    between atoms: C_23  and  C_25
REMARK   19  A    between atoms: C_29  and  C_30
REMARK                            x       y       z     vdW  Elec       q    Type
REMARK                         _______ _______ _______ _____ _____    ______ ____
ROOT
ATOM      1  C   UNL     1      43.967 -20.988 -40.042  0.00  0.00    -0.046 C 
ENDROOT
BRANCH   1   2
ATOM      2  C   UNL     1      44.487 -19.771 -40.930  0.00  0.00    -0.012 C 
ATOM      3  C   UNL     1      45.583 -20.372 -41.817  0.00  0.00    -0.045 C 
ATOM      4  C   UNL     1      46.826 -19.993 -41.517  0.00  0.00    -0.082 C 
ATOM      5  C   UNL     1      46.932 -18.889 -40.531  0.00  0.00    -0.031 C 
ATOM      6  C   UNL     1      45.633 -17.925 -40.642  0.00  0.00    -0.027 C 
ATOM      7  C   UNL     1      46.326 -16.438 -40.203  0.00  0.00    -0.031 C 
ATOM      8  C   UNL     1      47.227 -15.897 -41.347  0.00  0.00    -0.060 C 
ATOM      9  C   UNL     1      47.170 -16.504 -38.903  0.00  0.00    -0.060 C 
ATOM     10  C   UNL     1      45.228 -15.374 -39.946  0.00  0.00    -0.048 C 
ATOM     11  C   UNL     1      44.109 -15.581 -40.928  0.00  0.00    -0.052 C 
ATOM     12  C   UNL     1      43.721 -17.056 -40.920  0.00  0.00    -0.047 C 
ATOM     13  C   UNL     1      44.887 -18.153 -40.017  0.00  0.00    -0.022 C 
ATOM     14  C   UNL     1      44.141 -18.382 -39.391  0.00  0.00    -0.059 C 
BRANCH   3  15
ATOM     15  C   UNL     1      45.188 -21.336 -42.905  0.00  0.00    +0.066 C 
BRANCH  15  16
ATOM     16  O   UNL     1      46.065 -22.452 -42.952  0.00  0.00    -0.391 OA
ATOM     17  H   UNL     1      46.978 -22.142 -43.057  0.00  0.00    +0.000 HD
ENDBRANCH  15  16
ENDBRANCH   3  15
ENDBRANCH   1   2
BRANCH   1  18
ATOM     18  C   UNL     1      42.534 -21.416 -40.411  0.00  0.00    -0.049 C 
BRANCH  18  19
ATOM     19  C   UNL     1      41.555 -21.536 -39.226  0.00  0.00    -0.034 C 
ATOM     20  C   UNL     1      40.608 -22.730 -39.403  0.00  0.00    -0.062 C 
BRANCH  19  21
ATOM     21  C   UNL     1      40.781 -20.233 -38.973  0.00  0.00    +0.048 C 
BRANCH  21  22
ATOM     22  C   UNL     1      41.073 -19.641 -37.613  0.00  0.00    +0.307 C 
ATOM     23  O   UNL     1      40.637 -18.565 -37.226  0.00  0.00    -0.251 OA
BRANCH  22  24
ATOM     24  O   UNL     1      41.881 -20.463 -36.892  0.00  0.00    -0.463 OA
BRANCH  24  25
ATOM     25  C   UNL     1      42.118 -20.032 -35.542  0.00  0.00    +0.105 C 
BRANCH  25  26
ATOM     26  C   UNL     1      43.598 -20.291 -35.217  0.00  0.00    +0.033 C 
BRANCH  26  27
ATOM     27  N   UNL     1      44.608 -19.550 -35.995  0.00  0.00    -0.300 N 
ATOM     28  H   UNL     1      44.243 -19.582 -36.947  0.00  0.00    +0.000 HD
BRANCH  27  30
ATOM     29  C   UNL     1      45.228 -17.931 -34.177  0.00  0.00    -0.052 C 
ATOM     30  C   UNL     1      44.732 -18.135 -35.605  0.00  0.00    -0.004 C 
ENDBRANCH  27  30
BRANCH  27  31
ATOM     31  C   UNL     1      45.938 -20.184 -35.997  0.00  0.00    -0.004 C 
ATOM     32  C   UNL     1      46.515 -20.418 -37.390  0.00  0.00    -0.052 C 
ENDBRANCH  27  31
ENDBRANCH  26  27
ENDBRANCH  25  26
ENDBRANCH  24  25
ENDBRANCH  22  24
ENDBRANCH  21  22
ENDBRANCH  19  21
ENDBRANCH  18  19
ENDBRANCH   1  18
TORSDOF 13
ENDMDL
MODEL 13
REMARK VINA RESULT:    -5.653      2.784      5.054
REMARK INTER + INTRA:         -11.287
REMARK INTER:                  -9.617
REMARK INTRA:                  -1.670
REMARK UNBOUND:                -1.502
REMARK  Name = cpd297.pdb
REMARK  19 active torsions:
REMARK  status: ('A' for Active; 'I' for Inactive)
REMARK    1  A    between atoms: C_1  and  C_2
REMARK    2  A    between atoms: C_2  and  N_3
REMARK    3  A    between atoms: N_3  and  C_4
REMARK    4  A    between atoms: N_3  and  C_6
REMARK    5  A    between atoms: C_4  and  C_5
REMARK    6  A    between atoms: C_6  and  C_7
REMARK    7  A    between atoms: C_7  and  O_8
REMARK    8  A    between atoms: O_8  and  C_9
REMARK    9  A    between atoms: C_9  and  C_11
REMARK   10  A    between atoms: C_11  and  C_12
REMARK   11  A    between atoms: C_12  and  C_13
REMARK   12  A    between atoms: C_12  and  C_14
REMARK   13  A    between atoms: C_14  and  C_15
REMARK   14  A    between atoms: C_15  and  C_16
REMARK   15  A    between atoms: C_17  and  C_18
REMARK   16  A    between atoms: C_18  and  O_19
REMARK   17  A    between atoms: C_23  and  C_24
REMARK   18  A    between atoms: C_23  and  C_25
REMARK   19  A    between atoms: C_29  and  C_30
REMARK                            x       y       z     vdW  Elec       q    Type
REMARK                         _______ _______ _______ _____ _____    ______ ____
ROOT
ATOM      1  C   UNL     1      42.041 -20.498 -36.966  0.00  0.00    -0.046 C 
ENDROOT
BRANCH   1   2
ATOM      2  C   UNL     1      42.177 -19.902 -38.438  0.00  0.00    -0.012 C 
ATOM      3  C   UNL     1      40.961 -20.445 -39.196  0.00  0.00    -0.045 C 
ATOM      4  C   UNL     1      41.235 -21.370 -40.117  0.00  0.00    -0.082 C 
ATOM      5  C   UNL     1      42.676 -21.562 -40.416  0.00  0.00    -0.031 C 
ATOM      6  C   UNL     1      43.476 -20.171 -40.184  0.00  0.00    -0.027 C 
ATOM      7  C   UNL     1      44.704 -20.335 -41.344  0.00  0.00    -0.031 C 
ATOM      8  C   UNL     1      44.131 -20.141 -42.776  0.00  0.00    -0.060 C 
ATOM      9  C   UNL     1      45.434 -21.702 -41.290  0.00  0.00    -0.060 C 
ATOM     10  C   UNL     1      45.799 -19.257 -41.143  0.00  0.00    -0.048 C 
ATOM     11  C   UNL     1      45.148 -17.974 -40.711  0.00  0.00    -0.052 C 
ATOM     12  C   UNL     1      44.192 -18.277 -39.560  0.00  0.00    -0.047 C 
ATOM     13  C   UNL     1      43.877 -20.065 -39.273  0.00  0.00    -0.022 C 
ATOM     14  C   UNL     1      44.277 -19.960 -38.363  0.00  0.00    -0.059 C 
BRANCH   3  15
ATOM     15  C   UNL     1      39.593 -19.930 -38.835  0.00  0.00    +0.066 C 
BRANCH  15  16
ATOM     16  O   UNL     1      39.596 -18.518 -38.678  0.00  0.00    -0.391 OA
ATOM     17  H   UNL     1      38.758 -18.155 -39.005  0.00  0.00    +0.000 HD
ENDBRANCH  15  16
ENDBRANCH   3  15
ENDBRANCH   1   2
BRANCH   1  18
ATOM     18  C   UNL     1      41.754 -22.012 -36.969  0.00  0.00    -0.049 C 
BRANCH  18  19
ATOM     19  C   UNL     1      40.758 -22.496 -35.896  0.00  0.00    -0.034 C 
ATOM     20  C   UNL     1      39.476 -23.047 -36.533  0.00  0.00    -0.062 C 
BRANCH  19  21
ATOM     21  C   UNL     1      40.450 -21.411 -34.853  0.00  0.00    +0.048 C 
BRANCH  21  22
ATOM     22  C   UNL     1      40.930 -21.785 -33.469  0.00  0.00    +0.307 C 
ATOM     23  O   UNL     1      40.480 -22.716 -32.815  0.00  0.00    -0.251 OA
BRANCH  22  24
ATOM     24  O   UNL     1      41.919 -20.946 -33.059  0.00  0.00    -0.463 OA
BRANCH  24  25
ATOM     25  C   UNL     1      41.457 -19.697 -32.519  0.00  0.00    +0.105 C 
BRANCH  25  26
ATOM     26  C   UNL     1      42.216 -18.566 -33.229  0.00  0.00    +0.033 C 
BRANCH  26  27
ATOM     27  N   UNL     1      43.589 -18.276 -32.777  0.00  0.00    -0.300 N 
ATOM     28  H   UNL     1      43.669 -18.807 -31.909  0.00  0.00    +0.000 HD
BRANCH  27  30
ATOM     29  C   UNL     1      44.461 -18.257 -35.132  0.00  0.00    -0.052 C 
ATOM     30  C   UNL     1      44.630 -18.756 -33.701  0.00  0.00    -0.004 C 
ENDBRANCH  27  30
BRANCH  27  31
ATOM     31  C   UNL     1      43.822 -16.855 -32.461  0.00  0.00    -0.004 C 
ATOM     32  C   UNL     1      45.175 -16.574 -31.815  0.00  0.00    -0.052 C 
ENDBRANCH  27  31
ENDBRANCH  26  27
ENDBRANCH  25  26
ENDBRANCH  24  25
ENDBRANCH  22  24
ENDBRANCH  21  22
ENDBRANCH  19  21
ENDBRANCH  18  19
ENDBRANCH   1  18
TORSDOF 13
ENDMDL
MODEL 14
REMARK VINA RESULT:    -5.631      3.580      8.857
REMARK INTER + INTRA:         -11.248
REMARK INTER:                  -9.986
REMARK INTRA:                  -1.262
REMARK UNBOUND:                -1.502
REMARK  Name = cpd297.pdb
REMARK  19 active torsions:
REMARK  status: ('A' for Active; 'I' for Inactive)
REMARK    1  A    between atoms: C_1  and  C_2
REMARK    2  A    between atoms: C_2  and  N_3
REMARK    3  A    between atoms: N_3  and  C_4
REMARK    4  A    between atoms: N_3  and  C_6
REMARK    5  A    between atoms: C_4  and  C_5
REMARK    6  A    between atoms: C_6  and  C_7
REMARK    7  A    between atoms: C_7  and  O_8
REMARK    8  A    between atoms: O_8  and  C_9
REMARK    9  A    between atoms: C_9  and  C_11
REMARK   10  A    between atoms: C_11  and  C_12
REMARK   11  A    between atoms: C_12  and  C_13
REMARK   12  A    between atoms: C_12  and  C_14
REMARK   13  A    between atoms: C_14  and  C_15
REMARK   14  A    between atoms: C_15  and  C_16
REMARK   15  A    between atoms: C_17  and  C_18
REMARK   16  A    between atoms: C_18  and  O_19
REMARK   17  A    between atoms: C_23  and  C_24
REMARK   18  A    between atoms: C_23  and  C_25
REMARK   19  A    between atoms: C_29  and  C_30
REMARK                            x       y       z     vdW  Elec       q    Type
REMARK                         _______ _______ _______ _____ _____    ______ ____
ROOT
ATOM      1  C   UNL     1      44.585 -19.735 -34.804  0.00  0.00    -0.046 C 
ENDROOT
BRANCH   1   2
ATOM      2  C   UNL     1      43.027 -19.405 -34.847  0.00  0.00    -0.012 C 
ATOM      3  C   UNL     1      42.680 -18.959 -33.422  0.00  0.00    -0.045 C 
ATOM      4  C   UNL     1      41.939 -19.820 -32.724  0.00  0.00    -0.082 C 
ATOM      5  C   UNL     1      41.386 -20.958 -33.500  0.00  0.00    -0.031 C 
ATOM      6  C   UNL     1      41.140 -20.506 -35.038  0.00  0.00    -0.027 C 
ATOM      7  C   UNL     1      39.804 -21.478 -35.427  0.00  0.00    -0.031 C 
ATOM      8  C   UNL     1      38.522 -20.949 -34.727  0.00  0.00    -0.060 C 
ATOM      9  C   UNL     1      39.989 -22.971 -35.046  0.00  0.00    -0.060 C 
ATOM     10  C   UNL     1      39.532 -21.457 -36.953  0.00  0.00    -0.048 C 
ATOM     11  C   UNL     1      39.813 -20.078 -37.479  0.00  0.00    -0.052 C 
ATOM     12  C   UNL     1      41.179 -19.630 -36.967  0.00  0.00    -0.047 C 
ATOM     13  C   UNL     1      41.899 -20.702 -35.659  0.00  0.00    -0.022 C 
ATOM     14  C   UNL     1      42.659 -20.899 -36.279  0.00  0.00    -0.059 C 
BRANCH   3  15
ATOM     15  C   UNL     1      43.209 -17.639 -32.927  0.00  0.00    +0.066 C 
BRANCH  15  16
ATOM     16  O   UNL     1      44.248 -17.822 -31.975  0.00  0.00    -0.391 OA
ATOM     17  H   UNL     1      45.010 -17.275 -32.220  0.00  0.00    +0.000 HD
ENDBRANCH  15  16
ENDBRANCH   3  15
ENDBRANCH   1   2
BRANCH   1  18
ATOM     18  C   UNL     1      45.448 -18.565 -35.316  0.00  0.00    -0.049 C 
BRANCH  18  19
ATOM     19  C   UNL     1      46.816 -18.963 -35.905  0.00  0.00    -0.034 C 
ATOM     20  C   UNL     1      47.955 -18.664 -34.922  0.00  0.00    -0.062 C 
BRANCH  19  21
ATOM     21  C   UNL     1      47.071 -18.322 -37.278  0.00  0.00    +0.048 C 
BRANCH  21  22
ATOM     22  C   UNL     1      46.300 -19.003 -38.387  0.00  0.00    +0.307 C 
ATOM     23  O   UNL     1      45.582 -18.415 -39.184  0.00  0.00    -0.251 OA
BRANCH  22  24
ATOM     24  O   UNL     1      46.516 -20.345 -38.370  0.00  0.00    -0.463 OA
BRANCH  24  25
ATOM     25  C   UNL     1      47.202 -20.853 -39.527  0.00  0.00    +0.105 C 
BRANCH  25  26
ATOM     26  C   UNL     1      46.419 -22.072 -40.041  0.00  0.00    +0.033 C 
BRANCH  26  27
ATOM     27  N   UNL     1      45.806 -21.974 -41.379  0.00  0.00    -0.300 N 
ATOM     28  H   UNL     1      44.821 -22.169 -41.202  0.00  0.00    +0.000 HD
BRANCH  27  30
ATOM     29  C   UNL     1      44.770 -20.308 -42.948  0.00  0.00    -0.052 C 
ATOM     30  C   UNL     1      45.902 -20.631 -41.977  0.00  0.00    -0.004 C 
ENDBRANCH  27  30
BRANCH  27  31
ATOM     31  C   UNL     1      46.303 -22.980 -42.334  0.00  0.00    -0.004 C 
ATOM     32  C   UNL     1      47.809 -23.217 -42.263  0.00  0.00    -0.052 C 
ENDBRANCH  27  31
ENDBRANCH  26  27
ENDBRANCH  25  26
ENDBRANCH  24  25
ENDBRANCH  22  24
ENDBRANCH  21  22
ENDBRANCH  19  21
ENDBRANCH  18  19
ENDBRANCH   1  18
TORSDOF 13
ENDMDL
MODEL 15
REMARK VINA RESULT:    -5.572      3.162      9.106
REMARK INTER + INTRA:         -11.145
REMARK INTER:                  -9.526
REMARK INTRA:                  -1.620
REMARK UNBOUND:                -1.502
REMARK  Name = cpd297.pdb
REMARK  19 active torsions:
REMARK  status: ('A' for Active; 'I' for Inactive)
REMARK    1  A    between atoms: C_1  and  C_2
REMARK    2  A    between atoms: C_2  and  N_3
REMARK    3  A    between atoms: N_3  and  C_4
REMARK    4  A    between atoms: N_3  and  C_6
REMARK    5  A    between atoms: C_4  and  C_5
REMARK    6  A    between atoms: C_6  and  C_7
REMARK    7  A    between atoms: C_7  and  O_8
REMARK    8  A    between atoms: O_8  and  C_9
REMARK    9  A    between atoms: C_9  and  C_11
REMARK   10  A    between atoms: C_11  and  C_12
REMARK   11  A    between atoms: C_12  and  C_13
REMARK   12  A    between atoms: C_12  and  C_14
REMARK   13  A    between atoms: C_14  and  C_15
REMARK   14  A    between atoms: C_15  and  C_16
REMARK   15  A    between atoms: C_17  and  C_18
REMARK   16  A    between atoms: C_18  and  O_19
REMARK   17  A    between atoms: C_23  and  C_24
REMARK   18  A    between atoms: C_23  and  C_25
REMARK   19  A    between atoms: C_29  and  C_30
REMARK                            x       y       z     vdW  Elec       q    Type
REMARK                         _______ _______ _______ _____ _____    ______ ____
ROOT
ATOM      1  C   UNL     1      41.662 -20.764 -35.055  0.00  0.00    -0.046 C 
ENDROOT
BRANCH   1   2
ATOM      2  C   UNL     1      40.541 -20.521 -33.948  0.00  0.00    -0.012 C 
ATOM      3  C   UNL     1      40.158 -21.923 -33.461  0.00  0.00    -0.045 C 
ATOM      4  C   UNL     1      38.949 -22.342 -33.834  0.00  0.00    -0.082 C 
ATOM      5  C   UNL     1      38.086 -21.312 -34.464  0.00  0.00    -0.031 C 
ATOM      6  C   UNL     1      38.456 -19.847 -33.872  0.00  0.00    -0.027 C 
ATOM      7  C   UNL     1      36.938 -19.094 -33.969  0.00  0.00    -0.031 C 
ATOM      8  C   UNL     1      35.981 -19.650 -32.878  0.00  0.00    -0.060 C 
ATOM      9  C   UNL     1      36.250 -19.253 -35.351  0.00  0.00    -0.060 C 
ATOM     10  C   UNL     1      37.064 -17.568 -33.729  0.00  0.00    -0.048 C 
ATOM     11  C   UNL     1      38.114 -17.324 -32.682  0.00  0.00    -0.052 C 
ATOM     12  C   UNL     1      39.364 -18.118 -33.052  0.00  0.00    -0.047 C 
ATOM     13  C   UNL     1      39.127 -19.336 -34.409  0.00  0.00    -0.022 C 
ATOM     14  C   UNL     1      39.799 -18.825 -34.945  0.00  0.00    -0.059 C 
BRANCH   3  15
ATOM     15  C   UNL     1      41.157 -22.704 -32.648  0.00  0.00    +0.066 C 
BRANCH  15  16
ATOM     16  O   UNL     1      41.369 -23.999 -33.193  0.00  0.00    -0.391 OA
ATOM     17  H   UNL     1      41.523 -23.926 -34.148  0.00  0.00    +0.000 HD
ENDBRANCH  15  16
ENDBRANCH   3  15
ENDBRANCH   1   2
BRANCH   1  18
ATOM     18  C   UNL     1      41.214 -21.767 -36.135  0.00  0.00    -0.049 C 
BRANCH  18  19
ATOM     19  C   UNL     1      40.999 -21.170 -37.540  0.00  0.00    -0.034 C 
ATOM     20  C   UNL     1      39.508 -21.107 -37.898  0.00  0.00    -0.062 C 
BRANCH  19  21
ATOM     21  C   UNL     1      41.809 -21.907 -38.618  0.00  0.00    +0.048 C 
BRANCH  21  22
ATOM     22  C   UNL     1      42.531 -20.959 -39.550  0.00  0.00    +0.307 C 
ATOM     23  O   UNL     1      42.718 -19.774 -39.312  0.00  0.00    -0.251 OA
BRANCH  22  24
ATOM     24  O   UNL     1      42.934 -21.605 -40.676  0.00  0.00    -0.463 OA
BRANCH  24  25
ATOM     25  C   UNL     1      43.884 -20.878 -41.473  0.00  0.00    +0.105 C 
BRANCH  25  26
ATOM     26  C   UNL     1      45.073 -21.809 -41.756  0.00  0.00    +0.033 C 
BRANCH  26  27
ATOM     27  N   UNL     1      46.375 -21.453 -41.162  0.00  0.00    -0.300 N 
ATOM     28  H   UNL     1      46.885 -21.038 -41.942  0.00  0.00    +0.000 HD
BRANCH  27  30
ATOM     29  C   UNL     1      46.322 -21.031 -38.686  0.00  0.00    -0.052 C 
ATOM     30  C   UNL     1      46.282 -20.443 -40.094  0.00  0.00    -0.004 C 
ENDBRANCH  27  30
BRANCH  27  31
ATOM     31  C   UNL     1      47.147 -22.614 -40.684  0.00  0.00    -0.004 C 
ATOM     32  C   UNL     1      48.293 -23.023 -41.604  0.00  0.00    -0.052 C 
ENDBRANCH  27  31
ENDBRANCH  26  27
ENDBRANCH  25  26
ENDBRANCH  24  25
ENDBRANCH  22  24
ENDBRANCH  21  22
ENDBRANCH  19  21
ENDBRANCH  18  19
ENDBRANCH   1  18
TORSDOF 13
ENDMDL
MODEL 16
REMARK VINA RESULT:    -5.566      3.297      8.774
REMARK INTER + INTRA:         -11.136
REMARK INTER:                  -9.490
REMARK INTRA:                  -1.646
REMARK UNBOUND:                -1.502
REMARK  Name = cpd297.pdb
REMARK  19 active torsions:
REMARK  status: ('A' for Active; 'I' for Inactive)
REMARK    1  A    between atoms: C_1  and  C_2
REMARK    2  A    between atoms: C_2  and  N_3
REMARK    3  A    between atoms: N_3  and  C_4
REMARK    4  A    between atoms: N_3  and  C_6
REMARK    5  A    between atoms: C_4  and  C_5
REMARK    6  A    between atoms: C_6  and  C_7
REMARK    7  A    between atoms: C_7  and  O_8
REMARK    8  A    between atoms: O_8  and  C_9
REMARK    9  A    between atoms: C_9  and  C_11
REMARK   10  A    between atoms: C_11  and  C_12
REMARK   11  A    between atoms: C_12  and  C_13
REMARK   12  A    between atoms: C_12  and  C_14
REMARK   13  A    between atoms: C_14  and  C_15
REMARK   14  A    between atoms: C_15  and  C_16
REMARK   15  A    between atoms: C_17  and  C_18
REMARK   16  A    between atoms: C_18  and  O_19
REMARK   17  A    between atoms: C_23  and  C_24
REMARK   18  A    between atoms: C_23  and  C_25
REMARK   19  A    between atoms: C_29  and  C_30
REMARK                            x       y       z     vdW  Elec       q    Type
REMARK                         _______ _______ _______ _____ _____    ______ ____
ROOT
ATOM      1  C   UNL     1      42.169 -20.664 -37.454  0.00  0.00    -0.046 C 
ENDROOT
BRANCH   1   2
ATOM      2  C   UNL     1      40.641 -20.886 -37.060  0.00  0.00    -0.012 C 
ATOM      3  C   UNL     1      39.997 -19.501 -37.184  0.00  0.00    -0.045 C 
ATOM      4  C   UNL     1      39.662 -18.927 -36.028  0.00  0.00    -0.082 C 
ATOM      5  C   UNL     1      39.757 -19.802 -34.833  0.00  0.00    -0.031 C 
ATOM      6  C   UNL     1      39.481 -21.343 -35.257  0.00  0.00    -0.027 C 
ATOM      7  C   UNL     1      38.771 -21.924 -33.828  0.00  0.00    -0.031 C 
ATOM      8  C   UNL     1      37.327 -21.370 -33.673  0.00  0.00    -0.060 C 
ATOM      9  C   UNL     1      39.571 -21.572 -32.547  0.00  0.00    -0.060 C 
ATOM     10  C   UNL     1      38.665 -23.470 -33.855  0.00  0.00    -0.048 C 
ATOM     11  C   UNL     1      38.342 -23.913 -35.254  0.00  0.00    -0.052 C 
ATOM     12  C   UNL     1      39.304 -23.223 -36.217  0.00  0.00    -0.047 C 
ATOM     13  C   UNL     1      40.302 -21.872 -35.471  0.00  0.00    -0.022 C 
ATOM     14  C   UNL     1      41.124 -22.401 -35.684  0.00  0.00    -0.059 C 
BRANCH   3  15
ATOM     15  C   UNL     1      39.825 -18.902 -38.555  0.00  0.00    +0.066 C 
BRANCH  15  16
ATOM     16  O   UNL     1      39.141 -17.658 -38.495  0.00  0.00    -0.391 OA
ATOM     17  H   UNL     1      39.633 -16.994 -39.003  0.00  0.00    +0.000 HD
ENDBRANCH  15  16
ENDBRANCH   3  15
ENDBRANCH   1   2
BRANCH   1  18
ATOM     18  C   UNL     1      42.802 -19.472 -36.709  0.00  0.00    -0.049 C 
BRANCH  18  19
ATOM     19  C   UNL     1      43.891 -19.840 -35.682  0.00  0.00    -0.034 C 
ATOM     20  C   UNL     1      43.424 -19.556 -34.248  0.00  0.00    -0.062 C 
BRANCH  19  21
ATOM     21  C   UNL     1      45.234 -19.159 -35.985  0.00  0.00    +0.048 C 
BRANCH  21  22
ATOM     22  C   UNL     1      46.382 -20.142 -36.044  0.00  0.00    +0.307 C 
ATOM     23  O   UNL     1      47.259 -20.223 -35.196  0.00  0.00    -0.251 OA
BRANCH  22  24
ATOM     24  O   UNL     1      46.301 -20.911 -37.163  0.00  0.00    -0.463 OA
BRANCH  24  25
ATOM     25  C   UNL     1      46.273 -20.171 -38.394  0.00  0.00    +0.105 C 
BRANCH  25  26
ATOM     26  C   UNL     1      45.605 -21.053 -39.460  0.00  0.00    +0.033 C 
BRANCH  26  27
ATOM     27  N   UNL     1      45.738 -20.641 -40.869  0.00  0.00    -0.300 N 
ATOM     28  H   UNL     1      46.591 -20.081 -40.872  0.00  0.00    +0.000 HD
BRANCH  27  30
ATOM     29  C   UNL     1      46.746 -22.916 -41.213  0.00  0.00    -0.052 C 
ATOM     30  C   UNL     1      45.932 -21.767 -41.799  0.00  0.00    -0.004 C 
ENDBRANCH  27  30
BRANCH  27  31
ATOM     31  C   UNL     1      44.635 -19.788 -41.345  0.00  0.00    -0.004 C 
ATOM     32  C   UNL     1      44.327 -19.937 -42.832  0.00  0.00    -0.052 C 
ENDBRANCH  27  31
ENDBRANCH  26  27
ENDBRANCH  25  26
ENDBRANCH  24  25
ENDBRANCH  22  24
ENDBRANCH  21  22
ENDBRANCH  19  21
ENDBRANCH  18  19
ENDBRANCH   1  18
TORSDOF 13
ENDMDL
MODEL 17
REMARK VINA RESULT:    -5.408      2.182      4.073
REMARK INTER + INTRA:         -10.862
REMARK INTER:                  -8.347
REMARK INTRA:                  -2.516
REMARK UNBOUND:                -1.502
REMARK  Name = cpd297.pdb
REMARK  19 active torsions:
REMARK  status: ('A' for Active; 'I' for Inactive)
REMARK    1  A    between atoms: C_1  and  C_2
REMARK    2  A    between atoms: C_2  and  N_3
REMARK    3  A    between atoms: N_3  and  C_4
REMARK    4  A    between atoms: N_3  and  C_6
REMARK    5  A    between atoms: C_4  and  C_5
REMARK    6  A    between atoms: C_6  and  C_7
REMARK    7  A    between atoms: C_7  and  O_8
REMARK    8  A    between atoms: O_8  and  C_9
REMARK    9  A    between atoms: C_9  and  C_11
REMARK   10  A    between atoms: C_11  and  C_12
REMARK   11  A    between atoms: C_12  and  C_13
REMARK   12  A    between atoms: C_12  and  C_14
REMARK   13  A    between atoms: C_14  and  C_15
REMARK   14  A    between atoms: C_15  and  C_16
REMARK   15  A    between atoms: C_17  and  C_18
REMARK   16  A    between atoms: C_18  and  O_19
REMARK   17  A    between atoms: C_23  and  C_24
REMARK   18  A    between atoms: C_23  and  C_25
REMARK   19  A    between atoms: C_29  and  C_30
REMARK                            x       y       z     vdW  Elec       q    Type
REMARK                         _______ _______ _______ _____ _____    ______ ____
ROOT
ATOM      1  C   UNL     1      42.485 -21.085 -37.162  0.00  0.00    -0.046 C 
ENDROOT
BRANCH   1   2
ATOM      2  C   UNL     1      42.378 -20.356 -38.575  0.00  0.00    -0.012 C 
ATOM      3  C   UNL     1      41.297 -21.132 -39.337  0.00  0.00    -0.045 C 
ATOM      4  C   UNL     1      41.742 -21.876 -40.349  0.00  0.00    -0.082 C 
ATOM      5  C   UNL     1      43.165 -21.665 -40.716  0.00  0.00    -0.031 C 
ATOM      6  C   UNL     1      43.597 -20.137 -40.384  0.00  0.00    -0.027 C 
ATOM      7  C   UNL     1      44.755 -19.883 -41.598  0.00  0.00    -0.031 C 
ATOM      8  C   UNL     1      44.068 -19.728 -42.984  0.00  0.00    -0.060 C 
ATOM      9  C   UNL     1      45.812 -21.014 -41.698  0.00  0.00    -0.060 C 
ATOM     10  C   UNL     1      45.550 -18.578 -41.337  0.00  0.00    -0.048 C 
ATOM     11  C   UNL     1      44.620 -17.547 -40.763  0.00  0.00    -0.052 C 
ATOM     12  C   UNL     1      43.843 -18.179 -39.612  0.00  0.00    -0.047 C 
ATOM     13  C   UNL     1      44.010 -20.005 -39.483  0.00  0.00    -0.022 C 
ATOM     14  C   UNL     1      44.424 -19.874 -38.582  0.00  0.00    -0.059 C 
BRANCH   3  15
ATOM     15  C   UNL     1      39.867 -21.019 -38.880  0.00  0.00    +0.066 C 
BRANCH  15  16
ATOM     16  O   UNL     1      39.363 -22.273 -38.439  0.00  0.00    -0.391 OA
ATOM     17  H   UNL     1      38.579 -22.130 -37.887  0.00  0.00    +0.000 HD
ENDBRANCH  15  16
ENDBRANCH   3  15
ENDBRANCH   1   2
BRANCH   1  18
ATOM     18  C   UNL     1      41.888 -20.241 -36.018  0.00  0.00    -0.049 C 
BRANCH  18  19
ATOM     19  C   UNL     1      42.156 -18.725 -36.108  0.00  0.00    -0.034 C 
ATOM     20  C   UNL     1      43.467 -18.348 -35.407  0.00  0.00    -0.062 C 
BRANCH  19  21
ATOM     21  C   UNL     1      40.975 -17.892 -35.587  0.00  0.00    +0.048 C 
BRANCH  21  22
ATOM     22  C   UNL     1      39.778 -17.943 -36.509  0.00  0.00    +0.307 C 
ATOM     23  O   UNL     1      39.837 -17.782 -37.721  0.00  0.00    -0.251 OA
BRANCH  22  24
ATOM     24  O   UNL     1      38.639 -18.188 -35.808  0.00  0.00    -0.463 OA
BRANCH  24  25
ATOM     25  C   UNL     1      38.319 -19.581 -35.659  0.00  0.00    +0.105 C 
BRANCH  25  26
ATOM     26  C   UNL     1      38.214 -19.885 -34.157  0.00  0.00    +0.033 C 
BRANCH  26  27
ATOM     27  N   UNL     1      38.553 -21.248 -33.710  0.00  0.00    -0.300 N 
ATOM     28  H   UNL     1      37.752 -21.515 -33.137  0.00  0.00    +0.000 HD
BRANCH  27  30
ATOM     29  C   UNL     1      39.941 -23.061 -34.758  0.00  0.00    -0.052 C 
ATOM     30  C   UNL     1      38.669 -22.220 -34.810  0.00  0.00    -0.004 C 
ENDBRANCH  27  30
BRANCH  27  31
ATOM     31  C   UNL     1      39.757 -21.312 -32.862  0.00  0.00    -0.004 C 
ATOM     32  C   UNL     1      40.364 -19.950 -32.538  0.00  0.00    -0.052 C 
ENDBRANCH  27  31
ENDBRANCH  26  27
ENDBRANCH  25  26
ENDBRANCH  24  25
ENDBRANCH  22  24
ENDBRANCH  21  22
ENDBRANCH  19  21
ENDBRANCH  18  19
ENDBRANCH   1  18
TORSDOF 13
ENDMDL
MODEL 18
REMARK VINA RESULT:    -5.386      2.200      4.219
REMARK INTER + INTRA:         -10.824
REMARK INTER:                  -8.841
REMARK INTRA:                  -1.983
REMARK UNBOUND:                -1.502
REMARK  Name = cpd297.pdb
REMARK  19 active torsions:
REMARK  status: ('A' for Active; 'I' for Inactive)
REMARK    1  A    between atoms: C_1  and  C_2
REMARK    2  A    between atoms: C_2  and  N_3
REMARK    3  A    between atoms: N_3  and  C_4
REMARK    4  A    between atoms: N_3  and  C_6
REMARK    5  A    between atoms: C_4  and  C_5
REMARK    6  A    between atoms: C_6  and  C_7
REMARK    7  A    between atoms: C_7  and  O_8
REMARK    8  A    between atoms: O_8  and  C_9
REMARK    9  A    between atoms: C_9  and  C_11
REMARK   10  A    between atoms: C_11  and  C_12
REMARK   11  A    between atoms: C_12  and  C_13
REMARK   12  A    between atoms: C_12  and  C_14
REMARK   13  A    between atoms: C_14  and  C_15
REMARK   14  A    between atoms: C_15  and  C_16
REMARK   15  A    between atoms: C_17  and  C_18
REMARK   16  A    between atoms: C_18  and  O_19
REMARK   17  A    between atoms: C_23  and  C_24
REMARK   18  A    between atoms: C_23  and  C_25
REMARK   19  A    between atoms: C_29  and  C_30
REMARK                            x       y       z     vdW  Elec       q    Type
REMARK                         _______ _______ _______ _____ _____    ______ ____
ROOT
ATOM      1  C   UNL     1      42.349 -20.964 -36.922  0.00  0.00    -0.046 C 
ENDROOT
BRANCH   1   2
ATOM      2  C   UNL     1      42.329 -20.338 -38.388  0.00  0.00    -0.012 C 
ATOM      3  C   UNL     1      41.234 -21.111 -39.131  0.00  0.00    -0.045 C 
ATOM      4  C   UNL     1      41.672 -21.951 -40.070  0.00  0.00    -0.082 C 
ATOM      5  C   UNL     1      43.115 -21.842 -40.398  0.00  0.00    -0.031 C 
ATOM      6  C   UNL     1      43.619 -20.318 -40.161  0.00  0.00    -0.027 C 
ATOM      7  C   UNL     1      44.830 -20.215 -41.346  0.00  0.00    -0.031 C 
ATOM      8  C   UNL     1      44.199 -20.129 -42.764  0.00  0.00    -0.060 C 
ATOM      9  C   UNL     1      45.825 -21.405 -41.324  0.00  0.00    -0.060 C 
ATOM     10  C   UNL     1      45.685 -18.938 -41.150  0.00  0.00    -0.048 C 
ATOM     11  C   UNL     1      44.794 -17.820 -40.688  0.00  0.00    -0.052 C 
ATOM     12  C   UNL     1      43.945 -18.324 -39.525  0.00  0.00    -0.047 C 
ATOM     13  C   UNL     1      44.008 -20.142 -39.257  0.00  0.00    -0.022 C 
ATOM     14  C   UNL     1      44.398 -19.965 -38.353  0.00  0.00    -0.059 C 
BRANCH   3  15
ATOM     15  C   UNL     1      39.798 -20.891 -38.738  0.00  0.00    +0.066 C 
BRANCH  15  16
ATOM     16  O   UNL     1      39.205 -22.087 -38.251  0.00  0.00    -0.391 OA
ATOM     17  H   UNL     1      39.901 -22.703 -37.975  0.00  0.00    +0.000 HD
ENDBRANCH  15  16
ENDBRANCH   3  15
ENDBRANCH   1   2
BRANCH   1  18
ATOM     18  C   UNL     1      41.805 -19.990 -35.859  0.00  0.00    -0.049 C 
BRANCH  18  19
ATOM     19  C   UNL     1      41.134 -20.652 -34.640  0.00  0.00    -0.034 C 
ATOM     20  C   UNL     1      41.808 -20.223 -33.330  0.00  0.00    -0.062 C 
BRANCH  19  21
ATOM     21  C   UNL     1      41.070 -22.182 -34.768  0.00  0.00    +0.048 C 
BRANCH  21  22
ATOM     22  C   UNL     1      39.653 -22.709 -34.715  0.00  0.00    +0.307 C 
ATOM     23  O   UNL     1      39.161 -23.438 -35.566  0.00  0.00    -0.251 OA
BRANCH  22  24
ATOM     24  O   UNL     1      39.013 -22.261 -33.603  0.00  0.00    -0.463 OA
BRANCH  24  25
ATOM     25  C   UNL     1      37.647 -21.870 -33.818  0.00  0.00    +0.105 C 
BRANCH  25  26
ATOM     26  C   UNL     1      37.463 -20.459 -33.237  0.00  0.00    +0.033 C 
BRANCH  26  27
ATOM     27  N   UNL     1      37.212 -19.358 -34.186  0.00  0.00    -0.300 N 
ATOM     28  H   UNL     1      37.873 -18.638 -33.893  0.00  0.00    +0.000 HD
BRANCH  27  30
ATOM     29  C   UNL     1      38.424 -18.703 -36.286  0.00  0.00    -0.052 C 
ATOM     30  C   UNL     1      37.510 -19.704 -35.586  0.00  0.00    -0.004 C 
ENDBRANCH  27  30
BRANCH  27  31
ATOM     31  C   UNL     1      35.855 -18.792 -34.091  0.00  0.00    -0.004 C 
ATOM     32  C   UNL     1      35.166 -19.041 -32.753  0.00  0.00    -0.052 C 
ENDBRANCH  27  31
ENDBRANCH  26  27
ENDBRANCH  25  26
ENDBRANCH  24  25
ENDBRANCH  22  24
ENDBRANCH  21  22
ENDBRANCH  19  21
ENDBRANCH  18  19
ENDBRANCH   1  18
TORSDOF 13
ENDMDL
MODEL 19
REMARK VINA RESULT:    -5.376      2.664      4.649
REMARK INTER + INTRA:         -10.808
REMARK INTER:                  -8.804
REMARK INTRA:                  -2.004
REMARK UNBOUND:                -1.502
REMARK  Name = cpd297.pdb
REMARK  19 active torsions:
REMARK  status: ('A' for Active; 'I' for Inactive)
REMARK    1  A    between atoms: C_1  and  C_2
REMARK    2  A    between atoms: C_2  and  N_3
REMARK    3  A    between atoms: N_3  and  C_4
REMARK    4  A    between atoms: N_3  and  C_6
REMARK    5  A    between atoms: C_4  and  C_5
REMARK    6  A    between atoms: C_6  and  C_7
REMARK    7  A    between atoms: C_7  and  O_8
REMARK    8  A    between atoms: O_8  and  C_9
REMARK    9  A    between atoms: C_9  and  C_11
REMARK   10  A    between atoms: C_11  and  C_12
REMARK   11  A    between atoms: C_12  and  C_13
REMARK   12  A    between atoms: C_12  and  C_14
REMARK   13  A    between atoms: C_14  and  C_15
REMARK   14  A    between atoms: C_15  and  C_16
REMARK   15  A    between atoms: C_17  and  C_18
REMARK   16  A    between atoms: C_18  and  O_19
REMARK   17  A    between atoms: C_23  and  C_24
REMARK   18  A    between atoms: C_23  and  C_25
REMARK   19  A    between atoms: C_29  and  C_30
REMARK                            x       y       z     vdW  Elec       q    Type
REMARK                         _______ _______ _______ _____ _____    ______ ____
ROOT
ATOM      1  C   UNL     1      43.757 -19.196 -35.692  0.00  0.00    -0.046 C 
ENDROOT
BRANCH   1   2
ATOM      2  C   UNL     1      44.711 -19.814 -36.810  0.00  0.00    -0.012 C 
ATOM      3  C   UNL     1      46.132 -19.491 -36.335  0.00  0.00    -0.045 C 
ATOM      4  C   UNL     1      46.772 -18.567 -37.052  0.00  0.00    -0.082 C 
ATOM      5  C   UNL     1      46.102 -18.165 -38.314  0.00  0.00    -0.031 C 
ATOM      6  C   UNL     1      45.239 -19.407 -38.898  0.00  0.00    -0.027 C 
ATOM      7  C   UNL     1      45.355 -19.095 -40.563  0.00  0.00    -0.031 C 
ATOM      8  C   UNL     1      46.783 -19.423 -41.081  0.00  0.00    -0.060 C 
ATOM      9  C   UNL     1      45.019 -17.630 -40.947  0.00  0.00    -0.060 C 
ATOM     10  C   UNL     1      44.366 -19.984 -41.360  0.00  0.00    -0.048 C 
ATOM     11  C   UNL     1      44.293 -21.337 -40.710  0.00  0.00    -0.052 C 
ATOM     12  C   UNL     1      44.069 -21.146 -39.213  0.00  0.00    -0.047 C 
ATOM     13  C   UNL     1      44.279 -19.419 -38.618  0.00  0.00    -0.022 C 
ATOM     14  C   UNL     1      43.319 -19.430 -38.338  0.00  0.00    -0.059 C 
BRANCH   3  15
ATOM     15  C   UNL     1      46.668 -20.199 -35.119  0.00  0.00    +0.066 C 
BRANCH  15  16
ATOM     16  O   UNL     1      48.077 -20.051 -35.012  0.00  0.00    -0.391 OA
ATOM     17  H   UNL     1      48.382 -19.388 -35.652  0.00  0.00    +0.000 HD
ENDBRANCH  15  16
ENDBRANCH   3  15
ENDBRANCH   1   2
BRANCH   1  18
ATOM     18  C   UNL     1      43.099 -20.280 -34.816  0.00  0.00    -0.049 C 
BRANCH  18  19
ATOM     19  C   UNL     1      42.137 -19.756 -33.731  0.00  0.00    -0.034 C 
ATOM     20  C   UNL     1      42.806 -18.684 -32.861  0.00  0.00    -0.062 C 
BRANCH  19  21
ATOM     21  C   UNL     1      41.546 -20.889 -32.878  0.00  0.00    +0.048 C 
BRANCH  21  22
ATOM     22  C   UNL     1      40.037 -20.941 -32.949  0.00  0.00    +0.307 C 
ATOM     23  O   UNL     1      39.310 -19.964 -32.828  0.00  0.00    -0.251 OA
BRANCH  22  24
ATOM     24  O   UNL     1      39.608 -22.214 -33.160  0.00  0.00    -0.463 OA
BRANCH  24  25
ATOM     25  C   UNL     1      40.230 -22.875 -34.275  0.00  0.00    +0.105 C 
BRANCH  25  26
ATOM     26  C   UNL     1      39.538 -22.388 -35.558  0.00  0.00    +0.033 C 
BRANCH  26  27
ATOM     27  N   UNL     1      40.320 -21.539 -36.475  0.00  0.00    -0.300 N 
ATOM     28  H   UNL     1      41.083 -21.199 -35.890  0.00  0.00    +0.000 HD
BRANCH  27  30
ATOM     29  C   UNL     1      40.385 -21.837 -38.969  0.00  0.00    -0.052 C 
ATOM     30  C   UNL     1      40.910 -22.276 -37.606  0.00  0.00    -0.004 C 
ENDBRANCH  27  30
BRANCH  27  31
ATOM     31  C   UNL     1      39.578 -20.369 -36.978  0.00  0.00    -0.004 C 
ATOM     32  C   UNL     1      38.336 -20.021 -36.163  0.00  0.00    -0.052 C 
ENDBRANCH  27  31
ENDBRANCH  26  27
ENDBRANCH  25  26
ENDBRANCH  24  25
ENDBRANCH  22  24
ENDBRANCH  21  22
ENDBRANCH  19  21
ENDBRANCH  18  19
ENDBRANCH   1  18
TORSDOF 13
ENDMDL
MODEL 20
REMARK VINA RESULT:    -5.311      3.020      7.994
REMARK INTER + INTRA:         -10.694
REMARK INTER:                  -8.333
REMARK INTRA:                  -2.362
REMARK UNBOUND:                -1.502
REMARK  Name = cpd297.pdb
REMARK  19 active torsions:
REMARK  status: ('A' for Active; 'I' for Inactive)
REMARK    1  A    between atoms: C_1  and  C_2
REMARK    2  A    between atoms: C_2  and  N_3
REMARK    3  A    between atoms: N_3  and  C_4
REMARK    4  A    between atoms: N_3  and  C_6
REMARK    5  A    between atoms: C_4  and  C_5
REMARK    6  A    between atoms: C_6  and  C_7
REMARK    7  A    between atoms: C_7  and  O_8
REMARK    8  A    between atoms: O_8  and  C_9
REMARK    9  A    between atoms: C_9  and  C_11
REMARK   10  A    between atoms: C_11  and  C_12
REMARK   11  A    between atoms: C_12  and  C_13
REMARK   12  A    between atoms: C_12  and  C_14
REMARK   13  A    between atoms: C_14  and  C_15
REMARK   14  A    between atoms: C_15  and  C_16
REMARK   15  A    between atoms: C_17  and  C_18
REMARK   16  A    between atoms: C_18  and  O_19
REMARK   17  A    between atoms: C_23  and  C_24
REMARK   18  A    between atoms: C_23  and  C_25
REMARK   19  A    between atoms: C_29  and  C_30
REMARK                            x       y       z     vdW  Elec       q    Type
REMARK                         _______ _______ _______ _____ _____    ______ ____
ROOT
ATOM      1  C   UNL     1      42.065 -19.353 -37.784  0.00  0.00    -0.046 C 
ENDROOT
BRANCH   1   2
ATOM      2  C   UNL     1      40.744 -19.702 -36.963  0.00  0.00    -0.012 C 
ATOM      3  C   UNL     1      40.139 -18.343 -36.596  0.00  0.00    -0.045 C 
ATOM      4  C   UNL     1      40.218 -18.018 -35.305  0.00  0.00    -0.082 C 
ATOM      5  C   UNL     1      40.671 -19.106 -34.403  0.00  0.00    -0.031 C 
ATOM      6  C   UNL     1      40.225 -20.544 -35.007  0.00  0.00    -0.027 C 
ATOM      7  C   UNL     1      40.003 -21.416 -33.568  0.00  0.00    -0.031 C 
ATOM      8  C   UNL     1      38.708 -20.955 -32.843  0.00  0.00    -0.060 C 
ATOM      9  C   UNL     1      41.190 -21.294 -32.576  0.00  0.00    -0.060 C 
ATOM     10  C   UNL     1      39.846 -22.930 -33.861  0.00  0.00    -0.048 C 
ATOM     11  C   UNL     1      39.070 -23.103 -35.136  0.00  0.00    -0.052 C 
ATOM     12  C   UNL     1      39.685 -22.205 -36.205  0.00  0.00    -0.047 C 
ATOM     13  C   UNL     1      40.914 -20.991 -35.576  0.00  0.00    -0.022 C 
ATOM     14  C   UNL     1      41.604 -21.438 -36.146  0.00  0.00    -0.059 C 
BRANCH   3  15
ATOM     15  C   UNL     1      39.546 -17.495 -37.690  0.00  0.00    +0.066 C 
BRANCH  15  16
ATOM     16  O   UNL     1      38.626 -18.236 -38.479  0.00  0.00    -0.391 OA
ATOM     17  H   UNL     1      37.746 -17.833 -38.413  0.00  0.00    +0.000 HD
ENDBRANCH  15  16
ENDBRANCH   3  15
ENDBRANCH   1   2
BRANCH   1  18
ATOM     18  C   UNL     1      41.917 -19.645 -39.290  0.00  0.00    -0.049 C 
BRANCH  18  19
ATOM     19  C   UNL     1      42.632 -20.917 -39.788  0.00  0.00    -0.034 C 
ATOM     20  C   UNL     1      41.659 -22.099 -39.895  0.00  0.00    -0.062 C 
BRANCH  19  21
ATOM     21  C   UNL     1      43.859 -21.271 -38.933  0.00  0.00    +0.048 C 
BRANCH  21  22
ATOM     22  C   UNL     1      45.160 -21.072 -39.678  0.00  0.00    +0.307 C 
ATOM     23  O   UNL     1      45.875 -21.987 -40.064  0.00  0.00    -0.251 OA
BRANCH  22  24
ATOM     24  O   UNL     1      45.419 -19.749 -39.851  0.00  0.00    -0.463 OA
BRANCH  24  25
ATOM     25  C   UNL     1      46.612 -19.284 -39.199  0.00  0.00    +0.105 C 
BRANCH  25  26
ATOM     26  C   UNL     1      46.199 -18.618 -37.877  0.00  0.00    +0.033 C 
BRANCH  26  27
ATOM     27  N   UNL     1      46.712 -19.207 -36.627  0.00  0.00    -0.300 N 
ATOM     28  H   UNL     1      47.430 -19.856 -36.948  0.00  0.00    +0.000 HD
BRANCH  27  30
ATOM     29  C   UNL     1      48.554 -18.785 -34.971  0.00  0.00    -0.052 C 
ATOM     30  C   UNL     1      47.354 -18.228 -35.732  0.00  0.00    -0.004 C 
ENDBRANCH  27  30
BRANCH  27  31
ATOM     31  C   UNL     1      45.705 -19.979 -35.878  0.00  0.00    -0.004 C 
ATOM     32  C   UNL     1      44.620 -19.124 -35.228  0.00  0.00    -0.052 C 
ENDBRANCH  27  31
ENDBRANCH  26  27
ENDBRANCH  25  26
ENDBRANCH  24  25
ENDBRANCH  22  24
ENDBRANCH  21  22
ENDBRANCH  19  21
ENDBRANCH  18  19
ENDBRANCH   1  18
TORSDOF 13
ENDMDL
