@<TRIPOS>MOLECULE
*****
 30 31 0 0 0
SMALL
GASTEIGER

@<TRIPOS>ATOM
      1 C          -6.0622   -7.5000    0.0000 C.3     1  UNL1        0.0188
      2 C          -5.1962   -8.0000    0.0000 C.3     1  UNL1        0.0722
      3 N          -4.3301   -7.5000    0.0000 N.3     1  UNL1       -0.2696
      4 C          -3.4641   -8.0000    0.0000 C.3     1  UNL1        0.0722
      5 C          -2.5981   -7.5000    0.0000 C.3     1  UNL1        0.0188
      6 C          -4.3301   -6.5000    0.0000 C.3     1  UNL1        0.1201
      7 C          -3.4641   -6.0000    0.0000 C.3     1  UNL1        0.2257
      8 O          -3.4641   -5.0000    0.0000 O.3     1  UNL1       -0.4470
      9 C          -2.5981   -4.5000    0.0000 C.2     1  UNL1        0.3170
     10 O          -1.7321   -5.0000    0.0000 O.2     1  UNL1       -0.2501
     11 C          -2.5981   -3.5000    0.0000 C.3     1  UNL1        0.1096
     12 C          -1.7321   -3.0000    0.0000 C.3     1  UNL1        0.0111
     13 C          -0.8660   -3.5000    0.0000 C.3     1  UNL1        0.0006
     14 C          -1.7321   -2.0000    0.0000 C.3     1  UNL1        0.0009
     15 C          -0.8660   -1.5000    0.0000 C.3     1  UNL1        0.0041
     16 C          -0.8660   -0.5000    0.0000 C.3     1  UNL1        0.0205
     17 C          -1.7321    0.0000    0.0000 C.2     1  UNL1       -0.0162
     18 C          -2.5981   -0.5000    0.0000 C.3     1  UNL1        0.2041
     19 O          -3.4641   -0.0000    0.0000 O.3     1  UNL1       -0.2155
     20 C          -1.7321    1.0000    0.0000 C.2     1  UNL1       -0.0321
     21 C          -0.8660    1.5000    0.0000 C.3     1  UNL1        0.0255
     22 C           0.0000    1.0000    0.0000 C.3     1  UNL1        0.0046
     23 C           0.8660    1.5000    0.0000 C.3     1  UNL1        0.0003
     24 C           1.3660    2.3660    0.0000 C.3     1  UNL1        0.0000
     25 C           0.3660    2.3660    0.0000 C.3     1  UNL1        0.0000
     26 C           1.7321    1.0000    0.0000 C.3     1  UNL1        0.0000
     27 C           1.7321   -0.0000    0.0000 C.3     1  UNL1        0.0000
     28 C           0.8660   -0.5000    0.0000 C.3     1  UNL1        0.0003
     29 C           0.0000   -0.0000    0.0000 C.3     1  UNL1        0.0038
     30 C          -0.0000   -1.0000    0.0000 C.3     1  UNL1        0.0003
@<TRIPOS>BOND
     1     1     2    1
     2     2     3    1
     3     3     4    1
     4     4     5    1
     5     3     6    1
     6     6     7    1
     7     7     8    1
     8     8     9    1
     9     9    10    2
    10     9    11    1
    11    11    12    1
    12    12    13    1
    13    12    14    1
    14    14    15    1
    15    15    16    1
    16    16    17    1
    17    17    18    1
    18    18    19    1
    19    17    20    2
    20    20    21    1
    21    21    22    1
    22    22    23    1
    23    23    24    1
    24    23    25    1
    25    23    26    1
    26    26    27    1
    27    27    28    1
    28    28    29    1
    29    16    29    1
    30    22    29    1
    31    29    30    1
