REMARK  Name = cpd297.pdb
REMARK  19 active torsions:
REMARK  status: ('A' for Active; 'I' for Inactive)
REMARK    1  A    between atoms: C_1  and  C_2
REMARK    2  A    between atoms: C_2  and  N_3
REMARK    3  A    between atoms: N_3  and  C_4
REMARK    4  A    between atoms: N_3  and  C_6
REMARK    5  A    between atoms: C_4  and  C_5
REMARK    6  A    between atoms: C_6  and  C_7
REMARK    7  A    between atoms: C_7  and  O_8
REMARK    8  A    between atoms: O_8  and  C_9
REMARK    9  A    between atoms: C_9  and  C_11
REMARK   10  A    between atoms: C_11  and  C_12
REMARK   11  A    between atoms: C_12  and  C_13
REMARK   12  A    between atoms: C_12  and  C_14
REMARK   13  A    between atoms: C_14  and  C_15
REMARK   14  A    between atoms: C_15  and  C_16
REMARK   15  A    between atoms: C_17  and  C_18
REMARK   16  A    between atoms: C_18  and  O_19
REMARK   17  A    between atoms: C_23  and  C_24
REMARK   18  A    between atoms: C_23  and  C_25
REMARK   19  A    between atoms: C_29  and  C_30
REMARK                            x       y       z     vdW  Elec       q    Type
REMARK                         _______ _______ _______ _____ _____    ______ ____
ROOT
ATOM      1  C   UNL     1      -2.661  -1.319  -0.245  0.00  0.00    -0.046 C 
ENDROOT
BRANCH   1   2
ATOM      2  C   UNL     1      -1.858  -0.097   0.389  0.00  0.00    -0.012 C 
ATOM      3  C   UNL     1      -2.711   1.138   0.078  0.00  0.00    -0.045 C 
ATOM      4  C   UNL     1      -2.200   1.964  -0.835  0.00  0.00    -0.082 C 
ATOM      5  C   UNL     1      -0.800   1.679  -1.237  0.00  0.00    -0.031 C 
ATOM      6  C   UNL     1       0.000   1.000   0.000  0.00  0.00    -0.027 C 
ATOM      7  C   UNL     1       1.566   1.582  -0.301  0.00  0.00    -0.031 C 
ATOM      8  C   UNL     1       1.662   3.094   0.045  0.00  0.00    -0.060 C 
ATOM      9  C   UNL     1       2.033   1.384  -1.767  0.00  0.00    -0.060 C 
ATOM     10  C   UNL     1       2.606   0.846   0.582  0.00  0.00    -0.048 C 
ATOM     11  C   UNL     1       1.999   0.578   1.930  0.00  0.00    -0.052 C 
ATOM     12  C   UNL     1       0.625  -0.054   1.728  0.00  0.00    -0.047 C 
ATOM     13  C   UNL     1       0.000   0.000   0.000  0.00  0.00    -0.022 C 
ATOM     14  C   UNL     1       0.000  -1.000   0.000  0.00  0.00    -0.059 C 
BRANCH   3  15
ATOM     15  C   UNL     1      -4.031   1.303   0.784  0.00  0.00    +0.066 C 
BRANCH  15  16
ATOM     16  O   UNL     1      -4.566   2.604   0.585  0.00  0.00    -0.391 OA
ATOM     17  H   UNL     1      -3.953   3.264   0.945  0.00  0.00    +0.000 HD
ENDBRANCH  15  16
ENDBRANCH   3  15
ENDBRANCH   1   2
BRANCH   1  18
ATOM     18  C   UNL     1      -2.999  -2.404   0.796  0.00  0.00    -0.049 C 
BRANCH  18  19
ATOM     19  C   UNL     1      -3.173  -3.828   0.231  0.00  0.00    -0.034 C 
ATOM     20  C   UNL     1      -1.843  -4.388  -0.290  0.00  0.00    -0.062 C 
BRANCH  19  21
ATOM     21  C   UNL     1      -4.275  -3.902  -0.837  0.00  0.00    +0.048 C 
BRANCH  21  22
ATOM     22  C   UNL     1      -4.568  -5.321  -1.270  0.00  0.00    +0.307 C 
ATOM     23  O   UNL     1      -4.515  -5.709  -2.429  0.00  0.00    -0.251 OA
BRANCH  22  24
ATOM     24  O   UNL     1      -4.897  -6.093  -0.200  0.00  0.00    -0.463 OA
BRANCH  24  25
ATOM     25  C   UNL     1      -5.061  -7.489  -0.500  0.00  0.00    +0.105 C 
BRANCH  25  26
ATOM     26  C   UNL     1      -5.197  -8.245   0.831  0.00  0.00    +0.033 C 
BRANCH  26  27
ATOM     27  N   UNL     1      -5.258  -9.717   0.777  0.00  0.00    -0.300 N 
ATOM     28  H   UNL     1      -5.369  -9.985   1.755  0.00  0.00    +0.000 HD
BRANCH  27  30
ATOM     29  C   UNL     1      -7.763  -9.807   0.611  0.00  0.00    -0.052 C 
ATOM     30  C   UNL     1      -6.418 -10.234   0.031  0.00  0.00    -0.004 C 
ENDBRANCH  27  30
BRANCH  27  31
ATOM     31  C   UNL     1      -4.023 -10.344   0.273  0.00  0.00    -0.004 C 
ATOM     32  C   UNL     1      -2.776 -10.006   1.085  0.00  0.00    -0.052 C 
ENDBRANCH  27  31
ENDBRANCH  26  27
ENDBRANCH  25  26
ENDBRANCH  24  25
ENDBRANCH  22  24
ENDBRANCH  21  22
ENDBRANCH  19  21
ENDBRANCH  18  19
ENDBRANCH   1  18
TORSDOF 13
