@<TRIPOS>MOLECULE
*****
 21 23 0 0 0
SMALL
GASTEIGER

@<TRIPOS>ATOM
      1 C           5.1013   -2.4479    0.0000 C.3     1  UNL1        0.0188
      2 C           4.3581   -1.7788    0.0000 C.3     1  UNL1        0.0721
      3 N           3.4071   -2.0878    0.0000 N.3     1  UNL1       -0.2723
      4 C           3.0981   -3.0388    0.0000 C.3     1  UNL1        0.0721
      5 C           2.0981   -3.0388    0.0000 C.3     1  UNL1        0.0188
      6 C           1.7891   -2.0878    0.0000 C.3     1  UNL1        0.0192
      7 C           2.5981   -1.5000    0.0000 C.3     1  UNL1        0.0792
      8 C           2.5981   -0.5000    0.0000 C.3     1  UNL1        0.1297
      9 N           1.7321    0.0000    0.0000 N.pl3   1  UNL1       -0.2174
     10 C           0.8660   -0.5000    0.0000 C.ar    1  UNL1        0.1693
     11 C           0.8660   -1.5000    0.0000 C.ar    1  UNL1        0.0392
     12 C           0.0000   -2.0000    0.0000 C.ar    1  UNL1        0.0239
     13 C          -0.8660   -1.5000    0.0000 C.ar    1  UNL1        0.1030
     14 C          -1.7321   -2.0000    0.0000 C.ar    1  UNL1        0.0194
     15 C          -1.7321   -3.0000    0.0000 C.ar    1  UNL1        0.0016
     16 C          -2.5981   -3.5000    0.0000 C.ar    1  UNL1        0.0000
     17 C          -3.4641   -3.0000    0.0000 C.ar    1  UNL1        0.0000
     18 C          -3.4641   -2.0000    0.0000 C.ar    1  UNL1        0.0000
     19 C          -2.5981   -1.5000    0.0000 C.ar    1  UNL1        0.0016
     20 N          -0.8660   -0.5000    0.0000 N.ar    1  UNL1       -0.1467
     21 N          -0.0000   -0.0000    0.0000 N.ar    1  UNL1       -0.1314
@<TRIPOS>BOND
     1     1     2    1
     2     2     3    1
     3     3     4    1
     4     4     5    1
     5     5     6    1
     6     6     7    1
     7     3     7    1
     8     7     8    1
     9     8     9    1
    10     9    10    1
    11    10    11   ar
    12    11    12   ar
    13    12    13   ar
    14    13    14    1
    15    14    15   ar
    16    15    16   ar
    17    16    17   ar
    18    17    18   ar
    19    18    19   ar
    20    14    19   ar
    21    13    20   ar
    22    20    21   ar
    23    10    21   ar
