MODEL 1
REMARK VINA RESULT:    -9.583      0.000      0.000
REMARK INTER + INTRA:         -12.898
REMARK INTER:                 -12.384
REMARK INTRA:                  -0.514
REMARK UNBOUND:                -0.514
REMARK  Name = cpd257.pdb
REMARK  6 active torsions:
REMARK  status: ('A' for Active; 'I' for Inactive)
REMARK    1  A    between atoms: C_1  and  C_2
REMARK    2  A    between atoms: C_2  and  N_3
REMARK    3  A    between atoms: C_7  and  C_8
REMARK    4  A    between atoms: C_8  and  N_9
REMARK    5  A    between atoms: N_9  and  C_10
REMARK    6  A    between atoms: C_13  and  C_14
REMARK                            x       y       z     vdW  Elec       q    Type
REMARK                         _______ _______ _______ _____ _____    ______ ____
ROOT
ATOM      1  C   UNL     1      42.965 -38.498 -30.549  0.00  0.00    +0.141 A 
ATOM      2  C   UNL     1      42.648 -37.676 -31.615  0.00  0.00    -0.018 A 
ATOM      3  C   UNL     1      41.398 -37.056 -31.659  0.00  0.00    -0.031 A 
ATOM      4  C   UNL     1      40.494 -37.271 -30.628  0.00  0.00    +0.093 A 
ATOM      5  N   UNL     1      40.842 -38.060 -29.589  0.00  0.00    -0.147 NA
ATOM      6  N   UNL     1      42.083 -38.667 -29.548  0.00  0.00    -0.134 NA
ENDROOT
BRANCH   4   7
ATOM      7  C   UNL     1      39.148 -36.669 -30.577  0.00  0.00    +0.002 A 
ATOM      8  C   UNL     1      38.722 -35.711 -31.516  0.00  0.00    -0.053 A 
ATOM      9  C   UNL     1      37.442 -35.149 -31.453  0.00  0.00    -0.061 A 
ATOM     10  C   UNL     1      36.558 -35.534 -30.450  0.00  0.00    -0.062 A 
ATOM     11  C   UNL     1      36.949 -36.486 -29.514  0.00  0.00    -0.061 A 
ATOM     12  C   UNL     1      38.228 -37.047 -29.580  0.00  0.00    -0.053 A 
ENDBRANCH   4   7
BRANCH   1  13
ATOM     13  N   UNL     1      44.190 -39.151 -30.441  0.00  0.00    -0.326 N 
ATOM     14  H   UNL     1      44.996 -38.800 -30.885  0.00  0.00    +0.000 HD
BRANCH  13  15
ATOM     15  C   UNL     1      44.235 -40.381 -29.641  0.00  0.00    +0.026 C 
BRANCH  15  20
ATOM     16  N   UNL     1      46.651 -40.527 -30.445  0.00  0.00    -0.298 N 
ATOM     17  C   UNL     1      47.493 -41.540 -31.095  0.00  0.00    -0.001 C 
ATOM     18  C   UNL     1      46.504 -42.380 -31.880  0.00  0.00    -0.039 C 
ATOM     19  C   UNL     1      45.183 -42.231 -31.140  0.00  0.00    -0.035 C 
ATOM     20  C   UNL     1      45.460 -41.273 -29.974  0.00  0.00    +0.026 C 
ATOM     21  H   UNL     1      46.391 -39.775 -31.083  0.00  0.00    +0.000 HD
BRANCH  16  23
ATOM     22  C   UNL     1      48.791 -39.473 -29.731  0.00  0.00    -0.052 C 
ATOM     23  C   UNL     1      47.359 -39.842 -29.354  0.00  0.00    -0.004 C 
ENDBRANCH  16  23
ENDBRANCH  15  20
ENDBRANCH  13  15
ENDBRANCH   1  13
TORSDOF 5
ENDMDL
MODEL 2
REMARK VINA RESULT:    -9.160      1.369      2.129
REMARK INTER + INTRA:         -12.351
REMARK INTER:                 -11.695
REMARK INTRA:                  -0.656
REMARK UNBOUND:                -0.514
REMARK  Name = cpd257.pdb
REMARK  6 active torsions:
REMARK  status: ('A' for Active; 'I' for Inactive)
REMARK    1  A    between atoms: C_1  and  C_2
REMARK    2  A    between atoms: C_2  and  N_3
REMARK    3  A    between atoms: C_7  and  C_8
REMARK    4  A    between atoms: C_8  and  N_9
REMARK    5  A    between atoms: N_9  and  C_10
REMARK    6  A    between atoms: C_13  and  C_14
REMARK                            x       y       z     vdW  Elec       q    Type
REMARK                         _______ _______ _______ _____ _____    ______ ____
ROOT
ATOM      1  C   UNL     1      43.012 -38.161 -30.737  0.00  0.00    +0.141 A 
ATOM      2  C   UNL     1      42.651 -37.289 -31.748  0.00  0.00    -0.018 A 
ATOM      3  C   UNL     1      41.371 -36.731 -31.752  0.00  0.00    -0.031 A 
ATOM      4  C   UNL     1      40.482 -37.057 -30.737  0.00  0.00    +0.093 A 
ATOM      5  N   UNL     1      40.873 -37.894 -29.751  0.00  0.00    -0.147 NA
ATOM      6  N   UNL     1      42.142 -38.438 -29.750  0.00  0.00    -0.134 NA
ENDROOT
BRANCH   4   7
ATOM      7  C   UNL     1      39.107 -36.528 -30.648  0.00  0.00    +0.002 A 
ATOM      8  C   UNL     1      38.205 -36.957 -29.657  0.00  0.00    -0.053 A 
ATOM      9  C   UNL     1      36.904 -36.447 -29.587  0.00  0.00    -0.061 A 
ATOM     10  C   UNL     1      36.477 -35.492 -30.506  0.00  0.00    -0.062 A 
ATOM     11  C   UNL     1      37.351 -35.044 -31.491  0.00  0.00    -0.061 A 
ATOM     12  C   UNL     1      38.651 -35.555 -31.558  0.00  0.00    -0.053 A 
ENDBRANCH   4   7
BRANCH   1  13
ATOM     13  N   UNL     1      44.269 -38.756 -30.671  0.00  0.00    -0.326 N 
ATOM     14  H   UNL     1      44.882 -38.741 -31.442  0.00  0.00    +0.000 HD
BRANCH  13  15
ATOM     15  C   UNL     1      44.645 -39.408 -29.411  0.00  0.00    +0.026 C 
BRANCH  15  20
ATOM     16  N   UNL     1      46.869 -38.199 -29.720  0.00  0.00    -0.298 N 
ATOM     17  C   UNL     1      48.288 -38.577 -29.741  0.00  0.00    -0.001 C 
ATOM     18  C   UNL     1      48.269 -40.017 -30.216  0.00  0.00    -0.039 C 
ATOM     19  C   UNL     1      46.904 -40.550 -29.810  0.00  0.00    -0.035 C 
ATOM     20  C   UNL     1      46.173 -39.376 -29.146  0.00  0.00    +0.026 C 
ATOM     21  H   UNL     1      46.517 -37.974 -30.651  0.00  0.00    +0.000 HD
BRANCH  16  23
ATOM     22  C   UNL     1      46.282 -35.782 -29.832  0.00  0.00    -0.052 C 
ATOM     23  C   UNL     1      46.639 -36.971 -28.945  0.00  0.00    -0.004 C 
ENDBRANCH  16  23
ENDBRANCH  15  20
ENDBRANCH  13  15
ENDBRANCH   1  13
TORSDOF 5
ENDMDL
MODEL 3
REMARK VINA RESULT:    -8.925      1.710      8.435
REMARK INTER + INTRA:         -12.048
REMARK INTER:                 -11.293
REMARK INTRA:                  -0.754
REMARK UNBOUND:                -0.514
REMARK  Name = cpd257.pdb
REMARK  6 active torsions:
REMARK  status: ('A' for Active; 'I' for Inactive)
REMARK    1  A    between atoms: C_1  and  C_2
REMARK    2  A    between atoms: C_2  and  N_3
REMARK    3  A    between atoms: C_7  and  C_8
REMARK    4  A    between atoms: C_8  and  N_9
REMARK    5  A    between atoms: N_9  and  C_10
REMARK    6  A    between atoms: C_13  and  C_14
REMARK                            x       y       z     vdW  Elec       q    Type
REMARK                         _______ _______ _______ _____ _____    ______ ____
ROOT
ATOM      1  C   UNL     1      44.367 -39.788 -29.612  0.00  0.00    +0.141 A 
ATOM      2  C   UNL     1      45.218 -40.878 -29.627  0.00  0.00    -0.018 A 
ATOM      3  C   UNL     1      46.598 -40.675 -29.671  0.00  0.00    -0.031 A 
ATOM      4  C   UNL     1      47.097 -39.380 -29.693  0.00  0.00    +0.093 A 
ATOM      5  N   UNL     1      46.241 -38.335 -29.653  0.00  0.00    -0.147 NA
ATOM      6  N   UNL     1      44.876 -38.543 -29.604  0.00  0.00    -0.134 NA
ENDROOT
BRANCH   4   7
ATOM      7  C   UNL     1      48.534 -39.053 -29.743  0.00  0.00    +0.002 A 
ATOM      8  C   UNL     1      49.341 -39.397 -30.844  0.00  0.00    -0.053 A 
ATOM      9  C   UNL     1      50.704 -39.082 -30.875  0.00  0.00    -0.061 A 
ATOM     10  C   UNL     1      51.291 -38.412 -29.806  0.00  0.00    -0.062 A 
ATOM     11  C   UNL     1      50.515 -38.052 -28.708  0.00  0.00    -0.061 A 
ATOM     12  C   UNL     1      49.153 -38.367 -28.681  0.00  0.00    -0.053 A 
ENDBRANCH   4   7
BRANCH   1  13
ATOM     13  N   UNL     1      42.982 -39.915 -29.571  0.00  0.00    -0.326 N 
ATOM     14  H   UNL     1      42.530 -40.703 -29.952  0.00  0.00    +0.000 HD
BRANCH  13  15
ATOM     15  C   UNL     1      42.220 -38.831 -28.939  0.00  0.00    +0.026 C 
BRANCH  15  20
ATOM     16  N   UNL     1      41.328 -36.784 -30.170  0.00  0.00    -0.298 N 
ATOM     17  C   UNL     1      40.024 -36.334 -30.675  0.00  0.00    -0.001 C 
ATOM     18  C   UNL     1      39.028 -37.013 -29.754  0.00  0.00    -0.039 C 
ATOM     19  C   UNL     1      39.741 -38.258 -29.249  0.00  0.00    -0.035 C 
ATOM     20  C   UNL     1      41.142 -38.225 -29.875  0.00  0.00    +0.026 C 
ATOM     21  H   UNL     1      41.617 -36.268 -29.339  0.00  0.00    +0.000 HD
BRANCH  16  23
ATOM     22  C   UNL     1      42.396 -37.541 -32.288  0.00  0.00    -0.052 C 
ATOM     23  C   UNL     1      42.407 -36.538 -31.138  0.00  0.00    -0.004 C 
ENDBRANCH  16  23
ENDBRANCH  15  20
ENDBRANCH  13  15
ENDBRANCH   1  13
TORSDOF 5
ENDMDL
MODEL 4
REMARK VINA RESULT:    -8.487      1.567      1.969
REMARK INTER + INTRA:         -11.482
REMARK INTER:                 -11.020
REMARK INTRA:                  -0.462
REMARK UNBOUND:                -0.514
REMARK  Name = cpd257.pdb
REMARK  6 active torsions:
REMARK  status: ('A' for Active; 'I' for Inactive)
REMARK    1  A    between atoms: C_1  and  C_2
REMARK    2  A    between atoms: C_2  and  N_3
REMARK    3  A    between atoms: C_7  and  C_8
REMARK    4  A    between atoms: C_8  and  N_9
REMARK    5  A    between atoms: N_9  and  C_10
REMARK    6  A    between atoms: C_13  and  C_14
REMARK                            x       y       z     vdW  Elec       q    Type
REMARK                         _______ _______ _______ _____ _____    ______ ____
ROOT
ATOM      1  C   UNL     1      42.767 -38.070 -30.878  0.00  0.00    +0.141 A 
ATOM      2  C   UNL     1      42.250 -37.344 -31.936  0.00  0.00    -0.018 A 
ATOM      3  C   UNL     1      40.951 -36.840 -31.856  0.00  0.00    -0.031 A 
ATOM      4  C   UNL     1      40.198 -37.069 -30.713  0.00  0.00    +0.093 A 
ATOM      5  N   UNL     1      40.740 -37.761 -29.686  0.00  0.00    -0.147 NA
ATOM      6  N   UNL     1      42.028 -38.254 -29.769  0.00  0.00    -0.134 NA
ENDROOT
BRANCH   4   7
ATOM      7  C   UNL     1      38.817 -36.586 -30.526  0.00  0.00    +0.002 A 
ATOM      8  C   UNL     1      38.196 -35.726 -31.452  0.00  0.00    -0.053 A 
ATOM      9  C   UNL     1      36.885 -35.275 -31.259  0.00  0.00    -0.061 A 
ATOM     10  C   UNL     1      36.165 -35.676 -30.138  0.00  0.00    -0.062 A 
ATOM     11  C   UNL     1      36.752 -36.532 -29.211  0.00  0.00    -0.061 A 
ATOM     12  C   UNL     1      38.061 -36.982 -29.407  0.00  0.00    -0.053 A 
ENDBRANCH   4   7
BRANCH   1  13
ATOM     13  N   UNL     1      44.051 -38.604 -30.889  0.00  0.00    -0.326 N 
ATOM     14  H   UNL     1      44.577 -38.653 -31.721  0.00  0.00    +0.000 HD
BRANCH  13  15
ATOM     15  C   UNL     1      44.594 -39.093 -29.615  0.00  0.00    +0.026 C 
BRANCH  15  20
ATOM     16  N   UNL     1      45.073 -41.187 -28.241  0.00  0.00    -0.298 N 
ATOM     17  C   UNL     1      45.047 -42.637 -28.474  0.00  0.00    -0.001 C 
ATOM     18  C   UNL     1      45.320 -42.769 -29.959  0.00  0.00    -0.039 C 
ATOM     19  C   UNL     1      44.840 -41.460 -30.567  0.00  0.00    -0.035 C 
ATOM     20  C   UNL     1      44.341 -40.608 -29.393  0.00  0.00    +0.026 C 
ATOM     21  H   UNL     1      46.025 -40.824 -28.183  0.00  0.00    +0.000 HD
BRANCH  16  23
ATOM     22  C   UNL     1      45.311 -41.304 -25.765  0.00  0.00    -0.052 C 
ATOM     23  C   UNL     1      44.474 -40.827 -26.948  0.00  0.00    -0.004 C 
ENDBRANCH  16  23
ENDBRANCH  15  20
ENDBRANCH  13  15
ENDBRANCH   1  13
TORSDOF 5
ENDMDL
MODEL 5
REMARK VINA RESULT:    -8.414      1.712      2.734
REMARK INTER + INTRA:         -11.387
REMARK INTER:                 -10.689
REMARK INTRA:                  -0.698
REMARK UNBOUND:                -0.514
REMARK  Name = cpd257.pdb
REMARK  6 active torsions:
REMARK  status: ('A' for Active; 'I' for Inactive)
REMARK    1  A    between atoms: C_1  and  C_2
REMARK    2  A    between atoms: C_2  and  N_3
REMARK    3  A    between atoms: C_7  and  C_8
REMARK    4  A    between atoms: C_8  and  N_9
REMARK    5  A    between atoms: N_9  and  C_10
REMARK    6  A    between atoms: C_13  and  C_14
REMARK                            x       y       z     vdW  Elec       q    Type
REMARK                         _______ _______ _______ _____ _____    ______ ____
ROOT
ATOM      1  C   UNL     1      41.671 -38.045 -29.818  0.00  0.00    +0.141 A 
ATOM      2  C   UNL     1      40.878 -38.496 -28.778  0.00  0.00    -0.018 A 
ATOM      3  C   UNL     1      39.553 -38.066 -28.685  0.00  0.00    -0.031 A 
ATOM      4  C   UNL     1      39.050 -37.195 -29.641  0.00  0.00    +0.093 A 
ATOM      5  N   UNL     1      39.843 -36.791 -30.658  0.00  0.00    -0.147 NA
ATOM      6  N   UNL     1      41.151 -37.224 -30.748  0.00  0.00    -0.134 NA
ENDROOT
BRANCH   4   7
ATOM      7  C   UNL     1      37.669 -36.677 -29.635  0.00  0.00    +0.002 A 
ATOM      8  C   UNL     1      37.185 -35.827 -30.648  0.00  0.00    -0.053 A 
ATOM      9  C   UNL     1      35.872 -35.343 -30.626  0.00  0.00    -0.061 A 
ATOM     10  C   UNL     1      35.012 -35.701 -29.593  0.00  0.00    -0.062 A 
ATOM     11  C   UNL     1      35.461 -36.547 -28.584  0.00  0.00    -0.061 A 
ATOM     12  C   UNL     1      36.773 -37.030 -28.608  0.00  0.00    -0.053 A 
ENDBRANCH   4   7
BRANCH   1  13
ATOM     13  N   UNL     1      43.000 -38.429 -29.971  0.00  0.00    -0.326 N 
ATOM     14  H   UNL     1      43.733 -37.776 -29.891  0.00  0.00    +0.000 HD
BRANCH  13  15
ATOM     15  C   UNL     1      43.268 -39.844 -30.257  0.00  0.00    +0.026 C 
BRANCH  15  20
ATOM     16  N   UNL     1      44.432 -41.908 -29.315  0.00  0.00    -0.298 N 
ATOM     17  C   UNL     1      45.275 -42.212 -28.151  0.00  0.00    -0.001 C 
ATOM     18  C   UNL     1      44.839 -41.193 -27.116  0.00  0.00    -0.039 C 
ATOM     19  C   UNL     1      44.302 -40.018 -27.918  0.00  0.00    -0.035 C 
ATOM     20  C   UNL     1      44.416 -40.428 -29.393  0.00  0.00    +0.026 C 
ATOM     21  H   UNL     1      43.490 -42.286 -29.217  0.00  0.00    +0.000 HD
BRANCH  16  23
ATOM     22  C   UNL     1      46.257 -41.914 -31.009  0.00  0.00    -0.052 C 
ATOM     23  C   UNL     1      44.944 -42.535 -30.542  0.00  0.00    -0.004 C 
ENDBRANCH  16  23
ENDBRANCH  15  20
ENDBRANCH  13  15
ENDBRANCH   1  13
TORSDOF 5
ENDMDL
MODEL 6
REMARK VINA RESULT:    -8.254      1.085      2.206
REMARK INTER + INTRA:         -11.181
REMARK INTER:                 -10.589
REMARK INTRA:                  -0.592
REMARK UNBOUND:                -0.514
REMARK  Name = cpd257.pdb
REMARK  6 active torsions:
REMARK  status: ('A' for Active; 'I' for Inactive)
REMARK    1  A    between atoms: C_1  and  C_2
REMARK    2  A    between atoms: C_2  and  N_3
REMARK    3  A    between atoms: C_7  and  C_8
REMARK    4  A    between atoms: C_8  and  N_9
REMARK    5  A    between atoms: N_9  and  C_10
REMARK    6  A    between atoms: C_13  and  C_14
REMARK                            x       y       z     vdW  Elec       q    Type
REMARK                         _______ _______ _______ _____ _____    ______ ____
ROOT
ATOM      1  C   UNL     1      42.966 -38.289 -30.667  0.00  0.00    +0.141 A 
ATOM      2  C   UNL     1      42.639 -37.247 -31.515  0.00  0.00    -0.018 A 
ATOM      3  C   UNL     1      41.360 -36.690 -31.461  0.00  0.00    -0.031 A 
ATOM      4  C   UNL     1      40.437 -37.187 -30.551  0.00  0.00    +0.093 A 
ATOM      5  N   UNL     1      40.794 -38.190 -29.720  0.00  0.00    -0.147 NA
ATOM      6  N   UNL     1      42.063 -38.734 -29.774  0.00  0.00    -0.134 NA
ENDROOT
BRANCH   4   7
ATOM      7  C   UNL     1      39.061 -36.674 -30.414  0.00  0.00    +0.002 A 
ATOM      8  C   UNL     1      38.184 -37.145 -29.419  0.00  0.00    -0.053 A 
ATOM      9  C   UNL     1      36.881 -36.649 -29.303  0.00  0.00    -0.061 A 
ATOM     10  C   UNL     1      36.426 -35.668 -30.178  0.00  0.00    -0.062 A 
ATOM     11  C   UNL     1      37.274 -35.178 -31.166  0.00  0.00    -0.061 A 
ATOM     12  C   UNL     1      38.576 -35.675 -31.279  0.00  0.00    -0.053 A 
ENDBRANCH   4   7
BRANCH   1  13
ATOM     13  N   UNL     1      44.219 -38.895 -30.668  0.00  0.00    -0.326 N 
ATOM     14  H   UNL     1      44.487 -39.512 -31.387  0.00  0.00    +0.000 HD
BRANCH  13  15
ATOM     15  C   UNL     1      45.125 -38.579 -29.557  0.00  0.00    +0.026 C 
BRANCH  15  20
ATOM     16  N   UNL     1      45.615 -41.081 -29.602  0.00  0.00    -0.298 N 
ATOM     17  C   UNL     1      45.665 -42.170 -28.617  0.00  0.00    -0.001 C 
ATOM     18  C   UNL     1      44.694 -41.726 -27.540  0.00  0.00    -0.039 C 
ATOM     19  C   UNL     1      44.669 -40.208 -27.631  0.00  0.00    -0.035 C 
ATOM     20  C   UNL     1      45.605 -39.840 -28.791  0.00  0.00    +0.026 C 
ATOM     21  H   UNL     1      44.792 -41.142 -30.201  0.00  0.00    +0.000 HD
BRANCH  16  23
ATOM     22  C   UNL     1      46.639 -42.309 -31.511  0.00  0.00    -0.052 C 
ATOM     23  C   UNL     1      46.746 -41.137 -30.539  0.00  0.00    -0.004 C 
ENDBRANCH  16  23
ENDBRANCH  15  20
ENDBRANCH  13  15
ENDBRANCH   1  13
TORSDOF 5
ENDMDL
MODEL 7
REMARK VINA RESULT:    -7.974      4.384     10.148
REMARK INTER + INTRA:         -10.818
REMARK INTER:                  -9.820
REMARK INTRA:                  -0.998
REMARK UNBOUND:                -0.514
REMARK  Name = cpd257.pdb
REMARK  6 active torsions:
REMARK  status: ('A' for Active; 'I' for Inactive)
REMARK    1  A    between atoms: C_1  and  C_2
REMARK    2  A    between atoms: C_2  and  N_3
REMARK    3  A    between atoms: C_7  and  C_8
REMARK    4  A    between atoms: C_8  and  N_9
REMARK    5  A    between atoms: N_9  and  C_10
REMARK    6  A    between atoms: C_13  and  C_14
REMARK                            x       y       z     vdW  Elec       q    Type
REMARK                         _______ _______ _______ _____ _____    ______ ____
ROOT
ATOM      1  C   UNL     1      36.262 -36.283 -29.091  0.00  0.00    +0.141 A 
ATOM      2  C   UNL     1      37.018 -37.261 -28.471  0.00  0.00    -0.018 A 
ATOM      3  C   UNL     1      38.275 -37.588 -28.983  0.00  0.00    -0.031 A 
ATOM      4  C   UNL     1      38.749 -36.923 -30.105  0.00  0.00    +0.093 A 
ATOM      5  N   UNL     1      37.997 -35.956 -30.674  0.00  0.00    -0.147 NA
ATOM      6  N   UNL     1      36.757 -35.632 -30.159  0.00  0.00    -0.134 NA
ENDROOT
BRANCH   4   7
ATOM      7  C   UNL     1      40.059 -37.194 -30.728  0.00  0.00    +0.002 A 
ATOM      8  C   UNL     1      41.021 -38.020 -30.117  0.00  0.00    -0.053 A 
ATOM      9  C   UNL     1      42.259 -38.265 -30.721  0.00  0.00    -0.061 A 
ATOM     10  C   UNL     1      42.562 -37.691 -31.952  0.00  0.00    -0.062 A 
ATOM     11  C   UNL     1      41.626 -36.877 -32.583  0.00  0.00    -0.061 A 
ATOM     12  C   UNL     1      40.389 -36.635 -31.977  0.00  0.00    -0.053 A 
ENDBRANCH   4   7
BRANCH   1  13
ATOM     13  N   UNL     1      35.001 -35.907 -28.638  0.00  0.00    -0.326 N 
ATOM     14  H   UNL     1      34.861 -35.603 -27.712  0.00  0.00    +0.000 HD
BRANCH  13  15
ATOM     15  C   UNL     1      33.888 -35.982 -29.592  0.00  0.00    +0.026 C 
BRANCH  15  20
ATOM     16  N   UNL     1      34.183 -34.210 -31.403  0.00  0.00    -0.298 N 
ATOM     17  C   UNL     1      33.992 -32.757 -31.506  0.00  0.00    -0.001 C 
ATOM     18  C   UNL     1      34.200 -32.265 -30.087  0.00  0.00    -0.039 C 
ATOM     19  C   UNL     1      33.845 -33.449 -29.201  0.00  0.00    -0.035 C 
ATOM     20  C   UNL     1      33.481 -34.594 -30.155  0.00  0.00    +0.026 C 
ATOM     21  H   UNL     1      35.169 -34.467 -31.369  0.00  0.00    +0.000 HD
BRANCH  16  23
ATOM     22  C   UNL     1      32.152 -34.806 -32.714  0.00  0.00    -0.052 C 
ATOM     23  C   UNL     1      33.668 -34.917 -32.584  0.00  0.00    -0.004 C 
ENDBRANCH  16  23
ENDBRANCH  15  20
ENDBRANCH  13  15
ENDBRANCH   1  13
TORSDOF 5
ENDMDL
MODEL 8
REMARK VINA RESULT:    -7.525      3.938     10.371
REMARK INTER + INTRA:         -10.239
REMARK INTER:                  -9.524
REMARK INTRA:                  -0.714
REMARK UNBOUND:                -0.514
REMARK  Name = cpd257.pdb
REMARK  6 active torsions:
REMARK  status: ('A' for Active; 'I' for Inactive)
REMARK    1  A    between atoms: C_1  and  C_2
REMARK    2  A    between atoms: C_2  and  N_3
REMARK    3  A    between atoms: C_7  and  C_8
REMARK    4  A    between atoms: C_8  and  N_9
REMARK    5  A    between atoms: N_9  and  C_10
REMARK    6  A    between atoms: C_13  and  C_14
REMARK                            x       y       z     vdW  Elec       q    Type
REMARK                         _______ _______ _______ _____ _____    ______ ____
ROOT
ATOM      1  C   UNL     1      36.855 -35.172 -31.284  0.00  0.00    +0.141 A 
ATOM      2  C   UNL     1      36.939 -36.304 -30.494  0.00  0.00    -0.018 A 
ATOM      3  C   UNL     1      38.162 -36.965 -30.365  0.00  0.00    -0.031 A 
ATOM      4  C   UNL     1      39.278 -36.471 -31.028  0.00  0.00    +0.093 A 
ATOM      5  N   UNL     1      39.168 -35.350 -31.772  0.00  0.00    -0.147 NA
ATOM      6  N   UNL     1      37.957 -34.697 -31.892  0.00  0.00    -0.134 NA
ENDROOT
BRANCH   4   7
ATOM      7  C   UNL     1      40.614 -37.093 -30.962  0.00  0.00    +0.002 A 
ATOM      8  C   UNL     1      41.662 -36.702 -31.816  0.00  0.00    -0.053 A 
ATOM      9  C   UNL     1      42.924 -37.303 -31.742  0.00  0.00    -0.061 A 
ATOM     10  C   UNL     1      43.166 -38.307 -30.809  0.00  0.00    -0.062 A 
ATOM     11  C   UNL     1      42.151 -38.706 -29.947  0.00  0.00    -0.061 A 
ATOM     12  C   UNL     1      40.891 -38.104 -30.022  0.00  0.00    -0.053 A 
ENDBRANCH   4   7
BRANCH   1  13
ATOM     13  N   UNL     1      35.669 -34.465 -31.461  0.00  0.00    -0.326 N 
ATOM     14  H   UNL     1      34.970 -34.786 -32.076  0.00  0.00    +0.000 HD
BRANCH  13  15
ATOM     15  C   UNL     1      35.499 -33.224 -30.696  0.00  0.00    +0.026 C 
BRANCH  15  20
ATOM     16  N   UNL     1      33.177 -34.095 -30.102  0.00  0.00    -0.298 N 
ATOM     17  C   UNL     1      31.795 -33.629 -30.272  0.00  0.00    -0.001 C 
ATOM     18  C   UNL     1      31.856 -32.763 -31.515  0.00  0.00    -0.039 C 
ATOM     19  C   UNL     1      33.293 -32.267 -31.581  0.00  0.00    -0.035 C 
ATOM     20  C   UNL     1      34.013 -32.904 -30.385  0.00  0.00    +0.026 C 
ATOM     21  H   UNL     1      33.402 -34.866 -30.730  0.00  0.00    +0.000 HD
BRANCH  16  23
ATOM     22  C   UNL     1      33.720 -36.139 -28.789  0.00  0.00    -0.052 C 
ATOM     23  C   UNL     1      33.410 -34.645 -28.759  0.00  0.00    -0.004 C 
ENDBRANCH  16  23
ENDBRANCH  15  20
ENDBRANCH  13  15
ENDBRANCH   1  13
TORSDOF 5
ENDMDL
MODEL 9
REMARK VINA RESULT:    -7.509      3.934     10.709
REMARK INTER + INTRA:         -10.218
REMARK INTER:                  -9.470
REMARK INTRA:                  -0.748
REMARK UNBOUND:                -0.514
REMARK  Name = cpd257.pdb
REMARK  6 active torsions:
REMARK  status: ('A' for Active; 'I' for Inactive)
REMARK    1  A    between atoms: C_1  and  C_2
REMARK    2  A    between atoms: C_2  and  N_3
REMARK    3  A    between atoms: C_7  and  C_8
REMARK    4  A    between atoms: C_8  and  N_9
REMARK    5  A    between atoms: N_9  and  C_10
REMARK    6  A    between atoms: C_13  and  C_14
REMARK                            x       y       z     vdW  Elec       q    Type
REMARK                         _______ _______ _______ _____ _____    ______ ____
ROOT
ATOM      1  C   UNL     1      36.739 -35.166 -30.996  0.00  0.00    +0.141 A 
ATOM      2  C   UNL     1      36.851 -36.166 -30.047  0.00  0.00    -0.018 A 
ATOM      3  C   UNL     1      38.043 -36.883 -29.940  0.00  0.00    -0.031 A 
ATOM      4  C   UNL     1      39.102 -36.578 -30.784  0.00  0.00    +0.093 A 
ATOM      5  N   UNL     1      38.970 -35.579 -31.684  0.00  0.00    -0.147 NA
ATOM      6  N   UNL     1      37.789 -34.869 -31.782  0.00  0.00    -0.134 NA
ENDROOT
BRANCH   4   7
ATOM      7  C   UNL     1      40.401 -37.275 -30.757  0.00  0.00    +0.002 A 
ATOM      8  C   UNL     1      40.771 -38.127 -29.700  0.00  0.00    -0.053 A 
ATOM      9  C   UNL     1      42.009 -38.780 -29.689  0.00  0.00    -0.061 A 
ATOM     10  C   UNL     1      42.905 -38.596 -30.738  0.00  0.00    -0.062 A 
ATOM     11  C   UNL     1      42.562 -37.766 -31.800  0.00  0.00    -0.061 A 
ATOM     12  C   UNL     1      41.324 -37.116 -31.809  0.00  0.00    -0.053 A 
ENDBRANCH   4   7
BRANCH   1  13
ATOM     13  N   UNL     1      35.580 -34.412 -31.161  0.00  0.00    -0.326 N 
ATOM     14  H   UNL     1      35.590 -33.433 -31.062  0.00  0.00    +0.000 HD
BRANCH  13  15
ATOM     15  C   UNL     1      34.344 -35.133 -31.488  0.00  0.00    +0.026 C 
BRANCH  15  20
ATOM     16  N   UNL     1      32.955 -33.263 -30.449  0.00  0.00    -0.298 N 
ATOM     17  C   UNL     1      32.106 -33.108 -29.261  0.00  0.00    -0.001 C 
ATOM     18  C   UNL     1      32.684 -34.102 -28.273  0.00  0.00    -0.039 C 
ATOM     19  C   UNL     1      33.344 -35.173 -29.129  0.00  0.00    -0.035 C 
ATOM     20  C   UNL     1      33.150 -34.727 -30.584  0.00  0.00    +0.026 C 
ATOM     21  H   UNL     1      33.846 -32.776 -30.352  0.00  0.00    +0.000 HD
BRANCH  16  23
ATOM     22  C   UNL     1      30.875 -32.311 -31.432  0.00  0.00    -0.052 C 
ATOM     23  C   UNL     1      32.346 -32.659 -31.643  0.00  0.00    -0.004 C 
ENDBRANCH  16  23
ENDBRANCH  15  20
ENDBRANCH  13  15
ENDBRANCH   1  13
TORSDOF 5
ENDMDL
MODEL 10
REMARK VINA RESULT:    -7.406      4.339     10.229
REMARK INTER + INTRA:         -10.085
REMARK INTER:                  -9.348
REMARK INTRA:                  -0.737
REMARK UNBOUND:                -0.514
REMARK  Name = cpd257.pdb
REMARK  6 active torsions:
REMARK  status: ('A' for Active; 'I' for Inactive)
REMARK    1  A    between atoms: C_1  and  C_2
REMARK    2  A    between atoms: C_2  and  N_3
REMARK    3  A    between atoms: C_7  and  C_8
REMARK    4  A    between atoms: C_8  and  N_9
REMARK    5  A    between atoms: N_9  and  C_10
REMARK    6  A    between atoms: C_13  and  C_14
REMARK                            x       y       z     vdW  Elec       q    Type
REMARK                         _______ _______ _______ _____ _____    ______ ____
ROOT
ATOM      1  C   UNL     1      36.232 -36.812 -28.543  0.00  0.00    +0.141 A 
ATOM      2  C   UNL     1      37.099 -37.676 -27.901  0.00  0.00    -0.018 A 
ATOM      3  C   UNL     1      38.366 -37.907 -28.440  0.00  0.00    -0.031 A 
ATOM      4  C   UNL     1      38.738 -37.260 -29.611  0.00  0.00    +0.093 A 
ATOM      5  N   UNL     1      37.877 -36.403 -30.201  0.00  0.00    -0.147 NA
ATOM      6  N   UNL     1      36.626 -36.174 -29.660  0.00  0.00    -0.134 NA
ENDROOT
BRANCH   4   7
ATOM      7  C   UNL     1      40.048 -37.434 -30.265  0.00  0.00    +0.002 A 
ATOM      8  C   UNL     1      40.379 -36.772 -31.462  0.00  0.00    -0.053 A 
ATOM      9  C   UNL     1      41.627 -36.949 -32.071  0.00  0.00    -0.061 A 
ATOM     10  C   UNL     1      42.573 -37.791 -31.495  0.00  0.00    -0.062 A 
ATOM     11  C   UNL     1      42.275 -38.452 -30.308  0.00  0.00    -0.061 A 
ATOM     12  C   UNL     1      41.029 -38.272 -29.700  0.00  0.00    -0.053 A 
ENDBRANCH   4   7
BRANCH   1  13
ATOM     13  N   UNL     1      34.954 -36.537 -28.065  0.00  0.00    -0.326 N 
ATOM     14  H   UNL     1      34.815 -36.164 -27.164  0.00  0.00    +0.000 HD
BRANCH  13  15
ATOM     15  C   UNL     1      33.821 -36.824 -28.954  0.00  0.00    +0.026 C 
BRANCH  15  20
ATOM     16  N   UNL     1      33.475 -34.351 -29.469  0.00  0.00    -0.298 N 
ATOM     17  C   UNL     1      32.490 -33.321 -29.112  0.00  0.00    -0.001 C 
ATOM     18  C   UNL     1      31.968 -33.774 -27.763  0.00  0.00    -0.039 C 
ATOM     19  C   UNL     1      32.167 -35.282 -27.747  0.00  0.00    -0.035 C 
ATOM     20  C   UNL     1      32.837 -35.632 -29.083  0.00  0.00    +0.026 C 
ATOM     21  H   UNL     1      34.364 -34.217 -28.986  0.00  0.00    +0.000 HD
BRANCH  16  23
ATOM     22  C   UNL     1      34.491 -32.981 -31.283  0.00  0.00    -0.052 C 
ATOM     23  C   UNL     1      33.831 -34.301 -30.894  0.00  0.00    -0.004 C 
ENDBRANCH  16  23
ENDBRANCH  15  20
ENDBRANCH  13  15
ENDBRANCH   1  13
TORSDOF 5
ENDMDL
MODEL 11
REMARK VINA RESULT:    -7.404      4.536      8.714
REMARK INTER + INTRA:         -10.082
REMARK INTER:                  -9.101
REMARK INTRA:                  -0.981
REMARK UNBOUND:                -0.514
REMARK  Name = cpd257.pdb
REMARK  6 active torsions:
REMARK  status: ('A' for Active; 'I' for Inactive)
REMARK    1  A    between atoms: C_1  and  C_2
REMARK    2  A    between atoms: C_2  and  N_3
REMARK    3  A    between atoms: C_7  and  C_8
REMARK    4  A    between atoms: C_8  and  N_9
REMARK    5  A    between atoms: N_9  and  C_10
REMARK    6  A    between atoms: C_13  and  C_14
REMARK                            x       y       z     vdW  Elec       q    Type
REMARK                         _______ _______ _______ _____ _____    ______ ____
ROOT
ATOM      1  C   UNL     1      36.459 -37.797 -27.755  0.00  0.00    +0.141 A 
ATOM      2  C   UNL     1      36.146 -36.860 -28.724  0.00  0.00    -0.018 A 
ATOM      3  C   UNL     1      37.089 -36.540 -29.702  0.00  0.00    -0.031 A 
ATOM      4  C   UNL     1      38.325 -37.172 -29.692  0.00  0.00    +0.093 A 
ATOM      5  N   UNL     1      38.591 -38.100 -28.747  0.00  0.00    -0.147 NA
ATOM      6  N   UNL     1      37.653 -38.416 -27.784  0.00  0.00    -0.134 NA
ENDROOT
BRANCH   4   7
ATOM      7  C   UNL     1      39.392 -36.906 -30.675  0.00  0.00    +0.002 A 
ATOM      8  C   UNL     1      39.204 -36.036 -31.766  0.00  0.00    -0.053 A 
ATOM      9  C   UNL     1      40.226 -35.796 -32.690  0.00  0.00    -0.061 A 
ATOM     10  C   UNL     1      41.462 -36.418 -32.544  0.00  0.00    -0.062 A 
ATOM     11  C   UNL     1      41.678 -37.277 -31.471  0.00  0.00    -0.061 A 
ATOM     12  C   UNL     1      40.655 -37.514 -30.547  0.00  0.00    -0.053 A 
ENDBRANCH   4   7
BRANCH   1  13
ATOM     13  N   UNL     1      35.571 -38.163 -26.748  0.00  0.00    -0.326 N 
ATOM     14  H   UNL     1      35.781 -38.003 -25.800  0.00  0.00    +0.000 HD
BRANCH  13  15
ATOM     15  C   UNL     1      34.309 -38.794 -27.154  0.00  0.00    +0.026 C 
BRANCH  15  20
ATOM     16  N   UNL     1      33.902 -40.746 -28.744  0.00  0.00    -0.298 N 
ATOM     17  C   UNL     1      33.752 -42.202 -28.620  0.00  0.00    -0.001 C 
ATOM     18  C   UNL     1      33.197 -42.388 -27.221  0.00  0.00    -0.039 C 
ATOM     19  C   UNL     1      33.675 -41.173 -26.441  0.00  0.00    -0.035 C 
ATOM     20  C   UNL     1      34.458 -40.312 -27.440  0.00  0.00    +0.026 C 
ATOM     21  H   UNL     1      33.015 -40.284 -28.944  0.00  0.00    +0.000 HD
BRANCH  16  23
ATOM     22  C   UNL     1      36.107 -41.097 -29.847  0.00  0.00    -0.052 C 
ATOM     23  C   UNL     1      34.761 -40.377 -29.879  0.00  0.00    -0.004 C 
ENDBRANCH  16  23
ENDBRANCH  15  20
ENDBRANCH  13  15
ENDBRANCH   1  13
TORSDOF 5
ENDMDL
MODEL 12
REMARK VINA RESULT:    -7.322      4.978     11.025
REMARK INTER + INTRA:          -9.976
REMARK INTER:                  -9.261
REMARK INTRA:                  -0.714
REMARK UNBOUND:                -0.514
REMARK  Name = cpd257.pdb
REMARK  6 active torsions:
REMARK  status: ('A' for Active; 'I' for Inactive)
REMARK    1  A    between atoms: C_1  and  C_2
REMARK    2  A    between atoms: C_2  and  N_3
REMARK    3  A    between atoms: C_7  and  C_8
REMARK    4  A    between atoms: C_8  and  N_9
REMARK    5  A    between atoms: N_9  and  C_10
REMARK    6  A    between atoms: C_13  and  C_14
REMARK                            x       y       z     vdW  Elec       q    Type
REMARK                         _______ _______ _______ _____ _____    ______ ____
ROOT
ATOM      1  C   UNL     1      35.408 -36.099 -29.659  0.00  0.00    +0.141 A 
ATOM      2  C   UNL     1      36.294 -36.758 -28.827  0.00  0.00    -0.018 A 
ATOM      3  C   UNL     1      37.609 -36.964 -29.246  0.00  0.00    -0.031 A 
ATOM      4  C   UNL     1      38.010 -36.498 -30.491  0.00  0.00    +0.093 A 
ATOM      5  N   UNL     1      37.127 -35.837 -31.270  0.00  0.00    -0.147 NA
ATOM      6  N   UNL     1      35.828 -35.631 -30.848  0.00  0.00    -0.134 NA
ENDROOT
BRANCH   4   7
ATOM      7  C   UNL     1      39.372 -36.665 -31.031  0.00  0.00    +0.002 A 
ATOM      8  C   UNL     1      40.377 -37.354 -30.326  0.00  0.00    -0.053 A 
ATOM      9  C   UNL     1      41.665 -37.502 -30.852  0.00  0.00    -0.061 A 
ATOM     10  C   UNL     1      41.976 -36.967 -32.098  0.00  0.00    -0.062 A 
ATOM     11  C   UNL     1      41.000 -36.288 -32.821  0.00  0.00    -0.061 A 
ATOM     12  C   UNL     1      39.714 -36.143 -32.293  0.00  0.00    -0.053 A 
ENDBRANCH   4   7
BRANCH   1  13
ATOM     13  N   UNL     1      34.082 -35.861 -29.308  0.00  0.00    -0.326 N 
ATOM     14  H   UNL     1      33.364 -36.479 -29.578  0.00  0.00    +0.000 HD
BRANCH  13  15
ATOM     15  C   UNL     1      33.794 -34.655 -28.522  0.00  0.00    +0.026 C 
BRANCH  15  20
ATOM     16  N   UNL     1      32.997 -32.347 -29.259  0.00  0.00    -0.298 N 
ATOM     17  C   UNL     1      31.701 -31.679 -29.434  0.00  0.00    -0.001 C 
ATOM     18  C   UNL     1      30.795 -32.384 -28.443  0.00  0.00    -0.039 C 
ATOM     19  C   UNL     1      31.404 -33.766 -28.265  0.00  0.00    -0.035 C 
ATOM     20  C   UNL     1      32.665 -33.787 -29.138  0.00  0.00    +0.026 C 
ATOM     21  H   UNL     1      33.495 -32.009 -28.436  0.00  0.00    +0.000 HD
BRANCH  16  23
ATOM     22  C   UNL     1      33.426 -32.662 -31.691  0.00  0.00    -0.052 C 
ATOM     23  C   UNL     1      33.914 -32.068 -30.373  0.00  0.00    -0.004 C 
ENDBRANCH  16  23
ENDBRANCH  15  20
ENDBRANCH  13  15
ENDBRANCH   1  13
TORSDOF 5
ENDMDL
MODEL 13
REMARK VINA RESULT:    -7.281      4.642     10.000
REMARK INTER + INTRA:          -9.923
REMARK INTER:                  -9.249
REMARK INTRA:                  -0.674
REMARK UNBOUND:                -0.514
REMARK  Name = cpd257.pdb
REMARK  6 active torsions:
REMARK  status: ('A' for Active; 'I' for Inactive)
REMARK    1  A    between atoms: C_1  and  C_2
REMARK    2  A    between atoms: C_2  and  N_3
REMARK    3  A    between atoms: C_7  and  C_8
REMARK    4  A    between atoms: C_8  and  N_9
REMARK    5  A    between atoms: N_9  and  C_10
REMARK    6  A    between atoms: C_13  and  C_14
REMARK                            x       y       z     vdW  Elec       q    Type
REMARK                         _______ _______ _______ _____ _____    ______ ____
ROOT
ATOM      1  C   UNL     1      36.459 -37.674 -27.655  0.00  0.00    +0.141 A 
ATOM      2  C   UNL     1      36.136 -36.712 -28.594  0.00  0.00    -0.018 A 
ATOM      3  C   UNL     1      37.047 -36.406 -29.607  0.00  0.00    -0.031 A 
ATOM      4  C   UNL     1      38.261 -37.077 -29.660  0.00  0.00    +0.093 A 
ATOM      5  N   UNL     1      38.536 -38.029 -28.742  0.00  0.00    -0.147 NA
ATOM      6  N   UNL     1      37.629 -38.331 -27.745  0.00  0.00    -0.134 NA
ENDROOT
BRANCH   4   7
ATOM      7  C   UNL     1      39.293 -36.829 -30.684  0.00  0.00    +0.002 A 
ATOM      8  C   UNL     1      40.578 -37.397 -30.602  0.00  0.00    -0.053 A 
ATOM      9  C   UNL     1      41.547 -37.151 -31.582  0.00  0.00    -0.061 A 
ATOM     10  C   UNL     1      41.251 -36.332 -32.667  0.00  0.00    -0.062 A 
ATOM     11  C   UNL     1      39.985 -35.764 -32.778  0.00  0.00    -0.061 A 
ATOM     12  C   UNL     1      39.019 -36.013 -31.798  0.00  0.00    -0.053 A 
ENDBRANCH   4   7
BRANCH   1  13
ATOM     13  N   UNL     1      35.602 -38.028 -26.617  0.00  0.00    -0.326 N 
ATOM     14  H   UNL     1      35.854 -38.717 -25.960  0.00  0.00    +0.000 HD
BRANCH  13  15
ATOM     15  C   UNL     1      34.310 -37.336 -26.538  0.00  0.00    +0.026 C 
BRANCH  15  20
ATOM     16  N   UNL     1      33.807 -37.945 -24.113  0.00  0.00    -0.298 N 
ATOM     17  C   UNL     1      32.997 -38.955 -23.420  0.00  0.00    -0.001 C 
ATOM     18  C   UNL     1      32.959 -40.117 -24.393  0.00  0.00    -0.039 C 
ATOM     19  C   UNL     1      33.155 -39.489 -25.765  0.00  0.00    -0.035 C 
ATOM     20  C   UNL     1      33.337 -37.986 -25.519  0.00  0.00    +0.026 C 
ATOM     21  H   UNL     1      34.805 -38.141 -24.047  0.00  0.00    +0.000 HD
BRANCH  16  23
ATOM     22  C   UNL     1      32.216 -36.129 -23.503  0.00  0.00    -0.052 C 
ATOM     23  C   UNL     1      33.663 -36.614 -23.506  0.00  0.00    -0.004 C 
ENDBRANCH  16  23
ENDBRANCH  15  20
ENDBRANCH  13  15
ENDBRANCH   1  13
TORSDOF 5
ENDMDL
MODEL 14
REMARK VINA RESULT:    -7.256      4.710     10.172
REMARK INTER + INTRA:          -9.891
REMARK INTER:                  -9.050
REMARK INTRA:                  -0.841
REMARK UNBOUND:                -0.514
REMARK  Name = cpd257.pdb
REMARK  6 active torsions:
REMARK  status: ('A' for Active; 'I' for Inactive)
REMARK    1  A    between atoms: C_1  and  C_2
REMARK    2  A    between atoms: C_2  and  N_3
REMARK    3  A    between atoms: C_7  and  C_8
REMARK    4  A    between atoms: C_8  and  N_9
REMARK    5  A    between atoms: N_9  and  C_10
REMARK    6  A    between atoms: C_13  and  C_14
REMARK                            x       y       z     vdW  Elec       q    Type
REMARK                         _______ _______ _______ _____ _____    ______ ____
ROOT
ATOM      1  C   UNL     1      36.287 -37.727 -27.734  0.00  0.00    +0.141 A 
ATOM      2  C   UNL     1      35.960 -36.786 -28.693  0.00  0.00    -0.018 A 
ATOM      3  C   UNL     1      36.886 -36.466 -29.688  0.00  0.00    -0.031 A 
ATOM      4  C   UNL     1      38.120 -37.102 -29.702  0.00  0.00    +0.093 A 
ATOM      5  N   UNL     1      38.400 -38.034 -28.765  0.00  0.00    -0.147 NA
ATOM      6  N   UNL     1      37.477 -38.351 -27.786  0.00  0.00    -0.134 NA
ENDROOT
BRANCH   4   7
ATOM      7  C   UNL     1      39.170 -36.837 -30.703  0.00  0.00    +0.002 A 
ATOM      8  C   UNL     1      40.466 -37.373 -30.587  0.00  0.00    -0.053 A 
ATOM      9  C   UNL     1      41.451 -37.110 -31.546  0.00  0.00    -0.061 A 
ATOM     10  C   UNL     1      41.161 -36.307 -32.644  0.00  0.00    -0.062 A 
ATOM     11  C   UNL     1      39.886 -35.770 -32.789  0.00  0.00    -0.061 A 
ATOM     12  C   UNL     1      38.903 -36.036 -31.830  0.00  0.00    -0.053 A 
ENDBRANCH   4   7
BRANCH   1  13
ATOM     13  N   UNL     1      35.415 -38.093 -26.712  0.00  0.00    -0.326 N 
ATOM     14  H   UNL     1      35.694 -38.062 -25.768  0.00  0.00    +0.000 HD
BRANCH  13  15
ATOM     15  C   UNL     1      34.066 -38.527 -27.095  0.00  0.00    +0.026 C 
BRANCH  15  20
ATOM     16  N   UNL     1      32.706 -36.371 -27.183  0.00  0.00    -0.298 N 
ATOM     17  C   UNL     1      31.970 -35.542 -26.220  0.00  0.00    -0.001 C 
ATOM     18  C   UNL     1      32.682 -35.797 -24.907  0.00  0.00    -0.039 C 
ATOM     19  C   UNL     1      33.302 -37.179 -25.054  0.00  0.00    -0.035 C 
ATOM     20  C   UNL     1      32.949 -37.649 -26.471  0.00  0.00    +0.026 C 
ATOM     21  H   UNL     1      33.580 -35.936 -27.477  0.00  0.00    +0.000 HD
BRANCH  16  23
ATOM     22  C   UNL     1      32.540 -35.734 -29.584  0.00  0.00    -0.052 C 
ATOM     23  C   UNL     1      31.958 -36.554 -28.436  0.00  0.00    -0.004 C 
ENDBRANCH  16  23
ENDBRANCH  15  20
ENDBRANCH  13  15
ENDBRANCH   1  13
TORSDOF 5
ENDMDL
MODEL 15
REMARK VINA RESULT:    -7.166      4.383      9.380
REMARK INTER + INTRA:          -9.774
REMARK INTER:                  -8.883
REMARK INTRA:                  -0.892
REMARK UNBOUND:                -0.514
REMARK  Name = cpd257.pdb
REMARK  6 active torsions:
REMARK  status: ('A' for Active; 'I' for Inactive)
REMARK    1  A    between atoms: C_1  and  C_2
REMARK    2  A    between atoms: C_2  and  N_3
REMARK    3  A    between atoms: C_7  and  C_8
REMARK    4  A    between atoms: C_8  and  N_9
REMARK    5  A    between atoms: N_9  and  C_10
REMARK    6  A    between atoms: C_13  and  C_14
REMARK                            x       y       z     vdW  Elec       q    Type
REMARK                         _______ _______ _______ _____ _____    ______ ____
ROOT
ATOM      1  C   UNL     1      36.489 -37.034 -28.375  0.00  0.00    +0.141 A 
ATOM      2  C   UNL     1      37.455 -37.910 -27.917  0.00  0.00    -0.018 A 
ATOM      3  C   UNL     1      38.660 -38.032 -28.612  0.00  0.00    -0.031 A 
ATOM      4  C   UNL     1      38.871 -37.268 -29.751  0.00  0.00    +0.093 A 
ATOM      5  N   UNL     1      37.916 -36.403 -30.159  0.00  0.00    -0.147 NA
ATOM      6  N   UNL     1      36.729 -36.282 -29.464  0.00  0.00    -0.134 NA
ENDROOT
BRANCH   4   7
ATOM      7  C   UNL     1      40.103 -37.322 -30.560  0.00  0.00    +0.002 A 
ATOM      8  C   UNL     1      41.225 -38.072 -30.164  0.00  0.00    -0.053 A 
ATOM      9  C   UNL     1      42.387 -38.111 -30.943  0.00  0.00    -0.061 A 
ATOM     10  C   UNL     1      42.451 -37.403 -32.139  0.00  0.00    -0.062 A 
ATOM     11  C   UNL     1      41.353 -36.659 -32.559  0.00  0.00    -0.061 A 
ATOM     12  C   UNL     1      40.193 -36.623 -31.779  0.00  0.00    -0.053 A 
ENDBRANCH   4   7
BRANCH   1  13
ATOM     13  N   UNL     1      35.265 -36.863 -27.734  0.00  0.00    -0.326 N 
ATOM     14  H   UNL     1      34.576 -36.261 -28.101  0.00  0.00    +0.000 HD
BRANCH  13  15
ATOM     15  C   UNL     1      35.039 -37.613 -26.492  0.00  0.00    +0.026 C 
BRANCH  15  20
ATOM     16  N   UNL     1      33.779 -39.347 -27.875  0.00  0.00    -0.298 N 
ATOM     17  C   UNL     1      32.405 -39.863 -27.932  0.00  0.00    -0.001 C 
ATOM     18  C   UNL     1      31.564 -38.702 -27.438  0.00  0.00    -0.039 C 
ATOM     19  C   UNL     1      32.492 -37.892 -26.546  0.00  0.00    -0.035 C 
ATOM     20  C   UNL     1      33.850 -38.605 -26.593  0.00  0.00    +0.026 C 
ATOM     21  H   UNL     1      33.997 -38.743 -28.668  0.00  0.00    +0.000 HD
BRANCH  16  23
ATOM     22  C   UNL     1      35.288 -40.630 -29.384  0.00  0.00    -0.052 C 
ATOM     23  C   UNL     1      34.775 -40.425 -27.961  0.00  0.00    -0.004 C 
ENDBRANCH  16  23
ENDBRANCH  15  20
ENDBRANCH  13  15
ENDBRANCH   1  13
TORSDOF 5
ENDMDL
MODEL 16
REMARK VINA RESULT:    -7.061      1.372      2.649
REMARK INTER + INTRA:          -9.639
REMARK INTER:                  -9.107
REMARK INTRA:                  -0.532
REMARK UNBOUND:                -0.514
REMARK  Name = cpd257.pdb
REMARK  6 active torsions:
REMARK  status: ('A' for Active; 'I' for Inactive)
REMARK    1  A    between atoms: C_1  and  C_2
REMARK    2  A    between atoms: C_2  and  N_3
REMARK    3  A    between atoms: C_7  and  C_8
REMARK    4  A    between atoms: C_8  and  N_9
REMARK    5  A    between atoms: N_9  and  C_10
REMARK    6  A    between atoms: C_13  and  C_14
REMARK                            x       y       z     vdW  Elec       q    Type
REMARK                         _______ _______ _______ _____ _____    ______ ____
ROOT
ATOM      1  C   UNL     1      42.857 -37.238 -30.751  0.00  0.00    +0.141 A 
ATOM      2  C   UNL     1      42.216 -36.352 -31.597  0.00  0.00    -0.018 A 
ATOM      3  C   UNL     1      40.836 -36.172 -31.487  0.00  0.00    -0.031 A 
ATOM      4  C   UNL     1      40.129 -36.881 -30.526  0.00  0.00    +0.093 A 
ATOM      5  N   UNL     1      40.788 -37.722 -29.699  0.00  0.00    -0.147 NA
ATOM      6  N   UNL     1      42.155 -37.892 -29.809  0.00  0.00    -0.134 NA
ENDROOT
BRANCH   4   7
ATOM      7  C   UNL     1      38.672 -36.769 -30.328  0.00  0.00    +0.002 A 
ATOM      8  C   UNL     1      37.968 -37.620 -29.457  0.00  0.00    -0.053 A 
ATOM      9  C   UNL     1      36.585 -37.501 -29.281  0.00  0.00    -0.061 A 
ATOM     10  C   UNL     1      35.874 -36.524 -29.972  0.00  0.00    -0.062 A 
ATOM     11  C   UNL     1      36.546 -35.663 -30.834  0.00  0.00    -0.061 A 
ATOM     12  C   UNL     1      37.928 -35.784 -31.006  0.00  0.00    -0.053 A 
ENDBRANCH   4   7
BRANCH   1  13
ATOM     13  N   UNL     1      44.229 -37.470 -30.805  0.00  0.00    -0.326 N 
ATOM     14  H   UNL     1      44.747 -37.281 -31.621  0.00  0.00    +0.000 HD
BRANCH  13  15
ATOM     15  C   UNL     1      44.873 -38.008 -29.601  0.00  0.00    +0.026 C 
BRANCH  15  20
ATOM     16  N   UNL     1      46.823 -39.551 -29.031  0.00  0.00    -0.298 N 
ATOM     17  C   UNL     1      48.289 -39.463 -29.062  0.00  0.00    -0.001 C 
ATOM     18  C   UNL     1      48.565 -37.984 -28.872  0.00  0.00    -0.039 C 
ATOM     19  C   UNL     1      47.322 -37.279 -29.394  0.00  0.00    -0.035 C 
ATOM     20  C   UNL     1      46.359 -38.392 -29.831  0.00  0.00    +0.026 C 
ATOM     21  H   UNL     1      46.455 -39.519 -28.080  0.00  0.00    +0.000 HD
BRANCH  16  23
ATOM     22  C   UNL     1      45.478 -41.590 -28.550  0.00  0.00    -0.052 C 
ATOM     23  C   UNL     1      46.338 -40.834 -29.559  0.00  0.00    -0.004 C 
ENDBRANCH  16  23
ENDBRANCH  15  20
ENDBRANCH  13  15
ENDBRANCH   1  13
TORSDOF 5
ENDMDL
MODEL 17
REMARK VINA RESULT:    -6.999      4.673     10.526
REMARK INTER + INTRA:          -9.558
REMARK INTER:                  -8.958
REMARK INTRA:                  -0.600
REMARK UNBOUND:                -0.514
REMARK  Name = cpd257.pdb
REMARK  6 active torsions:
REMARK  status: ('A' for Active; 'I' for Inactive)
REMARK    1  A    between atoms: C_1  and  C_2
REMARK    2  A    between atoms: C_2  and  N_3
REMARK    3  A    between atoms: C_7  and  C_8
REMARK    4  A    between atoms: C_8  and  N_9
REMARK    5  A    between atoms: N_9  and  C_10
REMARK    6  A    between atoms: C_13  and  C_14
REMARK                            x       y       z     vdW  Elec       q    Type
REMARK                         _______ _______ _______ _____ _____    ______ ____
ROOT
ATOM      1  C   UNL     1      36.054 -36.799 -28.470  0.00  0.00    +0.141 A 
ATOM      2  C   UNL     1      36.915 -37.687 -27.851  0.00  0.00    -0.018 A 
ATOM      3  C   UNL     1      38.179 -37.916 -28.398  0.00  0.00    -0.031 A 
ATOM      4  C   UNL     1      38.555 -37.244 -29.553  0.00  0.00    +0.093 A 
ATOM      5  N   UNL     1      37.701 -36.365 -30.120  0.00  0.00    -0.147 NA
ATOM      6  N   UNL     1      36.453 -36.138 -29.571  0.00  0.00    -0.134 NA
ENDROOT
BRANCH   4   7
ATOM      7  C   UNL     1      39.863 -37.415 -30.213  0.00  0.00    +0.002 A 
ATOM      8  C   UNL     1      40.171 -36.784 -31.434  0.00  0.00    -0.053 A 
ATOM      9  C   UNL     1      41.416 -36.957 -32.048  0.00  0.00    -0.061 A 
ATOM     10  C   UNL     1      42.383 -37.763 -31.455  0.00  0.00    -0.062 A 
ATOM     11  C   UNL     1      42.108 -38.392 -30.244  0.00  0.00    -0.061 A 
ATOM     12  C   UNL     1      40.863 -38.216 -29.632  0.00  0.00    -0.053 A 
ENDBRANCH   4   7
BRANCH   1  13
ATOM     13  N   UNL     1      34.780 -36.525 -27.983  0.00  0.00    -0.326 N 
ATOM     14  H   UNL     1      34.174 -35.909 -28.457  0.00  0.00    +0.000 HD
BRANCH  13  15
ATOM     15  C   UNL     1      34.372 -37.187 -26.738  0.00  0.00    +0.026 C 
BRANCH  15  20
ATOM     16  N   UNL     1      32.475 -37.425 -25.050  0.00  0.00    -0.298 N 
ATOM     17  C   UNL     1      31.072 -37.000 -24.965  0.00  0.00    -0.001 C 
ATOM     18  C   UNL     1      30.634 -36.913 -26.413  0.00  0.00    -0.039 C 
ATOM     19  C   UNL     1      31.909 -36.646 -27.198  0.00  0.00    -0.035 C 
ATOM     20  C   UNL     1      33.043 -36.628 -26.164  0.00  0.00    +0.026 C 
ATOM     21  H   UNL     1      32.564 -38.426 -25.224  0.00  0.00    +0.000 HD
BRANCH  16  23
ATOM     22  C   UNL     1      33.250 -35.746 -23.383  0.00  0.00    -0.052 C 
ATOM     23  C   UNL     1      33.191 -37.217 -23.782  0.00  0.00    -0.004 C 
ENDBRANCH  16  23
ENDBRANCH  15  20
ENDBRANCH  13  15
ENDBRANCH   1  13
TORSDOF 5
ENDMDL
MODEL 18
REMARK VINA RESULT:    -6.962      4.509      7.809
REMARK INTER + INTRA:          -9.510
REMARK INTER:                  -8.873
REMARK INTRA:                  -0.637
REMARK UNBOUND:                -0.514
REMARK  Name = cpd257.pdb
REMARK  6 active torsions:
REMARK  status: ('A' for Active; 'I' for Inactive)
REMARK    1  A    between atoms: C_1  and  C_2
REMARK    2  A    between atoms: C_2  and  N_3
REMARK    3  A    between atoms: C_7  and  C_8
REMARK    4  A    between atoms: C_8  and  N_9
REMARK    5  A    between atoms: N_9  and  C_10
REMARK    6  A    between atoms: C_13  and  C_14
REMARK                            x       y       z     vdW  Elec       q    Type
REMARK                         _______ _______ _______ _____ _____    ______ ____
ROOT
ATOM      1  C   UNL     1      35.841 -35.384 -31.337  0.00  0.00    +0.141 A 
ATOM      2  C   UNL     1      36.186 -34.105 -30.941  0.00  0.00    -0.018 A 
ATOM      3  C   UNL     1      35.196 -33.126 -30.837  0.00  0.00    -0.031 A 
ATOM      4  C   UNL     1      33.879 -33.452 -31.127  0.00  0.00    +0.093 A 
ATOM      5  N   UNL     1      33.570 -34.717 -31.488  0.00  0.00    -0.147 NA
ATOM      6  N   UNL     1      34.553 -35.683 -31.584  0.00  0.00    -0.134 NA
ENDROOT
BRANCH   4   7
ATOM      7  C   UNL     1      32.759 -32.496 -31.051  0.00  0.00    +0.002 A 
ATOM      8  C   UNL     1      32.859 -31.283 -30.344  0.00  0.00    -0.053 A 
ATOM      9  C   UNL     1      31.786 -30.386 -30.282  0.00  0.00    -0.061 A 
ATOM     10  C   UNL     1      30.589 -30.682 -30.928  0.00  0.00    -0.062 A 
ATOM     11  C   UNL     1      30.466 -31.870 -31.641  0.00  0.00    -0.061 A 
ATOM     12  C   UNL     1      31.540 -32.763 -31.703  0.00  0.00    -0.053 A 
ENDBRANCH   4   7
BRANCH   1  13
ATOM     13  N   UNL     1      36.774 -36.408 -31.466  0.00  0.00    -0.326 N 
ATOM     14  H   UNL     1      36.533 -37.345 -31.279  0.00  0.00    +0.000 HD
BRANCH  13  15
ATOM     15  C   UNL     1      38.130 -36.041 -31.893  0.00  0.00    +0.026 C 
BRANCH  15  20
ATOM     16  N   UNL     1      40.424 -36.964 -31.271  0.00  0.00    -0.298 N 
ATOM     17  C   UNL     1      41.068 -37.473 -30.053  0.00  0.00    -0.001 C 
ATOM     18  C   UNL     1      39.914 -38.022 -29.238  0.00  0.00    -0.039 C 
ATOM     19  C   UNL     1      38.695 -37.236 -29.697  0.00  0.00    -0.035 C 
ATOM     20  C   UNL     1      39.196 -36.285 -30.793  0.00  0.00    +0.026 C 
ATOM     21  H   UNL     1      40.205 -37.711 -31.930  0.00  0.00    +0.000 HD
BRANCH  16  23
ATOM     22  C   UNL     1      42.708 -35.984 -31.422  0.00  0.00    -0.052 C 
ATOM     23  C   UNL     1      41.310 -36.068 -32.028  0.00  0.00    -0.004 C 
ENDBRANCH  16  23
ENDBRANCH  15  20
ENDBRANCH  13  15
ENDBRANCH   1  13
TORSDOF 5
ENDMDL
MODEL 19
REMARK VINA RESULT:    -6.878      4.055      7.417
REMARK INTER + INTRA:          -9.402
REMARK INTER:                  -8.773
REMARK INTRA:                  -0.629
REMARK UNBOUND:                -0.514
REMARK  Name = cpd257.pdb
REMARK  6 active torsions:
REMARK  status: ('A' for Active; 'I' for Inactive)
REMARK    1  A    between atoms: C_1  and  C_2
REMARK    2  A    between atoms: C_2  and  N_3
REMARK    3  A    between atoms: C_7  and  C_8
REMARK    4  A    between atoms: C_8  and  N_9
REMARK    5  A    between atoms: N_9  and  C_10
REMARK    6  A    between atoms: C_13  and  C_14
REMARK                            x       y       z     vdW  Elec       q    Type
REMARK                         _______ _______ _______ _____ _____    ______ ____
ROOT
ATOM      1  C   UNL     1      36.065 -36.043 -30.355  0.00  0.00    +0.141 A 
ATOM      2  C   UNL     1      35.332 -36.146 -29.186  0.00  0.00    -0.018 A 
ATOM      3  C   UNL     1      34.356 -35.190 -28.899  0.00  0.00    -0.031 A 
ATOM      4  C   UNL     1      34.130 -34.154 -29.795  0.00  0.00    +0.093 A 
ATOM      5  N   UNL     1      34.846 -34.096 -30.940  0.00  0.00    -0.147 NA
ATOM      6  N   UNL     1      35.807 -35.047 -31.221  0.00  0.00    -0.134 NA
ENDROOT
BRANCH   4   7
ATOM      7  C   UNL     1      33.127 -33.093 -29.588  0.00  0.00    +0.002 A 
ATOM      8  C   UNL     1      33.201 -31.855 -30.255  0.00  0.00    -0.053 A 
ATOM      9  C   UNL     1      32.241 -30.858 -30.047  0.00  0.00    -0.061 A 
ATOM     10  C   UNL     1      31.185 -31.077 -29.168  0.00  0.00    -0.062 A 
ATOM     11  C   UNL     1      31.083 -32.294 -28.502  0.00  0.00    -0.061 A 
ATOM     12  C   UNL     1      32.042 -33.290 -28.713  0.00  0.00    -0.053 A 
ENDBRANCH   4   7
BRANCH   1  13
ATOM     13  N   UNL     1      37.055 -36.957 -30.704  0.00  0.00    -0.326 N 
ATOM     14  H   UNL     1      36.914 -37.612 -31.426  0.00  0.00    +0.000 HD
BRANCH  13  15
ATOM     15  C   UNL     1      38.317 -36.907 -29.955  0.00  0.00    +0.026 C 
BRANCH  15  20
ATOM     16  N   UNL     1      40.854 -36.734 -30.157  0.00  0.00    -0.298 N 
ATOM     17  C   UNL     1      41.803 -36.099 -31.081  0.00  0.00    -0.001 C 
ATOM     18  C   UNL     1      41.033 -34.914 -31.630  0.00  0.00    -0.039 C 
ATOM     19  C   UNL     1      39.568 -35.307 -31.518  0.00  0.00    -0.035 C 
ATOM     20  C   UNL     1      39.554 -36.697 -30.869  0.00  0.00    +0.026 C 
ATOM     21  H   UNL     1      40.803 -36.246 -29.263  0.00  0.00    +0.000 HD
BRANCH  16  23
ATOM     22  C   UNL     1      42.347 -38.643 -30.726  0.00  0.00    -0.052 C 
ATOM     23  C   UNL     1      41.265 -38.098 -29.797  0.00  0.00    -0.004 C 
ENDBRANCH  16  23
ENDBRANCH  15  20
ENDBRANCH  13  15
ENDBRANCH   1  13
TORSDOF 5
ENDMDL
MODEL 20
REMARK VINA RESULT:    -6.648      7.326     13.600
REMARK INTER + INTRA:          -9.105
REMARK INTER:                  -8.298
REMARK INTRA:                  -0.807
REMARK UNBOUND:                -0.514
REMARK  Name = cpd257.pdb
REMARK  6 active torsions:
REMARK  status: ('A' for Active; 'I' for Inactive)
REMARK    1  A    between atoms: C_1  and  C_2
REMARK    2  A    between atoms: C_2  and  N_3
REMARK    3  A    between atoms: C_7  and  C_8
REMARK    4  A    between atoms: C_8  and  N_9
REMARK    5  A    between atoms: N_9  and  C_10
REMARK    6  A    between atoms: C_13  and  C_14
REMARK                            x       y       z     vdW  Elec       q    Type
REMARK                         _______ _______ _______ _____ _____    ______ ____
ROOT
ATOM      1  C   UNL     1      33.394 -31.939 -30.699  0.00  0.00    +0.141 A 
ATOM      2  C   UNL     1      33.218 -32.822 -29.649  0.00  0.00    -0.018 A 
ATOM      3  C   UNL     1      34.112 -33.880 -29.481  0.00  0.00    -0.031 A 
ATOM      4  C   UNL     1      35.169 -34.028 -30.368  0.00  0.00    +0.093 A 
ATOM      5  N   UNL     1      35.328 -33.135 -31.370  0.00  0.00    -0.147 NA
ATOM      6  N   UNL     1      34.443 -32.087 -31.528  0.00  0.00    -0.134 NA
ENDROOT
BRANCH   4   7
ATOM      7  C   UNL     1      36.168 -35.110 -30.283  0.00  0.00    +0.002 A 
ATOM      8  C   UNL     1      37.188 -35.262 -31.241  0.00  0.00    -0.053 A 
ATOM      9  C   UNL     1      38.126 -36.296 -31.147  0.00  0.00    -0.061 A 
ATOM     10  C   UNL     1      38.068 -37.199 -30.090  0.00  0.00    -0.062 A 
ATOM     11  C   UNL     1      37.076 -37.067 -29.124  0.00  0.00    -0.061 A 
ATOM     12  C   UNL     1      36.140 -36.033 -29.220  0.00  0.00    -0.053 A 
ENDBRANCH   4   7
BRANCH   1  13
ATOM     13  N   UNL     1      32.540 -30.865 -30.930  0.00  0.00    -0.326 N 
ATOM     14  H   UNL     1      32.615 -30.320 -31.747  0.00  0.00    +0.000 HD
BRANCH  13  15
ATOM     15  C   UNL     1      31.525 -30.574 -29.910  0.00  0.00    +0.026 C 
BRANCH  15  20
ATOM     16  N   UNL     1      29.843 -31.564 -31.551  0.00  0.00    -0.298 N 
ATOM     17  C   UNL     1      28.617 -31.106 -32.218  0.00  0.00    -0.001 C 
ATOM     18  C   UNL     1      28.799 -29.604 -32.315  0.00  0.00    -0.039 C 
ATOM     19  C   UNL     1      29.732 -29.244 -31.168  0.00  0.00    -0.035 C 
ATOM     20  C   UNL     1      30.082 -30.569 -30.478  0.00  0.00    +0.026 C 
ATOM     21  H   UNL     1      30.633 -31.617 -32.193  0.00  0.00    +0.000 HD
BRANCH  16  23
ATOM     22  C   UNL     1      28.697 -33.030 -29.896  0.00  0.00    -0.052 C 
ATOM     23  C   UNL     1      29.709 -32.934 -31.034  0.00  0.00    -0.004 C 
ENDBRANCH  16  23
ENDBRANCH  15  20
ENDBRANCH  13  15
ENDBRANCH   1  13
TORSDOF 5
ENDMDL
