REMARK  Name = cpd257.pdb
REMARK  6 active torsions:
REMARK  status: ('A' for Active; 'I' for Inactive)
REMARK    1  A    between atoms: C_1  and  C_2
REMARK    2  A    between atoms: C_2  and  N_3
REMARK    3  A    between atoms: C_7  and  C_8
REMARK    4  A    between atoms: C_8  and  N_9
REMARK    5  A    between atoms: N_9  and  C_10
REMARK    6  A    between atoms: C_13  and  C_14
REMARK                            x       y       z     vdW  Elec       q    Type
REMARK                         _______ _______ _______ _____ _____    ______ ____
ROOT
ATOM      1  C   UNL     1       0.635  -0.274  -0.300  0.00  0.00    +0.141 A 
ATOM      2  C   UNL     1       0.092  -0.775  -1.469  0.00  0.00    -0.018 A 
ATOM      3  C   UNL     1      -1.196  -1.313  -1.455  0.00  0.00    -0.031 A 
ATOM      4  C   UNL     1      -1.915  -1.332  -0.268  0.00  0.00    +0.093 A 
ATOM      5  N   UNL     1      -1.366  -0.813   0.852  0.00  0.00    -0.147 NA
ATOM      6  N   UNL     1      -0.093  -0.277   0.831  0.00  0.00    -0.134 NA
ENDROOT
BRANCH   4   7
ATOM      7  C   UNL     1      -3.279  -1.879  -0.142  0.00  0.00    +0.002 A 
ATOM      8  C   UNL     1      -3.727  -2.958  -0.927  0.00  0.00    -0.053 A 
ATOM      9  C   UNL     1      -5.025  -3.464  -0.796  0.00  0.00    -0.061 A 
ATOM     10  C   UNL     1      -5.904  -2.904   0.126  0.00  0.00    -0.062 A 
ATOM     11  C   UNL     1      -5.485  -1.842   0.921  0.00  0.00    -0.061 A 
ATOM     12  C   UNL     1      -4.187  -1.339   0.789  0.00  0.00    -0.053 A 
ENDBRANCH   4   7
BRANCH   1  13
ATOM     13  N   UNL     1       1.913   0.274  -0.239  0.00  0.00    -0.326 N 
ATOM     14  H   UNL     1       2.062   1.185   0.104  0.00  0.00    +0.000 HD
BRANCH  13  15
ATOM     15  C   UNL     1       3.030  -0.557  -0.705  0.00  0.00    +0.026 C 
BRANCH  15  20
ATOM     16  N   UNL     1       4.772  -2.259   0.052  0.00  0.00    -0.298 N 
ATOM     17  C   UNL     1       4.774  -3.488   0.856  0.00  0.00    -0.001 C 
ATOM     18  C   UNL     1       3.375  -4.042   0.671  0.00  0.00    -0.039 C 
ATOM     19  C   UNL     1       2.509  -2.832   0.354  0.00  0.00    -0.035 C 
ATOM     20  C   UNL     1       3.460  -1.628   0.332  0.00  0.00    +0.026 C 
ATOM     21  H   UNL     1       4.889  -2.450  -0.943  0.00  0.00    +0.000 HD
BRANCH  16  23
ATOM     22  C   UNL     1       7.248  -2.001   0.006  0.00  0.00    -0.052 C 
ATOM     23  C   UNL     1       5.905  -1.383   0.384  0.00  0.00    -0.004 C 
ENDBRANCH  16  23
ENDBRANCH  15  20
ENDBRANCH  13  15
ENDBRANCH   1  13
TORSDOF 5
