REMARK  Name = cpd73.pdb
REMARK  17 active torsions:
REMARK  status: ('A' for Active; 'I' for Inactive)
REMARK    1  A    between atoms: C_1  and  O_2
REMARK    2  A    between atoms: O_2  and  C_3
REMARK    3  A    between atoms: C_5  and  C_6
REMARK    4  A    between atoms: N_8  and  C_9
REMARK    5  A    between atoms: C_9  and  C_10
REMARK    6  A    between atoms: C_10  and  C_11
REMARK    7  A    between atoms: C_11  and  C_12
REMARK    8  A    between atoms: C_12  and  C_13
REMARK    9  A    between atoms: C_13  and  C_14
REMARK   10  A    between atoms: C_14  and  C_15
REMARK   11  A    between atoms: C_15  and  C_16
REMARK   12  A    between atoms: N_18  and  N_19
REMARK   13  A    between atoms: N_19  and  C_20
REMARK   14  A    between atoms: C_35  and  O_36
REMARK   15  A    between atoms: O_36  and  C_37
REMARK   16  A    between atoms: C_38  and  O_39
REMARK   17  A    between atoms: O_39  and  C_40
REMARK                            x       y       z     vdW  Elec       q    Type
REMARK                         _______ _______ _______ _____ _____    ______ ____
ROOT
ATOM      1  C   UNL A   1      -8.619  -2.205  -2.149  0.00  0.00    -0.045 C 
ENDROOT
BRANCH   1   2
ATOM      2  C   UNL A   1      -7.534  -2.822  -1.261  0.00  0.00    -0.053 C 
BRANCH   2   3
ATOM      3  C   UNL A   1      -6.209  -2.067  -1.386  0.00  0.00    -0.053 C 
BRANCH   3   4
ATOM      4  C   UNL A   1      -5.131  -2.701  -0.505  0.00  0.00    -0.052 C 
BRANCH   4   5
ATOM      5  C   UNL A   1      -3.798  -1.963  -0.628  0.00  0.00    -0.037 C 
BRANCH   5   6
ATOM      6  C   UNL A   1      -2.727  -2.613   0.246  0.00  0.00    +0.012 C 
BRANCH   6   9
ATOM      7  C   UNL A   1      -1.140  -0.818   0.832  0.00  0.00    +0.244 C 
ATOM      8  O   UNL A   1      -1.896  -0.306   1.648  0.00  0.00    -0.270 OA
ATOM      9  N   UNL A   1      -1.446  -1.951   0.106  0.00  0.00    -0.311 N 
ATOM     10  H   UNL A   1      -0.780  -2.317  -0.520  0.00  0.00    +0.000 HD
BRANCH   7  13
ATOM     11  C   UNL A   1       2.518  -0.352  -0.062  0.00  0.00    +0.166 A 
ATOM     12  C   UNL A   1       1.293  -0.969   0.197  0.00  0.00    -0.004 A 
ATOM     13  C   UNL A   1       0.179  -0.193   0.547  0.00  0.00    +0.044 A 
ATOM     14  C   UNL A   1       0.287   1.200   0.667  0.00  0.00    -0.004 A 
ATOM     15  C   UNL A   1       1.502   1.833   0.411  0.00  0.00    +0.166 A 
ATOM     16  C   UNL A   1       2.614   1.047   0.058  0.00  0.00    +0.204 A 
BRANCH  11  18
ATOM     17  C   UNL A   1       3.596  -2.416  -0.602  0.00  0.00    +0.079 C 
ATOM     18  O   UNL A   1       3.668  -1.010  -0.416  0.00  0.00    -0.491 OA
ENDBRANCH  11  18
BRANCH  15  19
ATOM     19  O   UNL A   1       1.712   3.186   0.482  0.00  0.00    -0.491 OA
ATOM     20  C   UNL A   1       0.597   4.006   0.807  0.00  0.00    +0.079 C 
ENDBRANCH  15  19
BRANCH  16  21
ATOM     21  O   UNL A   1       3.808   1.664  -0.246  0.00  0.00    -0.488 OA
ATOM     22  C   UNL A   1       4.593   1.808   0.936  0.00  0.00    +0.079 C 
ENDBRANCH  16  21
ENDBRANCH   7  13
ENDBRANCH   6   9
ENDBRANCH   5   6
ENDBRANCH   4   5
ENDBRANCH   3   4
ENDBRANCH   2   3
ENDBRANCH   1   2
BRANCH   1  23
ATOM     23  C   UNL A   1      -9.935  -2.977  -2.065  0.00  0.00    +0.025 C 
BRANCH  23  24
ATOM     24  C   UNL A   1     -10.656  -2.783  -0.745  0.00  0.00    +0.229 C 
ATOM     25  O   UNL A   1     -10.466  -1.835   0.014  0.00  0.00    -0.274 OA
ATOM     26  N   UNL A   1     -11.611  -3.756  -0.503  0.00  0.00    -0.236 N 
ATOM     27  H   UNL A   1     -11.875  -4.404  -1.195  0.00  0.00    +0.000 HD
BRANCH  26  28
ATOM     28  N   UNL A   1     -12.190  -3.772   0.791  0.00  0.00    -0.264 N 
ATOM     29  H   UNL A   1     -11.694  -3.660   1.634  0.00  0.00    +0.000 HD
BRANCH  28  30
ATOM     30  C   UNL A   1     -13.602  -3.976   0.688  0.00  0.00    +0.058 A 
ATOM     31  C   UNL A   1     -14.090  -5.296   0.773  0.00  0.00    -0.003 A 
ATOM     32  C   UNL A   1     -15.456  -5.496   0.580  0.00  0.00    +0.047 A 
ATOM     33  N   UNL A   1     -16.321  -4.484   0.337  0.00  0.00    -0.251 NA
ATOM     34  C   UNL A   1     -15.855  -3.230   0.253  0.00  0.00    +0.073 A 
ATOM     35  C   UNL A   1     -16.769  -2.217  -0.010  0.00  0.00    -0.036 A 
ATOM     36  C   UNL A   1     -16.381  -0.882  -0.129  0.00  0.00    -0.060 A 
ATOM     37  C   UNL A   1     -15.045  -0.543   0.014  0.00  0.00    -0.061 A 
ATOM     38  C   UNL A   1     -14.109  -1.542   0.281  0.00  0.00    -0.051 A 
ATOM     39  C   UNL A   1     -14.494  -2.902   0.411  0.00  0.00    +0.023 A 
ATOM     40  C   UNL A   1     -16.080  -6.863   0.691  0.00  0.00    -0.010 C 
ATOM     41  C   UNL A   1     -15.075  -8.000   0.546  0.00  0.00    -0.047 C 
ATOM     42  C   UNL A   1     -13.871  -7.743   1.441  0.00  0.00    -0.049 C 
ATOM     43  C   UNL A   1     -13.159  -6.458   1.023  0.00  0.00    -0.024 C 
ENDBRANCH  28  30
ENDBRANCH  26  28
ENDBRANCH  23  24
ENDBRANCH   1  23
TORSDOF 14
