MODEL 1
REMARK VINA RESULT:    -9.633      0.000      0.000
REMARK INTER + INTRA:         -18.081
REMARK INTER:                 -17.517
REMARK INTRA:                  -0.564
REMARK UNBOUND:                -0.564
REMARK  Name = cpd73.pdb
REMARK  17 active torsions:
REMARK  status: ('A' for Active; 'I' for Inactive)
REMARK    1  A    between atoms: C_1  and  O_2
REMARK    2  A    between atoms: O_2  and  C_3
REMARK    3  A    between atoms: C_5  and  C_6
REMARK    4  A    between atoms: N_8  and  C_9
REMARK    5  A    between atoms: C_9  and  C_10
REMARK    6  A    between atoms: C_10  and  C_11
REMARK    7  A    between atoms: C_11  and  C_12
REMARK    8  A    between atoms: C_12  and  C_13
REMARK    9  A    between atoms: C_13  and  C_14
REMARK   10  A    between atoms: C_14  and  C_15
REMARK   11  A    between atoms: C_15  and  C_16
REMARK   12  A    between atoms: N_18  and  N_19
REMARK   13  A    between atoms: N_19  and  C_20
REMARK   14  A    between atoms: C_35  and  O_36
REMARK   15  A    between atoms: O_36  and  C_37
REMARK   16  A    between atoms: C_38  and  O_39
REMARK   17  A    between atoms: O_39  and  C_40
REMARK                            x       y       z     vdW  Elec       q    Type
REMARK                         _______ _______ _______ _____ _____    ______ ____
ROOT
ATOM      1  C   UNL A   1      43.641 -37.165 -31.240  0.00  0.00    -0.045 C 
ENDROOT
BRANCH   1   2
ATOM      2  C   UNL A   1      42.149 -37.089 -30.902  0.00  0.00    -0.053 C 
BRANCH   2   3
ATOM      3  C   UNL A   1      41.366 -36.335 -31.979  0.00  0.00    -0.053 C 
BRANCH   3   4
ATOM      4  C   UNL A   1      41.015 -34.921 -31.513  0.00  0.00    -0.052 C 
BRANCH   4   5
ATOM      5  C   UNL A   1      39.570 -34.558 -31.857  0.00  0.00    -0.037 C 
BRANCH   5   6
ATOM      6  C   UNL A   1      38.648 -35.765 -31.699  0.00  0.00    +0.012 C 
BRANCH   6   9
ATOM      7  C   UNL A   1      36.656 -35.743 -30.244  0.00  0.00    +0.244 C 
ATOM      8  O   UNL A   1      37.190 -36.410 -29.367  0.00  0.00    -0.270 OA
ATOM      9  N   UNL A   1      37.285 -35.365 -31.413  0.00  0.00    -0.311 N 
ATOM     10  H   UNL A   1      36.798 -34.812 -32.066  0.00  0.00    +0.000 HD
BRANCH   7  13
ATOM     11  C   UNL A   1      33.547 -33.644 -29.671  0.00  0.00    +0.166 A 
ATOM     12  C   UNL A   1      34.890 -34.002 -29.801  0.00  0.00    -0.004 A 
ATOM     13  C   UNL A   1      35.235 -35.327 -30.101  0.00  0.00    +0.044 A 
ATOM     14  C   UNL A   1      34.244 -36.309 -30.246  0.00  0.00    -0.004 A 
ATOM     15  C   UNL A   1      32.898 -35.970 -30.120  0.00  0.00    +0.166 A 
ATOM     16  C   UNL A   1      32.561 -34.637 -29.821  0.00  0.00    +0.204 A 
BRANCH  11  18
ATOM     17  C   UNL A   1      33.012 -31.450 -30.454  0.00  0.00    +0.079 C 
ATOM     18  O   UNL A   1      33.096 -32.381 -29.385  0.00  0.00    -0.491 OA
ENDBRANCH  11  18
BRANCH  15  19
ATOM     19  O   UNL A   1      31.852 -36.845 -30.259  0.00  0.00    -0.491 OA
ATOM     20  C   UNL A   1      31.651 -37.428 -31.540  0.00  0.00    +0.079 C 
ENDBRANCH  15  19
BRANCH  16  21
ATOM     21  O   UNL A   1      31.233 -34.278 -29.743  0.00  0.00    -0.488 OA
ATOM     22  C   UNL A   1      30.736 -34.542 -28.433  0.00  0.00    +0.079 C 
ENDBRANCH  16  21
ENDBRANCH   7  13
ENDBRANCH   6   9
ENDBRANCH   5   6
ENDBRANCH   4   5
ENDBRANCH   3   4
ENDBRANCH   2   3
ENDBRANCH   1   2
BRANCH   1  23
ATOM     23  C   UNL A   1      44.397 -35.919 -30.781  0.00  0.00    +0.025 C 
BRANCH  23  24
ATOM     24  C   UNL A   1      45.703 -36.239 -30.082  0.00  0.00    +0.229 C 
ATOM     25  O   UNL A   1      46.764 -35.656 -30.297  0.00  0.00    -0.274 OA
ATOM     26  N   UNL A   1      45.572 -37.222 -29.115  0.00  0.00    -0.236 N 
ATOM     27  H   UNL A   1      44.690 -37.553 -28.832  0.00  0.00    +0.000 HD
BRANCH  26  28
ATOM     28  N   UNL A   1      46.772 -37.727 -28.554  0.00  0.00    -0.264 N 
ATOM     29  H   UNL A   1      47.155 -37.447 -27.691  0.00  0.00    +0.000 HD
BRANCH  28  30
ATOM     30  C   UNL A   1      47.343 -38.704 -29.429  0.00  0.00    +0.058 A 
ATOM     31  C   UNL A   1      46.569 -39.836 -29.755  0.00  0.00    -0.003 A 
ATOM     32  C   UNL A   1      47.165 -40.827 -30.533  0.00  0.00    +0.047 A 
ATOM     33  N   UNL A   1      48.434 -40.736 -30.996  0.00  0.00    -0.251 NA
ATOM     34  C   UNL A   1      49.170 -39.660 -30.681  0.00  0.00    +0.073 A 
ATOM     35  C   UNL A   1      50.472 -39.605 -31.163  0.00  0.00    -0.036 A 
ATOM     36  C   UNL A   1      51.322 -38.535 -30.880  0.00  0.00    -0.060 A 
ATOM     37  C   UNL A   1      50.865 -37.490 -30.093  0.00  0.00    -0.061 A 
ATOM     38  C   UNL A   1      49.561 -37.521 -29.600  0.00  0.00    -0.051 A 
ATOM     39  C   UNL A   1      48.686 -38.601 -29.888  0.00  0.00    +0.023 A 
ATOM     40  C   UNL A   1      46.408 -42.055 -30.969  0.00  0.00    -0.010 C 
ATOM     41  C   UNL A   1      45.173 -42.336 -30.121  0.00  0.00    -0.047 C 
ATOM     42  C   UNL A   1      44.350 -41.065 -29.970  0.00  0.00    -0.049 C 
ATOM     43  C   UNL A   1      45.156 -39.989 -29.245  0.00  0.00    -0.024 C 
ENDBRANCH  28  30
ENDBRANCH  26  28
ENDBRANCH  23  24
ENDBRANCH   1  23
TORSDOF 14
ENDMDL
MODEL 2
REMARK VINA RESULT:    -8.615      5.920     10.291
REMARK INTER + INTRA:         -16.229
REMARK INTER:                 -13.798
REMARK INTRA:                  -2.432
REMARK UNBOUND:                -0.564
REMARK  Name = cpd73.pdb
REMARK  17 active torsions:
REMARK  status: ('A' for Active; 'I' for Inactive)
REMARK    1  A    between atoms: C_1  and  O_2
REMARK    2  A    between atoms: O_2  and  C_3
REMARK    3  A    between atoms: C_5  and  C_6
REMARK    4  A    between atoms: N_8  and  C_9
REMARK    5  A    between atoms: C_9  and  C_10
REMARK    6  A    between atoms: C_10  and  C_11
REMARK    7  A    between atoms: C_11  and  C_12
REMARK    8  A    between atoms: C_12  and  C_13
REMARK    9  A    between atoms: C_13  and  C_14
REMARK   10  A    between atoms: C_14  and  C_15
REMARK   11  A    between atoms: C_15  and  C_16
REMARK   12  A    between atoms: N_18  and  N_19
REMARK   13  A    between atoms: N_19  and  C_20
REMARK   14  A    between atoms: C_35  and  O_36
REMARK   15  A    between atoms: O_36  and  C_37
REMARK   16  A    between atoms: C_38  and  O_39
REMARK   17  A    between atoms: O_39  and  C_40
REMARK                            x       y       z     vdW  Elec       q    Type
REMARK                         _______ _______ _______ _____ _____    ______ ____
ROOT
ATOM      1  C   UNL A   1      31.953 -35.717 -32.463  0.00  0.00    -0.045 C 
ENDROOT
BRANCH   1   2
ATOM      2  C   UNL A   1      32.221 -36.811 -31.425  0.00  0.00    -0.053 C 
BRANCH   2   3
ATOM      3  C   UNL A   1      32.088 -38.208 -32.034  0.00  0.00    -0.053 C 
BRANCH   3   4
ATOM      4  C   UNL A   1      33.438 -38.713 -32.548  0.00  0.00    -0.052 C 
BRANCH   4   5
ATOM      5  C   UNL A   1      34.538 -38.545 -31.499  0.00  0.00    -0.037 C 
BRANCH   5   6
ATOM      6  C   UNL A   1      35.396 -39.804 -31.397  0.00  0.00    +0.012 C 
BRANCH   6   9
ATOM      7  C   UNL A   1      34.267 -41.494 -29.999  0.00  0.00    +0.244 C 
ATOM      8  O   UNL A   1      33.563 -41.899 -30.916  0.00  0.00    -0.270 OA
ATOM      9  N   UNL A   1      35.200 -40.486 -30.134  0.00  0.00    -0.311 N 
ATOM     10  H   UNL A   1      35.743 -40.225 -29.355  0.00  0.00    +0.000 HD
BRANCH   7  13
ATOM     11  C   UNL A   1      33.778 -43.948 -27.147  0.00  0.00    +0.166 A 
ATOM     12  C   UNL A   1      33.923 -43.442 -28.440  0.00  0.00    -0.004 A 
ATOM     13  C   UNL A   1      34.112 -42.066 -28.636  0.00  0.00    +0.044 A 
ATOM     14  C   UNL A   1      34.130 -41.185 -27.546  0.00  0.00    -0.004 A 
ATOM     15  C   UNL A   1      33.989 -41.672 -26.248  0.00  0.00    +0.166 A 
ATOM     16  C   UNL A   1      33.802 -43.054 -26.060  0.00  0.00    +0.204 A 
BRANCH  11  18
ATOM     17  C   UNL A   1      32.530 -45.959 -27.481  0.00  0.00    +0.079 C 
ATOM     18  O   UNL A   1      33.594 -45.271 -26.839  0.00  0.00    -0.491 OA
ENDBRANCH  11  18
BRANCH  15  19
ATOM     19  O   UNL A   1      34.009 -40.902 -25.114  0.00  0.00    -0.491 OA
ATOM     20  C   UNL A   1      33.278 -39.683 -25.136  0.00  0.00    +0.079 C 
ENDBRANCH  15  19
BRANCH  16  21
ATOM     21  O   UNL A   1      33.710 -43.555 -24.780  0.00  0.00    -0.488 OA
ATOM     22  C   UNL A   1      32.346 -43.577 -24.365  0.00  0.00    +0.079 C 
ENDBRANCH  16  21
ENDBRANCH   7  13
ENDBRANCH   6   9
ENDBRANCH   5   6
ENDBRANCH   4   5
ENDBRANCH   3   4
ENDBRANCH   2   3
ENDBRANCH   1   2
BRANCH   1  23
ATOM     23  C   UNL A   1      33.226 -35.301 -33.198  0.00  0.00    +0.025 C 
BRANCH  23  24
ATOM     24  C   UNL A   1      34.239 -34.621 -32.297  0.00  0.00    +0.229 C 
ATOM     25  O   UNL A   1      34.008 -33.612 -31.634  0.00  0.00    -0.274 OA
ATOM     26  N   UNL A   1      35.448 -35.294 -32.240  0.00  0.00    -0.236 N 
ATOM     27  H   UNL A   1      35.560 -36.189 -32.632  0.00  0.00    +0.000 HD
BRANCH  26  28
ATOM     28  N   UNL A   1      36.517 -34.629 -31.587  0.00  0.00    -0.264 N 
ATOM     29  H   UNL A   1      36.740 -33.676 -31.695  0.00  0.00    +0.000 HD
BRANCH  28  30
ATOM     30  C   UNL A   1      37.222 -35.549 -30.750  0.00  0.00    +0.058 A 
ATOM     31  C   UNL A   1      38.530 -35.920 -31.124  0.00  0.00    -0.003 A 
ATOM     32  C   UNL A   1      39.175 -36.886 -30.354  0.00  0.00    +0.047 A 
ATOM     33  N   UNL A   1      38.610 -37.459 -29.267  0.00  0.00    -0.251 NA
ATOM     34  C   UNL A   1      37.365 -37.109 -28.914  0.00  0.00    +0.073 A 
ATOM     35  C   UNL A   1      36.811 -37.726 -27.799  0.00  0.00    -0.036 A 
ATOM     36  C   UNL A   1      35.518 -37.439 -27.360  0.00  0.00    -0.060 A 
ATOM     37  C   UNL A   1      34.751 -36.513 -28.050  0.00  0.00    -0.061 A 
ATOM     38  C   UNL A   1      35.287 -35.878 -29.170  0.00  0.00    -0.051 A 
ATOM     39  C   UNL A   1      36.603 -36.158 -29.621  0.00  0.00    +0.023 A 
ATOM     40  C   UNL A   1      40.588 -37.320 -30.649  0.00  0.00    -0.010 C 
ATOM     41  C   UNL A   1      41.036 -36.995 -32.069  0.00  0.00    -0.047 C 
ATOM     42  C   UNL A   1      40.702 -35.547 -32.398  0.00  0.00    -0.049 C 
ATOM     43  C   UNL A   1      39.192 -35.321 -32.341  0.00  0.00    -0.024 C 
ENDBRANCH  28  30
ENDBRANCH  26  28
ENDBRANCH  23  24
ENDBRANCH   1  23
TORSDOF 14
ENDMDL
MODEL 3
REMARK VINA RESULT:    -8.427      5.833     10.172
REMARK INTER + INTRA:         -15.888
REMARK INTER:                 -13.215
REMARK INTRA:                  -2.673
REMARK UNBOUND:                -0.564
REMARK  Name = cpd73.pdb
REMARK  17 active torsions:
REMARK  status: ('A' for Active; 'I' for Inactive)
REMARK    1  A    between atoms: C_1  and  O_2
REMARK    2  A    between atoms: O_2  and  C_3
REMARK    3  A    between atoms: C_5  and  C_6
REMARK    4  A    between atoms: N_8  and  C_9
REMARK    5  A    between atoms: C_9  and  C_10
REMARK    6  A    between atoms: C_10  and  C_11
REMARK    7  A    between atoms: C_11  and  C_12
REMARK    8  A    between atoms: C_12  and  C_13
REMARK    9  A    between atoms: C_13  and  C_14
REMARK   10  A    between atoms: C_14  and  C_15
REMARK   11  A    between atoms: C_15  and  C_16
REMARK   12  A    between atoms: N_18  and  N_19
REMARK   13  A    between atoms: N_19  and  C_20
REMARK   14  A    between atoms: C_35  and  O_36
REMARK   15  A    between atoms: O_36  and  C_37
REMARK   16  A    between atoms: C_38  and  O_39
REMARK   17  A    between atoms: O_39  and  C_40
REMARK                            x       y       z     vdW  Elec       q    Type
REMARK                         _______ _______ _______ _____ _____    ______ ____
ROOT
ATOM      1  C   UNL A   1      34.838 -40.931 -30.496  0.00  0.00    -0.045 C 
ENDROOT
BRANCH   1   2
ATOM      2  C   UNL A   1      35.298 -39.986 -31.610  0.00  0.00    -0.053 C 
BRANCH   2   3
ATOM      3  C   UNL A   1      34.656 -38.603 -31.474  0.00  0.00    -0.053 C 
BRANCH   3   4
ATOM      4  C   UNL A   1      33.431 -38.655 -30.559  0.00  0.00    -0.052 C 
BRANCH   4   5
ATOM      5  C   UNL A   1      32.277 -37.822 -31.118  0.00  0.00    -0.037 C 
BRANCH   5   6
ATOM      6  C   UNL A   1      31.119 -38.715 -31.560  0.00  0.00    +0.012 C 
BRANCH   6   9
ATOM      7  C   UNL A   1      31.628 -41.055 -32.152  0.00  0.00    +0.244 C 
ATOM      8  O   UNL A   1      31.326 -41.485 -31.046  0.00  0.00    -0.270 OA
ATOM      9  N   UNL A   1      31.551 -39.723 -32.507  0.00  0.00    -0.311 N 
ATOM     10  H   UNL A   1      31.794 -39.453 -33.422  0.00  0.00    +0.000 HD
BRANCH   7  13
ATOM     11  C   UNL A   1      32.387 -44.198 -34.137  0.00  0.00    +0.166 A 
ATOM     12  C   UNL A   1      31.879 -43.355 -33.148  0.00  0.00    -0.004 A 
ATOM     13  C   UNL A   1      32.152 -41.981 -33.192  0.00  0.00    +0.044 A 
ATOM     14  C   UNL A   1      32.955 -41.443 -34.208  0.00  0.00    -0.004 A 
ATOM     15  C   UNL A   1      33.470 -42.270 -35.205  0.00  0.00    +0.166 A 
ATOM     16  C   UNL A   1      33.189 -43.647 -35.154  0.00  0.00    +0.204 A 
BRANCH  11  18
ATOM     17  C   UNL A   1      32.675 -46.345 -33.127  0.00  0.00    +0.079 C 
ATOM     18  O   UNL A   1      32.180 -45.553 -34.196  0.00  0.00    -0.491 OA
ENDBRANCH  11  18
BRANCH  15  19
ATOM     19  O   UNL A   1      34.249 -41.846 -36.250  0.00  0.00    -0.491 OA
ATOM     20  C   UNL A   1      33.597 -41.565 -37.482  0.00  0.00    +0.079 C 
ENDBRANCH  15  19
BRANCH  16  21
ATOM     21  O   UNL A   1      33.650 -44.468 -36.161  0.00  0.00    -0.488 OA
ATOM     22  C   UNL A   1      34.917 -45.013 -35.798  0.00  0.00    +0.079 C 
ENDBRANCH  16  21
ENDBRANCH   7  13
ENDBRANCH   6   9
ENDBRANCH   5   6
ENDBRANCH   4   5
ENDBRANCH   3   4
ENDBRANCH   2   3
ENDBRANCH   1   2
BRANCH   1  23
ATOM     23  C   UNL A   1      35.947 -41.201 -29.480  0.00  0.00    +0.025 C 
BRANCH  23  24
ATOM     24  C   UNL A   1      36.265 -39.998 -28.612  0.00  0.00    +0.229 C 
ATOM     25  O   UNL A   1      35.555 -39.604 -27.690  0.00  0.00    -0.274 OA
ATOM     26  N   UNL A   1      37.483 -39.416 -28.922  0.00  0.00    -0.236 N 
ATOM     27  H   UNL A   1      38.118 -39.845 -29.539  0.00  0.00    +0.000 HD
BRANCH  26  28
ATOM     28  N   UNL A   1      37.769 -38.173 -28.304  0.00  0.00    -0.264 N 
ATOM     29  H   UNL A   1      37.851 -38.029 -27.334  0.00  0.00    +0.000 HD
BRANCH  28  30
ATOM     30  C   UNL A   1      37.921 -37.159 -29.302  0.00  0.00    +0.058 A 
ATOM     31  C   UNL A   1      36.829 -36.304 -29.551  0.00  0.00    -0.003 A 
ATOM     32  C   UNL A   1      36.952 -35.379 -30.587  0.00  0.00    +0.047 A 
ATOM     33  N   UNL A   1      38.072 -35.261 -31.339  0.00  0.00    -0.251 NA
ATOM     34  C   UNL A   1      39.108 -36.078 -31.103  0.00  0.00    +0.073 A 
ATOM     35  C   UNL A   1      40.236 -35.938 -31.902  0.00  0.00    -0.036 A 
ATOM     36  C   UNL A   1      41.361 -36.748 -31.744  0.00  0.00    -0.060 A 
ATOM     37  C   UNL A   1      41.364 -37.730 -30.766  0.00  0.00    -0.061 A 
ATOM     38  C   UNL A   1      40.245 -37.888 -29.950  0.00  0.00    -0.051 A 
ATOM     39  C   UNL A   1      39.098 -37.064 -30.097  0.00  0.00    +0.023 A 
ATOM     40  C   UNL A   1      35.857 -34.395 -30.905  0.00  0.00    -0.010 C 
ATOM     41  C   UNL A   1      34.496 -34.806 -30.356  0.00  0.00    -0.047 C 
ATOM     42  C   UNL A   1      34.628 -35.206 -28.893  0.00  0.00    -0.049 C 
ATOM     43  C   UNL A   1      35.554 -36.412 -28.751  0.00  0.00    -0.024 C 
ENDBRANCH  28  30
ENDBRANCH  26  28
ENDBRANCH  23  24
ENDBRANCH   1  23
TORSDOF 14
ENDMDL
MODEL 4
REMARK VINA RESULT:    -8.273      5.494      9.574
REMARK INTER + INTRA:         -15.608
REMARK INTER:                 -13.421
REMARK INTRA:                  -2.186
REMARK UNBOUND:                -0.564
REMARK  Name = cpd73.pdb
REMARK  17 active torsions:
REMARK  status: ('A' for Active; 'I' for Inactive)
REMARK    1  A    between atoms: C_1  and  O_2
REMARK    2  A    between atoms: O_2  and  C_3
REMARK    3  A    between atoms: C_5  and  C_6
REMARK    4  A    between atoms: N_8  and  C_9
REMARK    5  A    between atoms: C_9  and  C_10
REMARK    6  A    between atoms: C_10  and  C_11
REMARK    7  A    between atoms: C_11  and  C_12
REMARK    8  A    between atoms: C_12  and  C_13
REMARK    9  A    between atoms: C_13  and  C_14
REMARK   10  A    between atoms: C_14  and  C_15
REMARK   11  A    between atoms: C_15  and  C_16
REMARK   12  A    between atoms: N_18  and  N_19
REMARK   13  A    between atoms: N_19  and  C_20
REMARK   14  A    between atoms: C_35  and  O_36
REMARK   15  A    between atoms: O_36  and  C_37
REMARK   16  A    between atoms: C_38  and  O_39
REMARK   17  A    between atoms: O_39  and  C_40
REMARK                            x       y       z     vdW  Elec       q    Type
REMARK                         _______ _______ _______ _____ _____    ______ ____
ROOT
ATOM      1  C   UNL A   1      34.842 -41.022 -30.464  0.00  0.00    -0.045 C 
ENDROOT
BRANCH   1   2
ATOM      2  C   UNL A   1      35.299 -40.112 -31.608  0.00  0.00    -0.053 C 
BRANCH   2   3
ATOM      3  C   UNL A   1      34.594 -38.755 -31.562  0.00  0.00    -0.053 C 
BRANCH   3   4
ATOM      4  C   UNL A   1      33.192 -38.884 -30.963  0.00  0.00    -0.052 C 
BRANCH   4   5
ATOM      5  C   UNL A   1      32.417 -37.570 -31.056  0.00  0.00    -0.037 C 
BRANCH   5   6
ATOM      6  C   UNL A   1      31.026 -37.792 -31.645  0.00  0.00    +0.012 C 
BRANCH   6   9
ATOM      7  C   UNL A   1      31.550 -37.916 -34.052  0.00  0.00    +0.244 C 
ATOM      8  O   UNL A   1      31.962 -36.765 -34.104  0.00  0.00    -0.270 OA
ATOM      9  N   UNL A   1      31.084 -38.515 -32.899  0.00  0.00    -0.311 N 
ATOM     10  H   UNL A   1      30.785 -39.452 -32.930  0.00  0.00    +0.000 HD
BRANCH   7  13
ATOM     11  C   UNL A   1      30.745 -39.115 -37.561  0.00  0.00    +0.166 A 
ATOM     12  C   UNL A   1      30.780 -38.316 -36.417  0.00  0.00    -0.004 A 
ATOM     13  C   UNL A   1      31.494 -38.741 -35.288  0.00  0.00    +0.044 A 
ATOM     14  C   UNL A   1      32.155 -39.978 -35.285  0.00  0.00    -0.004 A 
ATOM     15  C   UNL A   1      32.132 -40.788 -36.418  0.00  0.00    +0.166 A 
ATOM     16  C   UNL A   1      31.415 -40.352 -37.547  0.00  0.00    +0.204 A 
BRANCH  11  18
ATOM     17  C   UNL A   1      28.671 -38.663 -38.661  0.00  0.00    +0.079 C 
ATOM     18  O   UNL A   1      30.084 -38.796 -38.720  0.00  0.00    -0.491 OA
ENDBRANCH  11  18
BRANCH  15  19
ATOM     19  O   UNL A   1      32.756 -42.004 -36.527  0.00  0.00    -0.491 OA
ATOM     20  C   UNL A   1      33.489 -42.467 -35.400  0.00  0.00    +0.079 C 
ENDBRANCH  15  19
BRANCH  16  21
ATOM     21  O   UNL A   1      31.424 -41.120 -38.692  0.00  0.00    -0.488 OA
ATOM     22  C   UNL A   1      30.343 -42.050 -38.660  0.00  0.00    +0.079 C 
ENDBRANCH  16  21
ENDBRANCH   7  13
ENDBRANCH   6   9
ENDBRANCH   5   6
ENDBRANCH   4   5
ENDBRANCH   3   4
ENDBRANCH   2   3
ENDBRANCH   1   2
BRANCH   1  23
ATOM     23  C   UNL A   1      35.966 -41.294 -29.465  0.00  0.00    +0.025 C 
BRANCH  23  24
ATOM     24  C   UNL A   1      36.298 -40.092 -28.601  0.00  0.00    +0.229 C 
ATOM     25  O   UNL A   1      35.558 -39.640 -27.731  0.00  0.00    -0.274 OA
ATOM     26  N   UNL A   1      37.563 -39.584 -28.846  0.00  0.00    -0.236 N 
ATOM     27  H   UNL A   1      38.209 -40.060 -29.416  0.00  0.00    +0.000 HD
BRANCH  26  28
ATOM     28  N   UNL A   1      37.881 -38.345 -28.235  0.00  0.00    -0.264 N 
ATOM     29  H   UNL A   1      37.882 -38.177 -27.265  0.00  0.00    +0.000 HD
BRANCH  28  30
ATOM     30  C   UNL A   1      38.200 -37.377 -29.238  0.00  0.00    +0.058 A 
ATOM     31  C   UNL A   1      37.189 -36.479 -29.640  0.00  0.00    -0.003 A 
ATOM     32  C   UNL A   1      37.479 -35.600 -30.682  0.00  0.00    +0.047 A 
ATOM     33  N   UNL A   1      38.683 -35.563 -31.300  0.00  0.00    -0.251 NA
ATOM     34  C   UNL A   1      39.641 -36.419 -30.920  0.00  0.00    +0.073 A 
ATOM     35  C   UNL A   1      40.860 -36.362 -31.584  0.00  0.00    -0.036 A 
ATOM     36  C   UNL A   1      41.915 -37.219 -31.271  0.00  0.00    -0.060 A 
ATOM     37  C   UNL A   1      41.755 -38.164 -30.270  0.00  0.00    -0.061 A 
ATOM     38  C   UNL A   1      40.541 -38.239 -29.586  0.00  0.00    -0.051 A 
ATOM     39  C   UNL A   1      39.464 -37.367 -29.892  0.00  0.00    +0.023 A 
ATOM     40  C   UNL A   1      36.481 -34.576 -31.155  0.00  0.00    -0.010 C 
ATOM     41  C   UNL A   1      35.046 -34.902 -30.758  0.00  0.00    -0.047 C 
ATOM     42  C   UNL A   1      34.987 -35.255 -29.278  0.00  0.00    -0.049 C 
ATOM     43  C   UNL A   1      35.826 -36.498 -28.991  0.00  0.00    -0.024 C 
ENDBRANCH  28  30
ENDBRANCH  26  28
ENDBRANCH  23  24
ENDBRANCH   1  23
TORSDOF 14
ENDMDL
MODEL 5
REMARK VINA RESULT:    -8.233      5.662      9.375
REMARK INTER + INTRA:         -15.536
REMARK INTER:                 -12.303
REMARK INTRA:                  -3.234
REMARK UNBOUND:                -0.564
REMARK  Name = cpd73.pdb
REMARK  17 active torsions:
REMARK  status: ('A' for Active; 'I' for Inactive)
REMARK    1  A    between atoms: C_1  and  O_2
REMARK    2  A    between atoms: O_2  and  C_3
REMARK    3  A    between atoms: C_5  and  C_6
REMARK    4  A    between atoms: N_8  and  C_9
REMARK    5  A    between atoms: C_9  and  C_10
REMARK    6  A    between atoms: C_10  and  C_11
REMARK    7  A    between atoms: C_11  and  C_12
REMARK    8  A    between atoms: C_12  and  C_13
REMARK    9  A    between atoms: C_13  and  C_14
REMARK   10  A    between atoms: C_14  and  C_15
REMARK   11  A    between atoms: C_15  and  C_16
REMARK   12  A    between atoms: N_18  and  N_19
REMARK   13  A    between atoms: N_19  and  C_20
REMARK   14  A    between atoms: C_35  and  O_36
REMARK   15  A    between atoms: O_36  and  C_37
REMARK   16  A    between atoms: C_38  and  O_39
REMARK   17  A    between atoms: O_39  and  C_40
REMARK                            x       y       z     vdW  Elec       q    Type
REMARK                         _______ _______ _______ _____ _____    ______ ____
ROOT
ATOM      1  C   UNL A   1      35.584 -40.816 -30.913  0.00  0.00    -0.045 C 
ENDROOT
BRANCH   1   2
ATOM      2  C   UNL A   1      34.228 -40.159 -31.191  0.00  0.00    -0.053 C 
BRANCH   2   3
ATOM      3  C   UNL A   1      34.392 -38.724 -31.695  0.00  0.00    -0.053 C 
BRANCH   3   4
ATOM      4  C   UNL A   1      33.131 -38.249 -32.419  0.00  0.00    -0.052 C 
BRANCH   4   5
ATOM      5  C   UNL A   1      32.463 -37.087 -31.684  0.00  0.00    -0.037 C 
BRANCH   5   6
ATOM      6  C   UNL A   1      31.332 -37.583 -30.785  0.00  0.00    +0.012 C 
BRANCH   6   9
ATOM      7  C   UNL A   1      31.444 -37.475 -28.323  0.00  0.00    +0.244 C 
ATOM      8  O   UNL A   1      30.653 -36.544 -28.248  0.00  0.00    -0.270 OA
ATOM      9  N   UNL A   1      31.830 -38.061 -29.512  0.00  0.00    -0.311 N 
ATOM     10  H   UNL A   1      32.457 -38.820 -29.493  0.00  0.00    +0.000 HD
BRANCH   7  13
ATOM     11  C   UNL A   1      33.327 -37.706 -25.037  0.00  0.00    +0.166 A 
ATOM     12  C   UNL A   1      32.739 -37.170 -26.184  0.00  0.00    -0.004 A 
ATOM     13  C   UNL A   1      32.078 -38.012 -27.090  0.00  0.00    +0.044 A 
ATOM     14  C   UNL A   1      32.024 -39.396 -26.871  0.00  0.00    -0.004 A 
ATOM     15  C   UNL A   1      32.605 -39.948 -25.731  0.00  0.00    +0.166 A 
ATOM     16  C   UNL A   1      33.263 -39.096 -24.826  0.00  0.00    +0.204 A 
BRANCH  11  18
ATOM     17  C   UNL A   1      33.237 -36.059 -23.307  0.00  0.00    +0.079 C 
ATOM     18  O   UNL A   1      33.991 -36.978 -24.084  0.00  0.00    -0.491 OA
ENDBRANCH  11  18
BRANCH  15  19
ATOM     19  O   UNL A   1      32.594 -41.282 -25.412  0.00  0.00    -0.491 OA
ATOM     20  C   UNL A   1      33.452 -42.140 -26.154  0.00  0.00    +0.079 C 
ENDBRANCH  15  19
BRANCH  16  21
ATOM     21  O   UNL A   1      33.798 -39.622 -23.670  0.00  0.00    -0.488 OA
ATOM     22  C   UNL A   1      32.789 -39.710 -22.666  0.00  0.00    +0.079 C 
ENDBRANCH  16  21
ENDBRANCH   7  13
ENDBRANCH   6   9
ENDBRANCH   5   6
ENDBRANCH   4   5
ENDBRANCH   3   4
ENDBRANCH   2   3
ENDBRANCH   1   2
BRANCH   1  23
ATOM     23  C   UNL A   1      35.768 -41.143 -29.432  0.00  0.00    +0.025 C 
BRANCH  23  24
ATOM     24  C   UNL A   1      36.138 -39.933 -28.596  0.00  0.00    +0.229 C 
ATOM     25  O   UNL A   1      35.463 -39.505 -27.663  0.00  0.00    -0.274 OA
ATOM     26  N   UNL A   1      37.362 -39.388 -28.947  0.00  0.00    -0.236 N 
ATOM     27  H   UNL A   1      37.970 -39.843 -29.572  0.00  0.00    +0.000 HD
BRANCH  26  28
ATOM     28  N   UNL A   1      37.695 -38.141 -28.361  0.00  0.00    -0.264 N 
ATOM     29  H   UNL A   1      37.879 -37.997 -27.404  0.00  0.00    +0.000 HD
BRANCH  28  30
ATOM     30  C   UNL A   1      37.722 -37.124 -29.366  0.00  0.00    +0.058 A 
ATOM     31  C   UNL A   1      38.920 -36.932 -30.084  0.00  0.00    -0.003 A 
ATOM     32  C   UNL A   1      38.967 -35.880 -30.997  0.00  0.00    +0.047 A 
ATOM     33  N   UNL A   1      37.916 -35.060 -31.231  0.00  0.00    -0.251 NA
ATOM     34  C   UNL A   1      36.779 -35.241 -30.545  0.00  0.00    +0.073 A 
ATOM     35  C   UNL A   1      35.724 -34.373 -30.800  0.00  0.00    -0.036 A 
ATOM     36  C   UNL A   1      34.505 -34.472 -30.129  0.00  0.00    -0.060 A 
ATOM     37  C   UNL A   1      34.329 -35.459 -29.173  0.00  0.00    -0.061 A 
ATOM     38  C   UNL A   1      35.372 -36.344 -28.901  0.00  0.00    -0.051 A 
ATOM     39  C   UNL A   1      36.614 -36.257 -29.583  0.00  0.00    +0.023 A 
ATOM     40  C   UNL A   1      40.187 -35.618 -31.842  0.00  0.00    -0.010 C 
ATOM     41  C   UNL A   1      41.456 -36.254 -31.285  0.00  0.00    -0.047 C 
ATOM     42  C   UNL A   1      41.191 -37.711 -30.931  0.00  0.00    -0.049 C 
ATOM     43  C   UNL A   1      40.124 -37.810 -29.843  0.00  0.00    -0.024 C 
ENDBRANCH  28  30
ENDBRANCH  26  28
ENDBRANCH  23  24
ENDBRANCH   1  23
TORSDOF 14
ENDMDL
MODEL 6
REMARK VINA RESULT:    -8.107     16.235     19.729
REMARK INTER + INTRA:         -15.306
REMARK INTER:                 -11.618
REMARK INTRA:                  -3.688
REMARK UNBOUND:                -0.564
REMARK  Name = cpd73.pdb
REMARK  17 active torsions:
REMARK  status: ('A' for Active; 'I' for Inactive)
REMARK    1  A    between atoms: C_1  and  O_2
REMARK    2  A    between atoms: O_2  and  C_3
REMARK    3  A    between atoms: C_5  and  C_6
REMARK    4  A    between atoms: N_8  and  C_9
REMARK    5  A    between atoms: C_9  and  C_10
REMARK    6  A    between atoms: C_10  and  C_11
REMARK    7  A    between atoms: C_11  and  C_12
REMARK    8  A    between atoms: C_12  and  C_13
REMARK    9  A    between atoms: C_13  and  C_14
REMARK   10  A    between atoms: C_14  and  C_15
REMARK   11  A    between atoms: C_15  and  C_16
REMARK   12  A    between atoms: N_18  and  N_19
REMARK   13  A    between atoms: N_19  and  C_20
REMARK   14  A    between atoms: C_35  and  O_36
REMARK   15  A    between atoms: O_36  and  C_37
REMARK   16  A    between atoms: C_38  and  O_39
REMARK   17  A    between atoms: O_39  and  C_40
REMARK                            x       y       z     vdW  Elec       q    Type
REMARK                         _______ _______ _______ _____ _____    ______ ____
ROOT
ATOM      1  C   UNL A   1      47.148 -21.790 -39.709  0.00  0.00    -0.045 C 
ENDROOT
BRANCH   1   2
ATOM      2  C   UNL A   1      47.184 -20.275 -39.934  0.00  0.00    -0.053 C 
BRANCH   2   3
ATOM      3  C   UNL A   1      46.884 -19.508 -38.645  0.00  0.00    -0.053 C 
BRANCH   3   4
ATOM      4  C   UNL A   1      45.936 -20.300 -37.743  0.00  0.00    -0.052 C 
BRANCH   4   5
ATOM      5  C   UNL A   1      46.132 -19.943 -36.269  0.00  0.00    -0.037 C 
BRANCH   5   6
ATOM      6  C   UNL A   1      45.263 -18.751 -35.872  0.00  0.00    +0.012 C 
BRANCH   6   9
ATOM      7  C   UNL A   1      43.820 -19.351 -33.964  0.00  0.00    +0.244 C 
ATOM      8  O   UNL A   1      44.697 -19.148 -33.133  0.00  0.00    -0.270 OA
ATOM      9  N   UNL A   1      43.992 -19.174 -35.322  0.00  0.00    -0.311 N 
ATOM     10  H   UNL A   1      43.234 -19.339 -35.929  0.00  0.00    +0.000 HD
BRANCH   7  13
ATOM     11  C   UNL A   1      40.274 -19.491 -32.620  0.00  0.00    +0.166 A 
ATOM     12  C   UNL A   1      41.513 -18.987 -33.020  0.00  0.00    -0.004 A 
ATOM     13  C   UNL A   1      42.489 -19.854 -33.531  0.00  0.00    +0.044 A 
ATOM     14  C   UNL A   1      42.245 -21.232 -33.621  0.00  0.00    -0.004 A 
ATOM     15  C   UNL A   1      41.014 -21.753 -33.227  0.00  0.00    +0.166 A 
ATOM     16  C   UNL A   1      40.039 -20.875 -32.718  0.00  0.00    +0.204 A 
BRANCH  11  18
ATOM     17  C   UNL A   1      39.245 -17.346 -32.396  0.00  0.00    +0.079 C 
ATOM     18  O   UNL A   1      39.248 -18.737 -32.112  0.00  0.00    -0.491 OA
ENDBRANCH  11  18
BRANCH  15  19
ATOM     19  O   UNL A   1      40.666 -23.077 -33.290  0.00  0.00    -0.491 OA
ATOM     20  C   UNL A   1      41.159 -23.933 -32.266  0.00  0.00    +0.079 C 
ENDBRANCH  15  19
BRANCH  16  21
ATOM     21  O   UNL A   1      38.801 -21.370 -32.372  0.00  0.00    -0.488 OA
ATOM     22  C   UNL A   1      37.934 -21.339 -33.504  0.00  0.00    +0.079 C 
ENDBRANCH  16  21
ENDBRANCH   7  13
ENDBRANCH   6   9
ENDBRANCH   5   6
ENDBRANCH   4   5
ENDBRANCH   3   4
ENDBRANCH   2   3
ENDBRANCH   1   2
BRANCH   1  23
ATOM     23  C   UNL A   1      46.657 -22.541 -40.946  0.00  0.00    +0.025 C 
BRANCH  23  24
ATOM     24  C   UNL A   1      45.397 -21.945 -41.543  0.00  0.00    +0.229 C 
ATOM     25  O   UNL A   1      45.297 -21.562 -42.706  0.00  0.00    -0.274 OA
ATOM     26  N   UNL A   1      44.332 -21.934 -40.657  0.00  0.00    -0.236 N 
ATOM     27  H   UNL A   1      44.375 -22.403 -39.793  0.00  0.00    +0.000 HD
BRANCH  26  28
ATOM     28  N   UNL A   1      43.178 -21.216 -41.058  0.00  0.00    -0.264 N 
ATOM     29  H   UNL A   1      42.744 -21.288 -41.939  0.00  0.00    +0.000 HD
BRANCH  28  30
ATOM     30  C   UNL A   1      42.738 -20.370 -39.991  0.00  0.00    +0.058 A 
ATOM     31  C   UNL A   1      43.228 -19.049 -39.946  0.00  0.00    -0.003 A 
ATOM     32  C   UNL A   1      42.868 -18.261 -38.854  0.00  0.00    +0.047 A 
ATOM     33  N   UNL A   1      42.062 -18.704 -37.860  0.00  0.00    -0.251 NA
ATOM     34  C   UNL A   1      41.600 -19.961 -37.903  0.00  0.00    +0.073 A 
ATOM     35  C   UNL A   1      40.786 -20.386 -36.860  0.00  0.00    -0.036 A 
ATOM     36  C   UNL A   1      40.266 -21.680 -36.807  0.00  0.00    -0.060 A 
ATOM     37  C   UNL A   1      40.567 -22.580 -37.817  0.00  0.00    -0.061 A 
ATOM     38  C   UNL A   1      41.380 -22.176 -38.876  0.00  0.00    -0.051 A 
ATOM     39  C   UNL A   1      41.908 -20.860 -38.944  0.00  0.00    +0.023 A 
ATOM     40  C   UNL A   1      43.307 -16.825 -38.735  0.00  0.00    -0.010 C 
ATOM     41  C   UNL A   1      44.512 -16.486 -39.605  0.00  0.00    -0.047 C 
ATOM     42  C   UNL A   1      44.287 -16.999 -41.020  0.00  0.00    -0.049 C 
ATOM     43  C   UNL A   1      44.145 -18.519 -41.022  0.00  0.00    -0.024 C 
ENDBRANCH  28  30
ENDBRANCH  26  28
ENDBRANCH  23  24
ENDBRANCH   1  23
TORSDOF 14
ENDMDL
MODEL 7
REMARK VINA RESULT:    -7.987     16.499     19.103
REMARK INTER + INTRA:         -15.088
REMARK INTER:                 -12.974
REMARK INTRA:                  -2.114
REMARK UNBOUND:                -0.564
REMARK  Name = cpd73.pdb
REMARK  17 active torsions:
REMARK  status: ('A' for Active; 'I' for Inactive)
REMARK    1  A    between atoms: C_1  and  O_2
REMARK    2  A    between atoms: O_2  and  C_3
REMARK    3  A    between atoms: C_5  and  C_6
REMARK    4  A    between atoms: N_8  and  C_9
REMARK    5  A    between atoms: C_9  and  C_10
REMARK    6  A    between atoms: C_10  and  C_11
REMARK    7  A    between atoms: C_11  and  C_12
REMARK    8  A    between atoms: C_12  and  C_13
REMARK    9  A    between atoms: C_13  and  C_14
REMARK   10  A    between atoms: C_14  and  C_15
REMARK   11  A    between atoms: C_15  and  C_16
REMARK   12  A    between atoms: N_18  and  N_19
REMARK   13  A    between atoms: N_19  and  C_20
REMARK   14  A    between atoms: C_35  and  O_36
REMARK   15  A    between atoms: O_36  and  C_37
REMARK   16  A    between atoms: C_38  and  O_39
REMARK   17  A    between atoms: O_39  and  C_40
REMARK                            x       y       z     vdW  Elec       q    Type
REMARK                         _______ _______ _______ _____ _____    ______ ____
ROOT
ATOM      1  C   UNL A   1      47.309 -16.601 -37.474  0.00  0.00    -0.045 C 
ENDROOT
BRANCH   1   2
ATOM      2  C   UNL A   1      46.860 -15.193 -37.068  0.00  0.00    -0.053 C 
BRANCH   2   3
ATOM      3  C   UNL A   1      45.339 -15.045 -37.142  0.00  0.00    -0.053 C 
BRANCH   3   4
ATOM      4  C   UNL A   1      44.704 -15.208 -35.760  0.00  0.00    -0.052 C 
BRANCH   4   5
ATOM      5  C   UNL A   1      43.856 -16.477 -35.677  0.00  0.00    -0.037 C 
BRANCH   5   6
ATOM      6  C   UNL A   1      43.483 -16.795 -34.231  0.00  0.00    +0.012 C 
BRANCH   6   9
ATOM      7  C   UNL A   1      42.574 -18.927 -33.386  0.00  0.00    +0.244 C 
ATOM      8  O   UNL A   1      43.563 -19.172 -32.706  0.00  0.00    -0.270 OA
ATOM      9  N   UNL A   1      42.432 -17.790 -34.154  0.00  0.00    -0.311 N 
ATOM     10  H   UNL A   1      41.599 -17.651 -34.661  0.00  0.00    +0.000 HD
BRANCH   7  13
ATOM     11  C   UNL A   1      39.387 -20.708 -34.420  0.00  0.00    +0.166 A 
ATOM     12  C   UNL A   1      40.426 -19.776 -34.391  0.00  0.00    -0.004 A 
ATOM     13  C   UNL A   1      41.454 -19.904 -33.446  0.00  0.00    +0.044 A 
ATOM     14  C   UNL A   1      41.438 -20.945 -32.507  0.00  0.00    -0.004 A 
ATOM     15  C   UNL A   1      40.409 -21.885 -32.522  0.00  0.00    +0.166 A 
ATOM     16  C   UNL A   1      39.383 -21.752 -33.475  0.00  0.00    +0.204 A 
BRANCH  11  18
ATOM     17  C   UNL A   1      38.636 -20.663 -36.688  0.00  0.00    +0.079 C 
ATOM     18  O   UNL A   1      38.336 -20.684 -35.301  0.00  0.00    -0.491 OA
ENDBRANCH  11  18
BRANCH  15  19
ATOM     19  O   UNL A   1      40.306 -22.949 -31.663  0.00  0.00    -0.491 OA
ATOM     20  C   UNL A   1      41.370 -23.892 -31.658  0.00  0.00    +0.079 C 
ENDBRANCH  15  19
BRANCH  16  21
ATOM     21  O   UNL A   1      38.387 -22.702 -33.533  0.00  0.00    -0.488 OA
ATOM     22  C   UNL A   1      38.770 -23.752 -34.418  0.00  0.00    +0.079 C 
ENDBRANCH  16  21
ENDBRANCH   7  13
ENDBRANCH   6   9
ENDBRANCH   5   6
ENDBRANCH   4   5
ENDBRANCH   3   4
ENDBRANCH   2   3
ENDBRANCH   1   2
BRANCH   1  23
ATOM     23  C   UNL A   1      47.590 -17.484 -36.259  0.00  0.00    +0.025 C 
BRANCH  23  24
ATOM     24  C   UNL A   1      46.845 -18.804 -36.297  0.00  0.00    +0.229 C 
ATOM     25  O   UNL A   1      46.064 -19.183 -35.427  0.00  0.00    -0.274 OA
ATOM     26  N   UNL A   1      47.081 -19.524 -37.456  0.00  0.00    -0.236 N 
ATOM     27  H   UNL A   1      47.565 -19.132 -38.218  0.00  0.00    +0.000 HD
BRANCH  26  28
ATOM     28  N   UNL A   1      46.590 -20.854 -37.491  0.00  0.00    -0.264 N 
ATOM     29  H   UNL A   1      46.672 -21.506 -36.759  0.00  0.00    +0.000 HD
BRANCH  28  30
ATOM     30  C   UNL A   1      45.959 -21.105 -38.750  0.00  0.00    +0.058 A 
ATOM     31  C   UNL A   1      44.584 -20.820 -38.872  0.00  0.00    -0.003 A 
ATOM     32  C   UNL A   1      43.956 -21.153 -40.071  0.00  0.00    +0.047 A 
ATOM     33  N   UNL A   1      44.612 -21.714 -41.114  0.00  0.00    -0.251 NA
ATOM     34  C   UNL A   1      45.919 -21.987 -40.995  0.00  0.00    +0.073 A 
ATOM     35  C   UNL A   1      46.558 -22.574 -42.081  0.00  0.00    -0.036 A 
ATOM     36  C   UNL A   1      47.912 -22.909 -42.051  0.00  0.00    -0.060 A 
ATOM     37  C   UNL A   1      48.654 -22.656 -40.908  0.00  0.00    -0.061 A 
ATOM     38  C   UNL A   1      48.035 -22.066 -39.806  0.00  0.00    -0.051 A 
ATOM     39  C   UNL A   1      46.660 -21.715 -39.829  0.00  0.00    +0.023 A 
ATOM     40  C   UNL A   1      42.500 -20.852 -40.314  0.00  0.00    -0.010 C 
ATOM     41  C   UNL A   1      41.708 -20.623 -39.032  0.00  0.00    -0.047 C 
ATOM     42  C   UNL A   1      42.450 -19.644 -38.134  0.00  0.00    -0.049 C 
ATOM     43  C   UNL A   1      43.808 -20.213 -37.728  0.00  0.00    -0.024 C 
ENDBRANCH  28  30
ENDBRANCH  26  28
ENDBRANCH  23  24
ENDBRANCH   1  23
TORSDOF 14
ENDMDL
MODEL 8
REMARK VINA RESULT:    -7.772      5.684      9.352
REMARK INTER + INTRA:         -14.698
REMARK INTER:                 -11.775
REMARK INTRA:                  -2.923
REMARK UNBOUND:                -0.564
REMARK  Name = cpd73.pdb
REMARK  17 active torsions:
REMARK  status: ('A' for Active; 'I' for Inactive)
REMARK    1  A    between atoms: C_1  and  O_2
REMARK    2  A    between atoms: O_2  and  C_3
REMARK    3  A    between atoms: C_5  and  C_6
REMARK    4  A    between atoms: N_8  and  C_9
REMARK    5  A    between atoms: C_9  and  C_10
REMARK    6  A    between atoms: C_10  and  C_11
REMARK    7  A    between atoms: C_11  and  C_12
REMARK    8  A    between atoms: C_12  and  C_13
REMARK    9  A    between atoms: C_13  and  C_14
REMARK   10  A    between atoms: C_14  and  C_15
REMARK   11  A    between atoms: C_15  and  C_16
REMARK   12  A    between atoms: N_18  and  N_19
REMARK   13  A    between atoms: N_19  and  C_20
REMARK   14  A    between atoms: C_35  and  O_36
REMARK   15  A    between atoms: O_36  and  C_37
REMARK   16  A    between atoms: C_38  and  O_39
REMARK   17  A    between atoms: O_39  and  C_40
REMARK                            x       y       z     vdW  Elec       q    Type
REMARK                         _______ _______ _______ _____ _____    ______ ____
ROOT
ATOM      1  C   UNL A   1      35.678 -40.753 -30.928  0.00  0.00    -0.045 C 
ENDROOT
BRANCH   1   2
ATOM      2  C   UNL A   1      34.343 -40.030 -31.128  0.00  0.00    -0.053 C 
BRANCH   2   3
ATOM      3  C   UNL A   1      34.550 -38.584 -31.585  0.00  0.00    -0.053 C 
BRANCH   3   4
ATOM      4  C   UNL A   1      33.450 -38.155 -32.558  0.00  0.00    -0.052 C 
BRANCH   4   5
ATOM      5  C   UNL A   1      32.607 -37.015 -31.987  0.00  0.00    -0.037 C 
BRANCH   5   6
ATOM      6  C   UNL A   1      31.264 -37.529 -31.473  0.00  0.00    +0.012 C 
BRANCH   6   9
ATOM      7  C   UNL A   1      30.350 -36.999 -29.244  0.00  0.00    +0.244 C 
ATOM      8  O   UNL A   1      29.479 -36.261 -29.688  0.00  0.00    -0.270 OA
ATOM      9  N   UNL A   1      31.261 -37.673 -30.031  0.00  0.00    -0.311 N 
ATOM     10  H   UNL A   1      31.922 -38.265 -29.605  0.00  0.00    +0.000 HD
BRANCH   7  13
ATOM     11  C   UNL A   1      29.626 -37.017 -25.519  0.00  0.00    +0.166 A 
ATOM     12  C   UNL A   1      29.457 -36.840 -26.893  0.00  0.00    -0.004 A 
ATOM     13  C   UNL A   1      30.495 -37.177 -27.774  0.00  0.00    +0.044 A 
ATOM     14  C   UNL A   1      31.715 -37.667 -27.288  0.00  0.00    -0.004 A 
ATOM     15  C   UNL A   1      31.901 -37.851 -25.919  0.00  0.00    +0.166 A 
ATOM     16  C   UNL A   1      30.854 -37.512 -25.042  0.00  0.00    +0.204 A 
BRANCH  11  18
ATOM     17  C   UNL A   1      27.493 -37.507 -24.557  0.00  0.00    +0.079 C 
ATOM     18  O   UNL A   1      28.680 -36.727 -24.569  0.00  0.00    -0.491 OA
ENDBRANCH  11  18
BRANCH  15  19
ATOM     19  O   UNL A   1      33.045 -38.338 -25.341  0.00  0.00    -0.491 OA
ATOM     20  C   UNL A   1      34.142 -37.444 -25.205  0.00  0.00    +0.079 C 
ENDBRANCH  15  19
BRANCH  16  21
ATOM     21  O   UNL A   1      31.006 -37.736 -23.691  0.00  0.00    -0.488 OA
ATOM     22  C   UNL A   1      30.674 -39.088 -23.384  0.00  0.00    +0.079 C 
ENDBRANCH  16  21
ENDBRANCH   7  13
ENDBRANCH   6   9
ENDBRANCH   5   6
ENDBRANCH   4   5
ENDBRANCH   3   4
ENDBRANCH   2   3
ENDBRANCH   1   2
BRANCH   1  23
ATOM     23  C   UNL A   1      35.916 -41.123 -29.465  0.00  0.00    +0.025 C 
BRANCH  23  24
ATOM     24  C   UNL A   1      36.361 -39.946 -28.618  0.00  0.00    +0.229 C 
ATOM     25  O   UNL A   1      35.780 -39.565 -27.604  0.00  0.00    -0.274 OA
ATOM     26  N   UNL A   1      37.540 -39.373 -29.065  0.00  0.00    -0.236 N 
ATOM     27  H   UNL A   1      38.085 -39.795 -29.768  0.00  0.00    +0.000 HD
BRANCH  26  28
ATOM     28  N   UNL A   1      37.923 -38.149 -28.461  0.00  0.00    -0.264 N 
ATOM     29  H   UNL A   1      38.208 -38.046 -27.525  0.00  0.00    +0.000 HD
BRANCH  28  30
ATOM     30  C   UNL A   1      37.830 -37.088 -29.415  0.00  0.00    +0.058 A 
ATOM     31  C   UNL A   1      38.964 -36.804 -30.204  0.00  0.00    -0.003 A 
ATOM     32  C   UNL A   1      38.897 -35.710 -31.066  0.00  0.00    +0.047 A 
ATOM     33  N   UNL A   1      37.795 -34.934 -31.186  0.00  0.00    -0.251 NA
ATOM     34  C   UNL A   1      36.719 -35.204 -30.433  0.00  0.00    +0.073 A 
ATOM     35  C   UNL A   1      35.609 -34.379 -30.573  0.00  0.00    -0.036 A 
ATOM     36  C   UNL A   1      34.446 -34.569 -29.826  0.00  0.00    -0.060 A 
ATOM     37  C   UNL A   1      34.385 -35.607 -28.909  0.00  0.00    -0.061 A 
ATOM     38  C   UNL A   1      35.485 -36.449 -28.752  0.00  0.00    -0.051 A 
ATOM     39  C   UNL A   1      36.670 -36.269 -29.513  0.00  0.00    +0.023 A 
ATOM     40  C   UNL A   1      40.040 -35.349 -31.978  0.00  0.00    -0.010 C 
ATOM     41  C   UNL A   1      41.374 -35.945 -31.542  0.00  0.00    -0.047 C 
ATOM     42  C   UNL A   1      41.204 -37.428 -31.241  0.00  0.00    -0.049 C 
ATOM     43  C   UNL A   1      40.222 -37.630 -30.089  0.00  0.00    -0.024 C 
ENDBRANCH  28  30
ENDBRANCH  26  28
ENDBRANCH  23  24
ENDBRANCH   1  23
TORSDOF 14
ENDMDL
MODEL 9
REMARK VINA RESULT:    -7.772     16.976     20.253
REMARK INTER + INTRA:         -14.698
REMARK INTER:                 -11.297
REMARK INTRA:                  -3.400
REMARK UNBOUND:                -0.564
REMARK  Name = cpd73.pdb
REMARK  17 active torsions:
REMARK  status: ('A' for Active; 'I' for Inactive)
REMARK    1  A    between atoms: C_1  and  O_2
REMARK    2  A    between atoms: O_2  and  C_3
REMARK    3  A    between atoms: C_5  and  C_6
REMARK    4  A    between atoms: N_8  and  C_9
REMARK    5  A    between atoms: C_9  and  C_10
REMARK    6  A    between atoms: C_10  and  C_11
REMARK    7  A    between atoms: C_11  and  C_12
REMARK    8  A    between atoms: C_12  and  C_13
REMARK    9  A    between atoms: C_13  and  C_14
REMARK   10  A    between atoms: C_14  and  C_15
REMARK   11  A    between atoms: C_15  and  C_16
REMARK   12  A    between atoms: N_18  and  N_19
REMARK   13  A    between atoms: N_19  and  C_20
REMARK   14  A    between atoms: C_35  and  O_36
REMARK   15  A    between atoms: O_36  and  C_37
REMARK   16  A    between atoms: C_38  and  O_39
REMARK   17  A    between atoms: O_39  and  C_40
REMARK                            x       y       z     vdW  Elec       q    Type
REMARK                         _______ _______ _______ _____ _____    ______ ____
ROOT
ATOM      1  C   UNL A   1      46.984 -21.949 -39.833  0.00  0.00    -0.045 C 
ENDROOT
BRANCH   1   2
ATOM      2  C   UNL A   1      47.192 -20.459 -39.542  0.00  0.00    -0.053 C 
BRANCH   2   3
ATOM      3  C   UNL A   1      46.854 -20.117 -38.090  0.00  0.00    -0.053 C 
BRANCH   3   4
ATOM      4  C   UNL A   1      46.951 -18.610 -37.844  0.00  0.00    -0.052 C 
BRANCH   4   5
ATOM      5  C   UNL A   1      47.262 -18.298 -36.380  0.00  0.00    -0.037 C 
BRANCH   5   6
ATOM      6  C   UNL A   1      46.945 -19.494 -35.484  0.00  0.00    +0.012 C 
BRANCH   6   9
ATOM      7  C   UNL A   1      44.555 -19.817 -34.963  0.00  0.00    +0.244 C 
ATOM      8  O   UNL A   1      44.367 -20.566 -35.913  0.00  0.00    -0.270 OA
ATOM      9  N   UNL A   1      45.777 -19.252 -34.660  0.00  0.00    -0.311 N 
ATOM     10  H   UNL A   1      45.858 -18.672 -33.868  0.00  0.00    +0.000 HD
BRANCH   7  13
ATOM     11  C   UNL A   1      42.165 -17.787 -32.826  0.00  0.00    +0.166 A 
ATOM     12  C   UNL A   1      43.240 -18.112 -33.656  0.00  0.00    -0.004 A 
ATOM     13  C   UNL A   1      43.420 -19.436 -34.081  0.00  0.00    +0.044 A 
ATOM     14  C   UNL A   1      42.546 -20.448 -33.660  0.00  0.00    -0.004 A 
ATOM     15  C   UNL A   1      41.467 -20.142 -32.832  0.00  0.00    +0.166 A 
ATOM     16  C   UNL A   1      41.292 -18.810 -32.412  0.00  0.00    +0.204 A 
BRANCH  11  18
ATOM     17  C   UNL A   1      41.775 -15.478 -33.303  0.00  0.00    +0.079 C 
ATOM     18  O   UNL A   1      41.891 -16.529 -32.355  0.00  0.00    -0.491 OA
ENDBRANCH  11  18
BRANCH  15  19
ATOM     19  O   UNL A   1      40.545 -21.049 -32.377  0.00  0.00    -0.491 OA
ATOM     20  C   UNL A   1      40.945 -22.411 -32.309  0.00  0.00    +0.079 C 
ENDBRANCH  15  19
BRANCH  16  21
ATOM     21  O   UNL A   1      40.202 -18.485 -31.635  0.00  0.00    -0.488 OA
ATOM     22  C   UNL A   1      39.091 -18.162 -32.469  0.00  0.00    +0.079 C 
ENDBRANCH  16  21
ENDBRANCH   7  13
ENDBRANCH   6   9
ENDBRANCH   5   6
ENDBRANCH   4   5
ENDBRANCH   3   4
ENDBRANCH   2   3
ENDBRANCH   1   2
BRANCH   1  23
ATOM     23  C   UNL A   1      46.614 -22.201 -41.293  0.00  0.00    +0.025 C 
BRANCH  23  24
ATOM     24  C   UNL A   1      45.356 -21.472 -41.723  0.00  0.00    +0.229 C 
ATOM     25  O   UNL A   1      45.244 -20.846 -42.775  0.00  0.00    -0.274 OA
ATOM     26  N   UNL A   1      44.306 -21.635 -40.835  0.00  0.00    -0.236 N 
ATOM     27  H   UNL A   1      44.354 -22.278 -40.092  0.00  0.00    +0.000 HD
BRANCH  26  28
ATOM     28  N   UNL A   1      43.160 -20.829 -41.048  0.00  0.00    -0.264 N 
ATOM     29  H   UNL A   1      42.610 -20.833 -41.865  0.00  0.00    +0.000 HD
BRANCH  28  30
ATOM     30  C   UNL A   1      42.922 -20.009 -39.901  0.00  0.00    +0.058 A 
ATOM     31  C   UNL A   1      42.006 -20.469 -38.934  0.00  0.00    -0.003 A 
ATOM     32  C   UNL A   1      41.711 -19.623 -37.865  0.00  0.00    +0.047 A 
ATOM     33  N   UNL A   1      42.278 -18.404 -37.714  0.00  0.00    -0.251 NA
ATOM     34  C   UNL A   1      43.147 -17.966 -38.636  0.00  0.00    +0.073 A 
ATOM     35  C   UNL A   1      43.700 -16.705 -38.455  0.00  0.00    -0.036 A 
ATOM     36  C   UNL A   1      44.603 -16.155 -39.365  0.00  0.00    -0.060 A 
ATOM     37  C   UNL A   1      44.966 -16.878 -40.490  0.00  0.00    -0.061 A 
ATOM     38  C   UNL A   1      44.426 -18.148 -40.692  0.00  0.00    -0.051 A 
ATOM     39  C   UNL A   1      43.511 -18.719 -39.769  0.00  0.00    +0.023 A 
ATOM     40  C   UNL A   1      40.775 -20.040 -36.760  0.00  0.00    -0.010 C 
ATOM     41  C   UNL A   1      39.855 -21.191 -37.149  0.00  0.00    -0.047 C 
ATOM     42  C   UNL A   1      40.667 -22.308 -37.791  0.00  0.00    -0.049 C 
ATOM     43  C   UNL A   1      41.334 -21.814 -39.072  0.00  0.00    -0.024 C 
ENDBRANCH  28  30
ENDBRANCH  26  28
ENDBRANCH  23  24
ENDBRANCH   1  23
TORSDOF 14
ENDMDL
MODEL 10
REMARK VINA RESULT:    -7.659     16.503     19.918
REMARK INTER + INTRA:         -14.492
REMARK INTER:                 -10.794
REMARK INTRA:                  -3.697
REMARK UNBOUND:                -0.564
REMARK  Name = cpd73.pdb
REMARK  17 active torsions:
REMARK  status: ('A' for Active; 'I' for Inactive)
REMARK    1  A    between atoms: C_1  and  O_2
REMARK    2  A    between atoms: O_2  and  C_3
REMARK    3  A    between atoms: C_5  and  C_6
REMARK    4  A    between atoms: N_8  and  C_9
REMARK    5  A    between atoms: C_9  and  C_10
REMARK    6  A    between atoms: C_10  and  C_11
REMARK    7  A    between atoms: C_11  and  C_12
REMARK    8  A    between atoms: C_12  and  C_13
REMARK    9  A    between atoms: C_13  and  C_14
REMARK   10  A    between atoms: C_14  and  C_15
REMARK   11  A    between atoms: C_15  and  C_16
REMARK   12  A    between atoms: N_18  and  N_19
REMARK   13  A    between atoms: N_19  and  C_20
REMARK   14  A    between atoms: C_35  and  O_36
REMARK   15  A    between atoms: O_36  and  C_37
REMARK   16  A    between atoms: C_38  and  O_39
REMARK   17  A    between atoms: O_39  and  C_40
REMARK                            x       y       z     vdW  Elec       q    Type
REMARK                         _______ _______ _______ _____ _____    ______ ____
ROOT
ATOM      1  C   UNL A   1      47.017 -21.942 -39.833  0.00  0.00    -0.045 C 
ENDROOT
BRANCH   1   2
ATOM      2  C   UNL A   1      47.176 -20.427 -39.997  0.00  0.00    -0.053 C 
BRANCH   2   3
ATOM      3  C   UNL A   1      47.056 -19.701 -38.655  0.00  0.00    -0.053 C 
BRANCH   3   4
ATOM      4  C   UNL A   1      45.941 -20.307 -37.801  0.00  0.00    -0.052 C 
BRANCH   4   5
ATOM      5  C   UNL A   1      46.169 -20.049 -36.312  0.00  0.00    -0.037 C 
BRANCH   5   6
ATOM      6  C   UNL A   1      45.620 -18.684 -35.900  0.00  0.00    +0.012 C 
BRANCH   6   9
ATOM      7  C   UNL A   1      44.110 -19.380 -34.079  0.00  0.00    +0.244 C 
ATOM      8  O   UNL A   1      45.017 -19.826 -33.388  0.00  0.00    -0.270 OA
ATOM      9  N   UNL A   1      44.301 -18.792 -35.313  0.00  0.00    -0.311 N 
ATOM     10  H   UNL A   1      43.524 -18.438 -35.804  0.00  0.00    +0.000 HD
BRANCH   7  13
ATOM     11  C   UNL A   1      40.810 -20.805 -32.862  0.00  0.00    +0.166 A 
ATOM     12  C   UNL A   1      42.137 -20.733 -33.290  0.00  0.00    -0.004 A 
ATOM     13  C   UNL A   1      42.700 -19.492 -33.617  0.00  0.00    +0.044 A 
ATOM     14  C   UNL A   1      41.936 -18.318 -33.545  0.00  0.00    -0.004 A 
ATOM     15  C   UNL A   1      40.610 -18.371 -33.118  0.00  0.00    +0.166 A 
ATOM     16  C   UNL A   1      40.054 -19.620 -32.790  0.00  0.00    +0.204 A 
BRANCH  11  18
ATOM     17  C   UNL A   1      40.189 -23.041 -33.434  0.00  0.00    +0.079 C 
ATOM     18  O   UNL A   1      40.161 -21.961 -32.512  0.00  0.00    -0.491 OA
ENDBRANCH  11  18
BRANCH  15  19
ATOM     19  O   UNL A   1      39.782 -17.285 -32.996  0.00  0.00    -0.491 OA
ATOM     20  C   UNL A   1      40.284 -16.154 -32.296  0.00  0.00    +0.079 C 
ENDBRANCH  15  19
BRANCH  16  21
ATOM     21  O   UNL A   1      38.760 -19.681 -32.319  0.00  0.00    -0.488 OA
ATOM     22  C   UNL A   1      37.863 -19.931 -33.400  0.00  0.00    +0.079 C 
ENDBRANCH  16  21
ENDBRANCH   7  13
ENDBRANCH   6   9
ENDBRANCH   5   6
ENDBRANCH   4   5
ENDBRANCH   3   4
ENDBRANCH   2   3
ENDBRANCH   1   2
BRANCH   1  23
ATOM     23  C   UNL A   1      46.373 -22.586 -41.060  0.00  0.00    +0.025 C 
BRANCH  23  24
ATOM     24  C   UNL A   1      45.121 -21.866 -41.522  0.00  0.00    +0.229 C 
ATOM     25  O   UNL A   1      44.997 -21.331 -42.622  0.00  0.00    -0.274 OA
ATOM     26  N   UNL A   1      44.091 -21.924 -40.598  0.00  0.00    -0.236 N 
ATOM     27  H   UNL A   1      44.143 -22.502 -39.803  0.00  0.00    +0.000 HD
BRANCH  26  28
ATOM     28  N   UNL A   1      42.958 -21.112 -40.855  0.00  0.00    -0.264 N 
ATOM     29  H   UNL A   1      42.396 -21.164 -41.661  0.00  0.00    +0.000 HD
BRANCH  28  30
ATOM     30  C   UNL A   1      42.756 -20.204 -39.768  0.00  0.00    +0.058 A 
ATOM     31  C   UNL A   1      41.865 -20.584 -38.744  0.00  0.00    -0.003 A 
ATOM     32  C   UNL A   1      41.603 -19.657 -37.736  0.00  0.00    +0.047 A 
ATOM     33  N   UNL A   1      42.178 -18.432 -37.695  0.00  0.00    -0.251 NA
ATOM     34  C   UNL A   1      43.022 -18.072 -38.672  0.00  0.00    +0.073 A 
ATOM     35  C   UNL A   1      43.584 -16.803 -38.604  0.00  0.00    -0.036 A 
ATOM     36  C   UNL A   1      44.463 -16.330 -39.579  0.00  0.00    -0.060 A 
ATOM     37  C   UNL A   1      44.792 -17.139 -40.654  0.00  0.00    -0.061 A 
ATOM     38  C   UNL A   1      44.242 -18.418 -40.742  0.00  0.00    -0.051 A 
ATOM     39  C   UNL A   1      43.352 -18.912 -39.753  0.00  0.00    +0.023 A 
ATOM     40  C   UNL A   1      40.697 -19.982 -36.576  0.00  0.00    -0.010 C 
ATOM     41  C   UNL A   1      39.763 -21.155 -36.849  0.00  0.00    -0.047 C 
ATOM     42  C   UNL A   1      40.552 -22.322 -37.425  0.00  0.00    -0.049 C 
ATOM     43  C   UNL A   1      41.186 -21.932 -38.759  0.00  0.00    -0.024 C 
ENDBRANCH  28  30
ENDBRANCH  26  28
ENDBRANCH  23  24
ENDBRANCH   1  23
TORSDOF 14
ENDMDL
MODEL 11
REMARK VINA RESULT:    -7.640     16.199     18.907
REMARK INTER + INTRA:         -14.458
REMARK INTER:                 -12.540
REMARK INTRA:                  -1.918
REMARK UNBOUND:                -0.564
REMARK  Name = cpd73.pdb
REMARK  17 active torsions:
REMARK  status: ('A' for Active; 'I' for Inactive)
REMARK    1  A    between atoms: C_1  and  O_2
REMARK    2  A    between atoms: O_2  and  C_3
REMARK    3  A    between atoms: C_5  and  C_6
REMARK    4  A    between atoms: N_8  and  C_9
REMARK    5  A    between atoms: C_9  and  C_10
REMARK    6  A    between atoms: C_10  and  C_11
REMARK    7  A    between atoms: C_11  and  C_12
REMARK    8  A    between atoms: C_12  and  C_13
REMARK    9  A    between atoms: C_13  and  C_14
REMARK   10  A    between atoms: C_14  and  C_15
REMARK   11  A    between atoms: C_15  and  C_16
REMARK   12  A    between atoms: N_18  and  N_19
REMARK   13  A    between atoms: N_19  and  C_20
REMARK   14  A    between atoms: C_35  and  O_36
REMARK   15  A    between atoms: O_36  and  C_37
REMARK   16  A    between atoms: C_38  and  O_39
REMARK   17  A    between atoms: O_39  and  C_40
REMARK                            x       y       z     vdW  Elec       q    Type
REMARK                         _______ _______ _______ _____ _____    ______ ____
ROOT
ATOM      1  C   UNL A   1      44.574 -20.041 -35.302  0.00  0.00    -0.045 C 
ENDROOT
BRANCH   1   2
ATOM      2  C   UNL A   1      43.190 -19.637 -35.821  0.00  0.00    -0.053 C 
BRANCH   2   3
ATOM      3  C   UNL A   1      43.134 -19.661 -37.350  0.00  0.00    -0.053 C 
BRANCH   3   4
ATOM      4  C   UNL A   1      43.570 -21.023 -37.894  0.00  0.00    -0.052 C 
BRANCH   4   5
ATOM      5  C   UNL A   1      42.852 -21.364 -39.200  0.00  0.00    -0.037 C 
BRANCH   5   6
ATOM      6  C   UNL A   1      41.760 -22.406 -38.971  0.00  0.00    +0.012 C 
BRANCH   6   9
ATOM      7  C   UNL A   1      39.855 -21.475 -37.710  0.00  0.00    +0.244 C 
ATOM      8  O   UNL A   1      39.307 -21.029 -38.711  0.00  0.00    -0.270 OA
ATOM      9  N   UNL A   1      41.046 -22.172 -37.732  0.00  0.00    -0.311 N 
ATOM     10  H   UNL A   1      41.418 -22.518 -36.889  0.00  0.00    +0.000 HD
BRANCH   7  13
ATOM     11  C   UNL A   1      38.411 -19.762 -34.649  0.00  0.00    +0.166 A 
ATOM     12  C   UNL A   1      38.970 -19.947 -35.914  0.00  0.00    -0.004 A 
ATOM     13  C   UNL A   1      39.256 -21.242 -36.369  0.00  0.00    +0.044 A 
ATOM     14  C   UNL A   1      39.011 -22.357 -35.555  0.00  0.00    -0.004 A 
ATOM     15  C   UNL A   1      38.452 -22.190 -34.289  0.00  0.00    +0.166 A 
ATOM     16  C   UNL A   1      38.166 -20.888 -33.841  0.00  0.00    +0.204 A 
BRANCH  11  18
ATOM     17  C   UNL A   1      38.386 -17.381 -34.862  0.00  0.00    +0.079 C 
ATOM     18  O   UNL A   1      38.087 -18.545 -34.106  0.00  0.00    -0.491 OA
ENDBRANCH  11  18
BRANCH  15  19
ATOM     19  O   UNL A   1      38.157 -23.210 -33.421  0.00  0.00    -0.491 OA
ATOM     20  C   UNL A   1      38.161 -24.534 -33.940  0.00  0.00    +0.079 C 
ENDBRANCH  15  19
BRANCH  16  21
ATOM     21  O   UNL A   1      37.567 -20.712 -32.613  0.00  0.00    -0.488 OA
ATOM     22  C   UNL A   1      36.149 -20.786 -32.750  0.00  0.00    +0.079 C 
ENDBRANCH  16  21
ENDBRANCH   7  13
ENDBRANCH   6   9
ENDBRANCH   5   6
ENDBRANCH   4   5
ENDBRANCH   3   4
ENDBRANCH   2   3
ENDBRANCH   1   2
BRANCH   1  23
ATOM     23  C   UNL A   1      45.538 -18.857 -35.263  0.00  0.00    +0.025 C 
BRANCH  23  24
ATOM     24  C   UNL A   1      46.719 -19.019 -36.201  0.00  0.00    +0.229 C 
ATOM     25  O   UNL A   1      47.843 -18.574 -35.981  0.00  0.00    -0.274 OA
ATOM     26  N   UNL A   1      46.421 -19.783 -37.317  0.00  0.00    -0.236 N 
ATOM     27  H   UNL A   1      45.573 -20.277 -37.393  0.00  0.00    +0.000 HD
BRANCH  26  28
ATOM     28  N   UNL A   1      47.398 -19.819 -38.343  0.00  0.00    -0.264 N 
ATOM     29  H   UNL A   1      48.367 -19.712 -38.206  0.00  0.00    +0.000 HD
BRANCH  28  30
ATOM     30  C   UNL A   1      46.766 -20.033 -39.608  0.00  0.00    +0.058 A 
ATOM     31  C   UNL A   1      45.863 -19.054 -40.073  0.00  0.00    -0.003 A 
ATOM     32  C   UNL A   1      45.182 -19.313 -41.261  0.00  0.00    +0.047 A 
ATOM     33  N   UNL A   1      45.365 -20.442 -41.984  0.00  0.00    -0.251 NA
ATOM     34  C   UNL A   1      46.221 -21.373 -41.539  0.00  0.00    +0.073 A 
ATOM     35  C   UNL A   1      46.375 -22.526 -42.300  0.00  0.00    -0.036 A 
ATOM     36  C   UNL A   1      47.231 -23.558 -41.914  0.00  0.00    -0.060 A 
ATOM     37  C   UNL A   1      47.953 -23.444 -40.737  0.00  0.00    -0.061 A 
ATOM     38  C   UNL A   1      47.817 -22.295 -39.958  0.00  0.00    -0.051 A 
ATOM     39  C   UNL A   1      46.954 -21.236 -40.344  0.00  0.00    +0.023 A 
ATOM     40  C   UNL A   1      44.228 -18.312 -41.861  0.00  0.00    -0.010 C 
ATOM     41  C   UNL A   1      43.729 -17.277 -40.860  0.00  0.00    -0.047 C 
ATOM     42  C   UNL A   1      44.905 -16.695 -40.089  0.00  0.00    -0.049 C 
ATOM     43  C   UNL A   1      45.613 -17.788 -39.290  0.00  0.00    -0.024 C 
ENDBRANCH  28  30
ENDBRANCH  26  28
ENDBRANCH  23  24
ENDBRANCH   1  23
TORSDOF 14
ENDMDL
MODEL 12
REMARK VINA RESULT:    -7.631     16.026     20.590
REMARK INTER + INTRA:         -14.442
REMARK INTER:                 -11.158
REMARK INTRA:                  -3.284
REMARK UNBOUND:                -0.564
REMARK  Name = cpd73.pdb
REMARK  17 active torsions:
REMARK  status: ('A' for Active; 'I' for Inactive)
REMARK    1  A    between atoms: C_1  and  O_2
REMARK    2  A    between atoms: O_2  and  C_3
REMARK    3  A    between atoms: C_5  and  C_6
REMARK    4  A    between atoms: N_8  and  C_9
REMARK    5  A    between atoms: C_9  and  C_10
REMARK    6  A    between atoms: C_10  and  C_11
REMARK    7  A    between atoms: C_11  and  C_12
REMARK    8  A    between atoms: C_12  and  C_13
REMARK    9  A    between atoms: C_13  and  C_14
REMARK   10  A    between atoms: C_14  and  C_15
REMARK   11  A    between atoms: C_15  and  C_16
REMARK   12  A    between atoms: N_18  and  N_19
REMARK   13  A    between atoms: N_19  and  C_20
REMARK   14  A    between atoms: C_35  and  O_36
REMARK   15  A    between atoms: O_36  and  C_37
REMARK   16  A    between atoms: C_38  and  O_39
REMARK   17  A    between atoms: O_39  and  C_40
REMARK                            x       y       z     vdW  Elec       q    Type
REMARK                         _______ _______ _______ _____ _____    ______ ____
ROOT
ATOM      1  C   UNL A   1      36.315 -17.866 -37.376  0.00  0.00    -0.045 C 
ENDROOT
BRANCH   1   2
ATOM      2  C   UNL A   1      37.652 -17.823 -36.630  0.00  0.00    -0.053 C 
BRANCH   2   3
ATOM      3  C   UNL A   1      38.742 -18.585 -37.387  0.00  0.00    -0.053 C 
BRANCH   3   4
ATOM      4  C   UNL A   1      39.441 -19.594 -36.474  0.00  0.00    -0.052 C 
BRANCH   4   5
ATOM      5  C   UNL A   1      39.006 -21.027 -36.781  0.00  0.00    -0.037 C 
BRANCH   5   6
ATOM      6  C   UNL A   1      40.194 -21.986 -36.722  0.00  0.00    +0.012 C 
BRANCH   6   9
ATOM      7  C   UNL A   1      42.476 -21.148 -37.140  0.00  0.00    +0.244 C 
ATOM      8  O   UNL A   1      42.485 -21.520 -38.307  0.00  0.00    -0.270 OA
ATOM      9  N   UNL A   1      41.403 -21.317 -36.288  0.00  0.00    -0.311 N 
ATOM     10  H   UNL A   1      41.461 -20.975 -35.367  0.00  0.00    +0.000 HD
BRANCH   7  13
ATOM     11  C   UNL A   1      44.924 -19.643 -34.662  0.00  0.00    +0.166 A 
ATOM     12  C   UNL A   1      43.777 -20.248 -35.180  0.00  0.00    -0.004 A 
ATOM     13  C   UNL A   1      43.684 -20.508 -36.555  0.00  0.00    +0.044 A 
ATOM     14  C   UNL A   1      44.722 -20.143 -37.424  0.00  0.00    -0.004 A 
ATOM     15  C   UNL A   1      45.874 -19.539 -36.924  0.00  0.00    +0.166 A 
ATOM     16  C   UNL A   1      45.961 -19.284 -35.543  0.00  0.00    +0.204 A 
BRANCH  11  18
ATOM     17  C   UNL A   1      44.242 -18.418 -32.726  0.00  0.00    +0.079 C 
ATOM     18  O   UNL A   1      45.124 -19.348 -33.338  0.00  0.00    -0.491 OA
ENDBRANCH  11  18
BRANCH  15  19
ATOM     19  O   UNL A   1      46.952 -19.159 -37.681  0.00  0.00    -0.491 OA
ATOM     20  C   UNL A   1      46.695 -18.692 -38.999  0.00  0.00    +0.079 C 
ENDBRANCH  15  19
BRANCH  16  21
ATOM     21  O   UNL A   1      47.115 -18.734 -35.029  0.00  0.00    -0.488 OA
ATOM     22  C   UNL A   1      48.042 -19.768 -34.707  0.00  0.00    +0.079 C 
ENDBRANCH  16  21
ENDBRANCH   7  13
ENDBRANCH   6   9
ENDBRANCH   5   6
ENDBRANCH   4   5
ENDBRANCH   3   4
ENDBRANCH   2   3
ENDBRANCH   1   2
BRANCH   1  23
ATOM     23  C   UNL A   1      35.329 -18.837 -36.729  0.00  0.00    +0.025 C 
BRANCH  23  24
ATOM     24  C   UNL A   1      35.435 -18.875 -35.216  0.00  0.00    +0.229 C 
ATOM     25  O   UNL A   1      34.944 -18.033 -34.468  0.00  0.00    -0.274 OA
ATOM     26  N   UNL A   1      36.093 -20.000 -34.749  0.00  0.00    -0.236 N 
ATOM     27  H   UNL A   1      36.323 -20.748 -35.345  0.00  0.00    +0.000 HD
BRANCH  26  28
ATOM     28  N   UNL A   1      36.416 -20.021 -33.369  0.00  0.00    -0.264 N 
ATOM     29  H   UNL A   1      35.761 -20.056 -32.635  0.00  0.00    +0.000 HD
BRANCH  28  30
ATOM     30  C   UNL A   1      37.837 -19.983 -33.203  0.00  0.00    +0.058 A 
ATOM     31  C   UNL A   1      38.537 -21.207 -33.200  0.00  0.00    -0.003 A 
ATOM     32  C   UNL A   1      39.907 -21.169 -32.947  0.00  0.00    +0.047 A 
ATOM     33  N   UNL A   1      40.584 -20.017 -32.726  0.00  0.00    -0.251 NA
ATOM     34  C   UNL A   1      39.915 -18.855 -32.726  0.00  0.00    +0.073 A 
ATOM     35  C   UNL A   1      40.639 -17.694 -32.484  0.00  0.00    -0.036 A 
ATOM     36  C   UNL A   1      40.033 -16.438 -32.450  0.00  0.00    -0.060 A 
ATOM     37  C   UNL A   1      38.667 -16.331 -32.660  0.00  0.00    -0.061 A 
ATOM     38  C   UNL A   1      37.920 -17.483 -32.908  0.00  0.00    -0.051 A 
ATOM     39  C   UNL A   1      38.528 -18.765 -32.951  0.00  0.00    +0.023 A 
ATOM     40  C   UNL A   1      40.751 -22.417 -32.962  0.00  0.00    -0.010 C 
ATOM     41  C   UNL A   1      39.940 -23.697 -32.793  0.00  0.00    -0.047 C 
ATOM     42  C   UNL A   1      38.752 -23.685 -33.745  0.00  0.00    -0.049 C 
ATOM     43  C   UNL A   1      37.821 -22.517 -33.422  0.00  0.00    -0.024 C 
ENDBRANCH  28  30
ENDBRANCH  26  28
ENDBRANCH  23  24
ENDBRANCH   1  23
TORSDOF 14
ENDMDL
MODEL 13
REMARK VINA RESULT:    -7.516     17.199     20.031
REMARK INTER + INTRA:         -14.232
REMARK INTER:                 -11.558
REMARK INTRA:                  -2.674
REMARK UNBOUND:                -0.564
REMARK  Name = cpd73.pdb
REMARK  17 active torsions:
REMARK  status: ('A' for Active; 'I' for Inactive)
REMARK    1  A    between atoms: C_1  and  O_2
REMARK    2  A    between atoms: O_2  and  C_3
REMARK    3  A    between atoms: C_5  and  C_6
REMARK    4  A    between atoms: N_8  and  C_9
REMARK    5  A    between atoms: C_9  and  C_10
REMARK    6  A    between atoms: C_10  and  C_11
REMARK    7  A    between atoms: C_11  and  C_12
REMARK    8  A    between atoms: C_12  and  C_13
REMARK    9  A    between atoms: C_13  and  C_14
REMARK   10  A    between atoms: C_14  and  C_15
REMARK   11  A    between atoms: C_15  and  C_16
REMARK   12  A    between atoms: N_18  and  N_19
REMARK   13  A    between atoms: N_19  and  C_20
REMARK   14  A    between atoms: C_35  and  O_36
REMARK   15  A    between atoms: O_36  and  C_37
REMARK   16  A    between atoms: C_38  and  O_39
REMARK   17  A    between atoms: O_39  and  C_40
REMARK                            x       y       z     vdW  Elec       q    Type
REMARK                         _______ _______ _______ _____ _____    ______ ____
ROOT
ATOM      1  C   UNL A   1      42.981 -19.591 -36.729  0.00  0.00    -0.045 C 
ENDROOT
BRANCH   1   2
ATOM      2  C   UNL A   1      44.407 -19.943 -36.296  0.00  0.00    -0.053 C 
BRANCH   2   3
ATOM      3  C   UNL A   1      45.431 -18.978 -36.898  0.00  0.00    -0.053 C 
BRANCH   3   4
ATOM      4  C   UNL A   1      46.003 -18.047 -35.827  0.00  0.00    -0.052 C 
BRANCH   4   5
ATOM      5  C   UNL A   1      45.153 -16.787 -35.664  0.00  0.00    -0.037 C 
BRANCH   5   6
ATOM      6  C   UNL A   1      44.778 -16.562 -34.200  0.00  0.00    +0.012 C 
BRANCH   6   9
ATOM      7  C   UNL A   1      43.437 -18.322 -33.110  0.00  0.00    +0.244 C 
ATOM      8  O   UNL A   1      44.416 -18.890 -32.642  0.00  0.00    -0.270 OA
ATOM      9  N   UNL A   1      43.506 -17.174 -33.872  0.00  0.00    -0.311 N 
ATOM     10  H   UNL A   1      42.674 -16.762 -34.200  0.00  0.00    +0.000 HD
BRANCH   7  13
ATOM     11  C   UNL A   1      39.700 -18.627 -32.529  0.00  0.00    +0.166 A 
ATOM     12  C   UNL A   1      40.962 -18.062 -32.724  0.00  0.00    -0.004 A 
ATOM     13  C   UNL A   1      42.079 -18.890 -32.902  0.00  0.00    +0.044 A 
ATOM     14  C   UNL A   1      41.949 -20.286 -32.857  0.00  0.00    -0.004 A 
ATOM     15  C   UNL A   1      40.697 -20.867 -32.664  0.00  0.00    +0.166 A 
ATOM     16  C   UNL A   1      39.581 -20.028 -32.490  0.00  0.00    +0.204 A 
BRANCH  11  18
ATOM     17  C   UNL A   1      38.558 -16.532 -32.673  0.00  0.00    +0.079 C 
ATOM     18  O   UNL A   1      38.542 -17.915 -32.350  0.00  0.00    -0.491 OA
ENDBRANCH  11  18
BRANCH  15  19
ATOM     19  O   UNL A   1      40.456 -22.216 -32.622  0.00  0.00    -0.491 OA
ATOM     20  C   UNL A   1      40.526 -22.933 -33.847  0.00  0.00    +0.079 C 
ENDBRANCH  15  19
BRANCH  16  21
ATOM     21  O   UNL A   1      38.330 -20.589 -32.347  0.00  0.00    -0.488 OA
ATOM     22  C   UNL A   1      37.684 -20.660 -33.617  0.00  0.00    +0.079 C 
ENDBRANCH  16  21
ENDBRANCH   7  13
ENDBRANCH   6   9
ENDBRANCH   5   6
ENDBRANCH   4   5
ENDBRANCH   3   4
ENDBRANCH   2   3
ENDBRANCH   1   2
BRANCH   1  23
ATOM     23  C   UNL A   1      42.235 -20.804 -37.283  0.00  0.00    +0.025 C 
BRANCH  23  24
ATOM     24  C   UNL A   1      42.478 -21.027 -38.763  0.00  0.00    +0.229 C 
ATOM     25  O   UNL A   1      42.327 -22.105 -39.334  0.00  0.00    -0.274 OA
ATOM     26  N   UNL A   1      42.828 -19.867 -39.434  0.00  0.00    -0.236 N 
ATOM     27  H   UNL A   1      42.773 -18.984 -39.002  0.00  0.00    +0.000 HD
BRANCH  26  28
ATOM     28  N   UNL A   1      43.270 -20.015 -40.773  0.00  0.00    -0.264 N 
ATOM     29  H   UNL A   1      42.718 -20.348 -41.517  0.00  0.00    +0.000 HD
BRANCH  28  30
ATOM     30  C   UNL A   1      44.637 -19.609 -40.881  0.00  0.00    +0.058 A 
ATOM     31  C   UNL A   1      45.572 -20.547 -41.363  0.00  0.00    -0.003 A 
ATOM     32  C   UNL A   1      46.915 -20.174 -41.378  0.00  0.00    +0.047 A 
ATOM     33  N   UNL A   1      47.346 -18.957 -40.972  0.00  0.00    -0.251 NA
ATOM     34  C   UNL A   1      46.456 -18.068 -40.510  0.00  0.00    +0.073 A 
ATOM     35  C   UNL A   1      46.935 -16.833 -40.089  0.00  0.00    -0.036 A 
ATOM     36  C   UNL A   1      46.091 -15.845 -39.581  0.00  0.00    -0.060 A 
ATOM     37  C   UNL A   1      44.731 -16.092 -39.484  0.00  0.00    -0.061 A 
ATOM     38  C   UNL A   1      44.226 -17.323 -39.903  0.00  0.00    -0.051 A 
ATOM     39  C   UNL A   1      45.075 -18.332 -40.428  0.00  0.00    +0.023 A 
ATOM     40  C   UNL A   1      47.986 -21.090 -41.913  0.00  0.00    -0.010 C 
ATOM     41  C   UNL A   1      47.559 -22.553 -41.965  0.00  0.00    -0.047 C 
ATOM     42  C   UNL A   1      46.192 -22.669 -42.625  0.00  0.00    -0.049 C 
ATOM     43  C   UNL A   1      45.139 -21.923 -41.809  0.00  0.00    -0.024 C 
ENDBRANCH  28  30
ENDBRANCH  26  28
ENDBRANCH  23  24
ENDBRANCH   1  23
TORSDOF 14
ENDMDL
MODEL 14
REMARK VINA RESULT:    -7.464     18.317     20.993
REMARK INTER + INTRA:         -14.138
REMARK INTER:                 -10.895
REMARK INTRA:                  -3.243
REMARK UNBOUND:                -0.564
REMARK  Name = cpd73.pdb
REMARK  17 active torsions:
REMARK  status: ('A' for Active; 'I' for Inactive)
REMARK    1  A    between atoms: C_1  and  O_2
REMARK    2  A    between atoms: O_2  and  C_3
REMARK    3  A    between atoms: C_5  and  C_6
REMARK    4  A    between atoms: N_8  and  C_9
REMARK    5  A    between atoms: C_9  and  C_10
REMARK    6  A    between atoms: C_10  and  C_11
REMARK    7  A    between atoms: C_11  and  C_12
REMARK    8  A    between atoms: C_12  and  C_13
REMARK    9  A    between atoms: C_13  and  C_14
REMARK   10  A    between atoms: C_14  and  C_15
REMARK   11  A    between atoms: C_15  and  C_16
REMARK   12  A    between atoms: N_18  and  N_19
REMARK   13  A    between atoms: N_19  and  C_20
REMARK   14  A    between atoms: C_35  and  O_36
REMARK   15  A    between atoms: O_36  and  C_37
REMARK   16  A    between atoms: C_38  and  O_39
REMARK   17  A    between atoms: O_39  and  C_40
REMARK                            x       y       z     vdW  Elec       q    Type
REMARK                         _______ _______ _______ _____ _____    ______ ____
ROOT
ATOM      1  C   UNL A   1      43.966 -15.354 -41.429  0.00  0.00    -0.045 C 
ENDROOT
BRANCH   1   2
ATOM      2  C   UNL A   1      42.659 -14.557 -41.478  0.00  0.00    -0.053 C 
BRANCH   2   3
ATOM      3  C   UNL A   1      42.179 -14.181 -40.075  0.00  0.00    -0.053 C 
BRANCH   3   4
ATOM      4  C   UNL A   1      42.401 -15.331 -39.092  0.00  0.00    -0.052 C 
BRANCH   4   5
ATOM      5  C   UNL A   1      43.151 -14.868 -37.843  0.00  0.00    -0.037 C 
BRANCH   5   6
ATOM      6  C   UNL A   1      44.102 -15.952 -37.339  0.00  0.00    +0.012 C 
BRANCH   6   9
ATOM      7  C   UNL A   1      43.223 -17.898 -36.102  0.00  0.00    +0.244 C 
ATOM      8  O   UNL A   1      43.506 -17.430 -35.006  0.00  0.00    -0.270 OA
ATOM      9  N   UNL A   1      43.461 -17.251 -37.298  0.00  0.00    -0.311 N 
ATOM     10  H   UNL A   1      43.189 -17.681 -38.141  0.00  0.00    +0.000 HD
BRANCH   7  13
ATOM     11  C   UNL A   1      42.174 -21.297 -37.421  0.00  0.00    +0.166 A 
ATOM     12  C   UNL A   1      42.752 -20.028 -37.361  0.00  0.00    -0.004 A 
ATOM     13  C   UNL A   1      42.622 -19.255 -36.199  0.00  0.00    +0.044 A 
ATOM     14  C   UNL A   1      41.894 -19.732 -35.100  0.00  0.00    -0.004 A 
ATOM     15  C   UNL A   1      41.311 -20.997 -35.142  0.00  0.00    +0.166 A 
ATOM     16  C   UNL A   1      41.448 -21.767 -36.311  0.00  0.00    +0.204 A 
BRANCH  11  18
ATOM     17  C   UNL A   1      41.714 -21.676 -39.736  0.00  0.00    +0.079 C 
ATOM     18  O   UNL A   1      42.241 -22.139 -38.502  0.00  0.00    -0.491 OA
ENDBRANCH  11  18
BRANCH  15  19
ATOM     19  O   UNL A   1      40.595 -21.565 -34.120  0.00  0.00    -0.491 OA
ATOM     20  C   UNL A   1      41.295 -21.875 -32.922  0.00  0.00    +0.079 C 
ENDBRANCH  15  19
BRANCH  16  21
ATOM     21  O   UNL A   1      40.920 -23.040 -36.347  0.00  0.00    -0.488 OA
ATOM     22  C   UNL A   1      39.555 -22.985 -36.760  0.00  0.00    +0.079 C 
ENDBRANCH  16  21
ENDBRANCH   7  13
ENDBRANCH   6   9
ENDBRANCH   5   6
ENDBRANCH   4   5
ENDBRANCH   3   4
ENDBRANCH   2   3
ENDBRANCH   1   2
BRANCH   1  23
ATOM     23  C   UNL A   1      45.181 -14.452 -41.217  0.00  0.00    +0.025 C 
BRANCH  23  24
ATOM     24  C   UNL A   1      46.399 -15.201 -40.713  0.00  0.00    +0.229 C 
ATOM     25  O   UNL A   1      47.526 -14.716 -40.634  0.00  0.00    -0.274 OA
ATOM     26  N   UNL A   1      46.105 -16.484 -40.283  0.00  0.00    -0.236 N 
ATOM     27  H   UNL A   1      45.176 -16.796 -40.187  0.00  0.00    +0.000 HD
BRANCH  26  28
ATOM     28  N   UNL A   1      47.207 -17.325 -39.988  0.00  0.00    -0.264 N 
ATOM     29  H   UNL A   1      48.149 -17.108 -40.170  0.00  0.00    +0.000 HD
BRANCH  28  30
ATOM     30  C   UNL A   1      46.744 -18.537 -39.385  0.00  0.00    +0.058 A 
ATOM     31  C   UNL A   1      46.823 -18.653 -37.982  0.00  0.00    -0.003 A 
ATOM     32  C   UNL A   1      46.457 -19.870 -37.410  0.00  0.00    +0.047 A 
ATOM     33  N   UNL A   1      46.016 -20.923 -38.138  0.00  0.00    -0.251 NA
ATOM     34  C   UNL A   1      45.944 -20.812 -39.472  0.00  0.00    +0.073 A 
ATOM     35  C   UNL A   1      45.499 -21.915 -40.190  0.00  0.00    -0.036 A 
ATOM     36  C   UNL A   1      45.402 -21.904 -41.582  0.00  0.00    -0.060 A 
ATOM     37  C   UNL A   1      45.761 -20.764 -42.283  0.00  0.00    -0.061 A 
ATOM     38  C   UNL A   1      46.208 -19.642 -41.584  0.00  0.00    -0.051 A 
ATOM     39  C   UNL A   1      46.304 -19.641 -40.168  0.00  0.00    +0.023 A 
ATOM     40  C   UNL A   1      46.468 -20.080 -35.918  0.00  0.00    -0.010 C 
ATOM     41  C   UNL A   1      47.337 -19.074 -35.173  0.00  0.00    -0.047 C 
ATOM     42  C   UNL A   1      47.015 -17.663 -35.644  0.00  0.00    -0.049 C 
ATOM     43  C   UNL A   1      47.328 -17.512 -37.131  0.00  0.00    -0.024 C 
ENDBRANCH  28  30
ENDBRANCH  26  28
ENDBRANCH  23  24
ENDBRANCH   1  23
TORSDOF 14
ENDMDL
MODEL 15
REMARK VINA RESULT:    -7.397     18.366     22.121
REMARK INTER + INTRA:         -14.015
REMARK INTER:                 -11.605
REMARK INTRA:                  -2.410
REMARK UNBOUND:                -0.564
REMARK  Name = cpd73.pdb
REMARK  17 active torsions:
REMARK  status: ('A' for Active; 'I' for Inactive)
REMARK    1  A    between atoms: C_1  and  O_2
REMARK    2  A    between atoms: O_2  and  C_3
REMARK    3  A    between atoms: C_5  and  C_6
REMARK    4  A    between atoms: N_8  and  C_9
REMARK    5  A    between atoms: C_9  and  C_10
REMARK    6  A    between atoms: C_10  and  C_11
REMARK    7  A    between atoms: C_11  and  C_12
REMARK    8  A    between atoms: C_12  and  C_13
REMARK    9  A    between atoms: C_13  and  C_14
REMARK   10  A    between atoms: C_14  and  C_15
REMARK   11  A    between atoms: C_15  and  C_16
REMARK   12  A    between atoms: N_18  and  N_19
REMARK   13  A    between atoms: N_19  and  C_20
REMARK   14  A    between atoms: C_35  and  O_36
REMARK   15  A    between atoms: O_36  and  C_37
REMARK   16  A    between atoms: C_38  and  O_39
REMARK   17  A    between atoms: O_39  and  C_40
REMARK                            x       y       z     vdW  Elec       q    Type
REMARK                         _______ _______ _______ _____ _____    ______ ____
ROOT
ATOM      1  C   UNL A   1      45.641 -18.046 -36.980  0.00  0.00    -0.045 C 
ENDROOT
BRANCH   1   2
ATOM      2  C   UNL A   1      47.019 -18.349 -37.578  0.00  0.00    -0.053 C 
BRANCH   2   3
ATOM      3  C   UNL A   1      47.220 -19.851 -37.792  0.00  0.00    -0.053 C 
BRANCH   3   4
ATOM      4  C   UNL A   1      45.992 -20.480 -38.453  0.00  0.00    -0.052 C 
BRANCH   4   5
ATOM      5  C   UNL A   1      46.381 -21.351 -39.648  0.00  0.00    -0.037 C 
BRANCH   5   6
ATOM      6  C   UNL A   1      45.761 -20.820 -40.940  0.00  0.00    +0.012 C 
BRANCH   6   9
ATOM      7  C   UNL A   1      44.664 -18.611 -40.943  0.00  0.00    +0.244 C 
ATOM      8  O   UNL A   1      43.541 -19.079 -40.810  0.00  0.00    -0.270 OA
ATOM      9  N   UNL A   1      45.812 -19.374 -41.005  0.00  0.00    -0.311 N 
ATOM     10  H   UNL A   1      46.685 -18.926 -41.095  0.00  0.00    +0.000 HD
BRANCH   7  13
ATOM     11  C   UNL A   1      43.983 -14.937 -41.605  0.00  0.00    +0.166 A 
ATOM     12  C   UNL A   1      43.781 -16.312 -41.473  0.00  0.00    -0.004 A 
ATOM     13  C   UNL A   1      44.844 -17.142 -41.091  0.00  0.00    +0.044 A 
ATOM     14  C   UNL A   1      46.122 -16.610 -40.864  0.00  0.00    -0.004 A 
ATOM     15  C   UNL A   1      46.342 -15.239 -40.991  0.00  0.00    +0.166 A 
ATOM     16  C   UNL A   1      45.269 -14.413 -41.372  0.00  0.00    +0.204 A 
BRANCH  11  18
ATOM     17  C   UNL A   1      41.799 -14.038 -41.237  0.00  0.00    +0.079 C 
ATOM     18  O   UNL A   1      43.017 -14.034 -41.967  0.00  0.00    -0.491 OA
ENDBRANCH  11  18
BRANCH  15  19
ATOM     19  O   UNL A   1      47.543 -14.614 -40.776  0.00  0.00    -0.491 OA
ATOM     20  C   UNL A   1      48.139 -14.762 -39.494  0.00  0.00    +0.079 C 
ENDBRANCH  15  19
BRANCH  16  21
ATOM     21  O   UNL A   1      45.460 -13.051 -41.452  0.00  0.00    -0.488 OA
ATOM     22  C   UNL A   1      45.191 -12.449 -40.187  0.00  0.00    +0.079 C 
ENDBRANCH  16  21
ENDBRANCH   7  13
ENDBRANCH   6   9
ENDBRANCH   5   6
ENDBRANCH   4   5
ENDBRANCH   3   4
ENDBRANCH   2   3
ENDBRANCH   1   2
BRANCH   1  23
ATOM     23  C   UNL A   1      45.658 -18.089 -35.453  0.00  0.00    +0.025 C 
BRANCH  23  24
ATOM     24  C   UNL A   1      44.935 -19.294 -34.883  0.00  0.00    +0.229 C 
ATOM     25  O   UNL A   1      45.224 -19.834 -33.818  0.00  0.00    -0.274 OA
ATOM     26  N   UNL A   1      43.860 -19.695 -35.658  0.00  0.00    -0.236 N 
ATOM     27  H   UNL A   1      43.533 -19.151 -36.410  0.00  0.00    +0.000 HD
BRANCH  26  28
ATOM     28  N   UNL A   1      43.252 -20.929 -35.314  0.00  0.00    -0.264 N 
ATOM     29  H   UNL A   1      43.698 -21.665 -34.836  0.00  0.00    +0.000 HD
BRANCH  28  30
ATOM     30  C   UNL A   1      41.895 -20.944 -35.766  0.00  0.00    +0.058 A 
ATOM     31  C   UNL A   1      40.878 -20.704 -34.819  0.00  0.00    -0.003 A 
ATOM     32  C   UNL A   1      39.556 -20.812 -35.247  0.00  0.00    +0.047 A 
ATOM     33  N   UNL A   1      39.217 -21.113 -36.522  0.00  0.00    -0.251 NA
ATOM     34  C   UNL A   1      40.185 -21.344 -37.420  0.00  0.00    +0.073 A 
ATOM     35  C   UNL A   1      39.802 -21.664 -38.717  0.00  0.00    -0.036 A 
ATOM     36  C   UNL A   1      40.734 -21.934 -39.719  0.00  0.00    -0.060 A 
ATOM     37  C   UNL A   1      42.087 -21.889 -39.425  0.00  0.00    -0.061 A 
ATOM     38  C   UNL A   1      42.497 -21.568 -38.131  0.00  0.00    -0.051 A 
ATOM     39  C   UNL A   1      41.557 -21.285 -37.106  0.00  0.00    +0.023 A 
ATOM     40  C   UNL A   1      38.399 -20.535 -34.323  0.00  0.00    -0.010 C 
ATOM     41  C   UNL A   1      38.772 -20.613 -32.847  0.00  0.00    -0.047 C 
ATOM     42  C   UNL A   1      40.037 -19.806 -32.590  0.00  0.00    -0.049 C 
ATOM     43  C   UNL A   1      41.209 -20.384 -33.381  0.00  0.00    -0.024 C 
ENDBRANCH  28  30
ENDBRANCH  26  28
ENDBRANCH  23  24
ENDBRANCH   1  23
TORSDOF 14
ENDMDL
MODEL 16
REMARK VINA RESULT:    -7.346     17.110     20.061
REMARK INTER + INTRA:         -13.923
REMARK INTER:                 -11.838
REMARK INTRA:                  -2.086
REMARK UNBOUND:                -0.564
REMARK  Name = cpd73.pdb
REMARK  17 active torsions:
REMARK  status: ('A' for Active; 'I' for Inactive)
REMARK    1  A    between atoms: C_1  and  O_2
REMARK    2  A    between atoms: O_2  and  C_3
REMARK    3  A    between atoms: C_5  and  C_6
REMARK    4  A    between atoms: N_8  and  C_9
REMARK    5  A    between atoms: C_9  and  C_10
REMARK    6  A    between atoms: C_10  and  C_11
REMARK    7  A    between atoms: C_11  and  C_12
REMARK    8  A    between atoms: C_12  and  C_13
REMARK    9  A    between atoms: C_13  and  C_14
REMARK   10  A    between atoms: C_14  and  C_15
REMARK   11  A    between atoms: C_15  and  C_16
REMARK   12  A    between atoms: N_18  and  N_19
REMARK   13  A    between atoms: N_19  and  C_20
REMARK   14  A    between atoms: C_35  and  O_36
REMARK   15  A    between atoms: O_36  and  C_37
REMARK   16  A    between atoms: C_38  and  O_39
REMARK   17  A    between atoms: O_39  and  C_40
REMARK                            x       y       z     vdW  Elec       q    Type
REMARK                         _______ _______ _______ _____ _____    ______ ____
ROOT
ATOM      1  C   UNL A   1      43.312 -19.999 -36.690  0.00  0.00    -0.045 C 
ENDROOT
BRANCH   1   2
ATOM      2  C   UNL A   1      44.751 -20.395 -37.035  0.00  0.00    -0.053 C 
BRANCH   2   3
ATOM      3  C   UNL A   1      45.655 -19.168 -37.169  0.00  0.00    -0.053 C 
BRANCH   3   4
ATOM      4  C   UNL A   1      45.964 -18.562 -35.798  0.00  0.00    -0.052 C 
BRANCH   4   5
ATOM      5  C   UNL A   1      45.456 -17.124 -35.691  0.00  0.00    -0.037 C 
BRANCH   5   6
ATOM      6  C   UNL A   1      44.867 -16.851 -34.309  0.00  0.00    +0.012 C 
BRANCH   6   9
ATOM      7  C   UNL A   1      43.434 -18.273 -32.891  0.00  0.00    +0.244 C 
ATOM      8  O   UNL A   1      44.213 -18.255 -31.947  0.00  0.00    -0.270 OA
ATOM      9  N   UNL A   1      43.655 -17.611 -34.082  0.00  0.00    -0.311 N 
ATOM     10  H   UNL A   1      42.974 -17.656 -34.792  0.00  0.00    +0.000 HD
BRANCH   7  13
ATOM     11  C   UNL A   1      41.008 -21.190 -32.896  0.00  0.00    +0.166 A 
ATOM     12  C   UNL A   1      42.199 -20.466 -32.977  0.00  0.00    -0.004 A 
ATOM     13  C   UNL A   1      42.185 -19.075 -32.809  0.00  0.00    +0.044 A 
ATOM     14  C   UNL A   1      40.979 -18.393 -32.586  0.00  0.00    -0.004 A 
ATOM     15  C   UNL A   1      39.781 -19.100 -32.501  0.00  0.00    +0.166 A 
ATOM     16  C   UNL A   1      39.805 -20.496 -32.668  0.00  0.00    +0.204 A 
BRANCH  11  18
ATOM     17  C   UNL A   1      41.328 -23.364 -31.955  0.00  0.00    +0.079 C 
ATOM     18  O   UNL A   1      40.905 -22.550 -33.039  0.00  0.00    -0.491 OA
ENDBRANCH  11  18
BRANCH  15  19
ATOM     19  O   UNL A   1      38.553 -18.536 -32.269  0.00  0.00    -0.491 OA
ATOM     20  C   UNL A   1      38.049 -17.637 -33.249  0.00  0.00    +0.079 C 
ENDBRANCH  15  19
BRANCH  16  21
ATOM     21  O   UNL A   1      38.634 -21.212 -32.537  0.00  0.00    -0.488 OA
ATOM     22  C   UNL A   1      38.026 -21.382 -33.816  0.00  0.00    +0.079 C 
ENDBRANCH  16  21
ENDBRANCH   7  13
ENDBRANCH   6   9
ENDBRANCH   5   6
ENDBRANCH   4   5
ENDBRANCH   3   4
ENDBRANCH   2   3
ENDBRANCH   1   2
BRANCH   1  23
ATOM     23  C   UNL A   1      42.289 -20.894 -37.388  0.00  0.00    +0.025 C 
BRANCH  23  24
ATOM     24  C   UNL A   1      42.604 -21.128 -38.853  0.00  0.00    +0.229 C 
ATOM     25  O   UNL A   1      42.621 -22.234 -39.389  0.00  0.00    -0.274 OA
ATOM     26  N   UNL A   1      42.811 -19.952 -39.556  0.00  0.00    -0.236 N 
ATOM     27  H   UNL A   1      42.621 -19.073 -39.157  0.00  0.00    +0.000 HD
BRANCH  26  28
ATOM     28  N   UNL A   1      43.307 -20.079 -40.877  0.00  0.00    -0.264 N 
ATOM     29  H   UNL A   1      42.780 -20.374 -41.654  0.00  0.00    +0.000 HD
BRANCH  28  30
ATOM     30  C   UNL A   1      44.690 -19.714 -40.913  0.00  0.00    +0.058 A 
ATOM     31  C   UNL A   1      45.030 -18.374 -40.636  0.00  0.00    -0.003 A 
ATOM     32  C   UNL A   1      46.369 -18.006 -40.763  0.00  0.00    +0.047 A 
ATOM     33  N   UNL A   1      47.342 -18.877 -41.117  0.00  0.00    -0.251 NA
ATOM     34  C   UNL A   1      47.016 -20.150 -41.382  0.00  0.00    +0.073 A 
ATOM     35  C   UNL A   1      48.038 -21.015 -41.755  0.00  0.00    -0.036 A 
ATOM     36  C   UNL A   1      47.799 -22.354 -42.064  0.00  0.00    -0.060 A 
ATOM     37  C   UNL A   1      46.506 -22.849 -42.005  0.00  0.00    -0.061 A 
ATOM     38  C   UNL A   1      45.464 -22.002 -41.631  0.00  0.00    -0.051 A 
ATOM     39  C   UNL A   1      45.697 -20.639 -41.308  0.00  0.00    +0.023 A 
ATOM     40  C   UNL A   1      46.839 -16.609 -40.451  0.00  0.00    -0.010 C 
ATOM     41  C   UNL A   1      45.718 -15.576 -40.468  0.00  0.00    -0.047 C 
ATOM     42  C   UNL A   1      44.538 -16.080 -39.650  0.00  0.00    -0.049 C 
ATOM     43  C   UNL A   1      43.975 -17.363 -40.257  0.00  0.00    -0.024 C 
ENDBRANCH  28  30
ENDBRANCH  26  28
ENDBRANCH  23  24
ENDBRANCH   1  23
TORSDOF 14
ENDMDL
MODEL 17
REMARK VINA RESULT:    -7.276     16.526     19.408
REMARK INTER + INTRA:         -13.795
REMARK INTER:                 -11.403
REMARK INTRA:                  -2.393
REMARK UNBOUND:                -0.564
REMARK  Name = cpd73.pdb
REMARK  17 active torsions:
REMARK  status: ('A' for Active; 'I' for Inactive)
REMARK    1  A    between atoms: C_1  and  O_2
REMARK    2  A    between atoms: O_2  and  C_3
REMARK    3  A    between atoms: C_5  and  C_6
REMARK    4  A    between atoms: N_8  and  C_9
REMARK    5  A    between atoms: C_9  and  C_10
REMARK    6  A    between atoms: C_10  and  C_11
REMARK    7  A    between atoms: C_11  and  C_12
REMARK    8  A    between atoms: C_12  and  C_13
REMARK    9  A    between atoms: C_13  and  C_14
REMARK   10  A    between atoms: C_14  and  C_15
REMARK   11  A    between atoms: C_15  and  C_16
REMARK   12  A    between atoms: N_18  and  N_19
REMARK   13  A    between atoms: N_19  and  C_20
REMARK   14  A    between atoms: C_35  and  O_36
REMARK   15  A    between atoms: O_36  and  C_37
REMARK   16  A    between atoms: C_38  and  O_39
REMARK   17  A    between atoms: O_39  and  C_40
REMARK                            x       y       z     vdW  Elec       q    Type
REMARK                         _______ _______ _______ _____ _____    ______ ____
ROOT
ATOM      1  C   UNL A   1      47.254 -16.659 -37.580  0.00  0.00    -0.045 C 
ENDROOT
BRANCH   1   2
ATOM      2  C   UNL A   1      46.847 -15.260 -37.105  0.00  0.00    -0.053 C 
BRANCH   2   3
ATOM      3  C   UNL A   1      45.326 -15.090 -37.097  0.00  0.00    -0.053 C 
BRANCH   3   4
ATOM      4  C   UNL A   1      44.762 -15.256 -35.685  0.00  0.00    -0.052 C 
BRANCH   4   5
ATOM      5  C   UNL A   1      43.806 -16.445 -35.597  0.00  0.00    -0.037 C 
BRANCH   5   6
ATOM      6  C   UNL A   1      43.695 -16.956 -34.161  0.00  0.00    +0.012 C 
BRANCH   6   9
ATOM      7  C   UNL A   1      42.757 -19.201 -33.759  0.00  0.00    +0.244 C 
ATOM      8  O   UNL A   1      43.857 -19.728 -33.647  0.00  0.00    -0.270 OA
ATOM      9  N   UNL A   1      42.571 -17.855 -33.998  0.00  0.00    -0.311 N 
ATOM     10  H   UNL A   1      41.655 -17.498 -34.058  0.00  0.00    +0.000 HD
BRANCH   7  13
ATOM     11  C   UNL A   1      39.267 -20.553 -34.384  0.00  0.00    +0.166 A 
ATOM     12  C   UNL A   1      40.410 -19.757 -34.485  0.00  0.00    -0.004 A 
ATOM     13  C   UNL A   1      41.525 -20.030 -33.680  0.00  0.00    +0.044 A 
ATOM     14  C   UNL A   1      41.497 -21.080 -32.751  0.00  0.00    -0.004 A 
ATOM     15  C   UNL A   1      40.365 -21.885 -32.638  0.00  0.00    +0.166 A 
ATOM     16  C   UNL A   1      39.251 -21.606 -33.451  0.00  0.00    +0.204 A 
BRANCH  11  18
ATOM     17  C   UNL A   1      38.254 -20.316 -36.536  0.00  0.00    +0.079 C 
ATOM     18  O   UNL A   1      38.125 -20.381 -35.123  0.00  0.00    -0.491 OA
ENDBRANCH  11  18
BRANCH  15  19
ATOM     19  O   UNL A   1      40.239 -22.945 -31.777  0.00  0.00    -0.491 OA
ATOM     20  C   UNL A   1      41.250 -23.944 -31.815  0.00  0.00    +0.079 C 
ENDBRANCH  15  19
BRANCH  16  21
ATOM     21  O   UNL A   1      38.145 -22.424 -33.385  0.00  0.00    -0.488 OA
ATOM     22  C   UNL A   1      38.309 -23.533 -34.267  0.00  0.00    +0.079 C 
ENDBRANCH  16  21
ENDBRANCH   7  13
ENDBRANCH   6   9
ENDBRANCH   5   6
ENDBRANCH   4   5
ENDBRANCH   3   4
ENDBRANCH   2   3
ENDBRANCH   1   2
BRANCH   1  23
ATOM     23  C   UNL A   1      47.605 -17.580 -36.412  0.00  0.00    +0.025 C 
BRANCH  23  24
ATOM     24  C   UNL A   1      46.827 -18.882 -36.426  0.00  0.00    +0.229 C 
ATOM     25  O   UNL A   1      46.207 -19.327 -35.462  0.00  0.00    -0.274 OA
ATOM     26  N   UNL A   1      46.827 -19.498 -37.665  0.00  0.00    -0.236 N 
ATOM     27  H   UNL A   1      47.175 -19.046 -38.467  0.00  0.00    +0.000 HD
BRANCH  26  28
ATOM     28  N   UNL A   1      46.299 -20.813 -37.723  0.00  0.00    -0.264 N 
ATOM     29  H   UNL A   1      46.548 -21.549 -37.118  0.00  0.00    +0.000 HD
BRANCH  28  30
ATOM     30  C   UNL A   1      45.352 -20.909 -38.790  0.00  0.00    +0.058 A 
ATOM     31  C   UNL A   1      45.799 -21.406 -40.032  0.00  0.00    -0.003 A 
ATOM     32  C   UNL A   1      44.895 -21.411 -41.092  0.00  0.00    +0.047 A 
ATOM     33  N   UNL A   1      43.617 -20.981 -40.972  0.00  0.00    -0.251 NA
ATOM     34  C   UNL A   1      43.194 -20.506 -39.792  0.00  0.00    +0.073 A 
ATOM     35  C   UNL A   1      41.881 -20.061 -39.707  0.00  0.00    -0.036 A 
ATOM     36  C   UNL A   1      41.351 -19.538 -38.527  0.00  0.00    -0.060 A 
ATOM     37  C   UNL A   1      42.150 -19.449 -37.399  0.00  0.00    -0.061 A 
ATOM     38  C   UNL A   1      43.472 -19.891 -37.458  0.00  0.00    -0.051 A 
ATOM     39  C   UNL A   1      44.018 -20.432 -38.651  0.00  0.00    +0.023 A 
ATOM     40  C   UNL A   1      45.264 -21.959 -42.446  0.00  0.00    -0.010 C 
ATOM     41  C   UNL A   1      46.769 -22.039 -42.676  0.00  0.00    -0.047 C 
ATOM     42  C   UNL A   1      47.439 -22.705 -41.483  0.00  0.00    -0.049 C 
ATOM     43  C   UNL A   1      47.222 -21.878 -40.217  0.00  0.00    -0.024 C 
ENDBRANCH  28  30
ENDBRANCH  26  28
ENDBRANCH  23  24
ENDBRANCH   1  23
TORSDOF 14
ENDMDL
MODEL 18
REMARK VINA RESULT:    -7.155     17.242     19.834
REMARK INTER + INTRA:         -13.575
REMARK INTER:                  -9.043
REMARK INTRA:                  -4.532
REMARK UNBOUND:                -0.564
REMARK  Name = cpd73.pdb
REMARK  17 active torsions:
REMARK  status: ('A' for Active; 'I' for Inactive)
REMARK    1  A    between atoms: C_1  and  O_2
REMARK    2  A    between atoms: O_2  and  C_3
REMARK    3  A    between atoms: C_5  and  C_6
REMARK    4  A    between atoms: N_8  and  C_9
REMARK    5  A    between atoms: C_9  and  C_10
REMARK    6  A    between atoms: C_10  and  C_11
REMARK    7  A    between atoms: C_11  and  C_12
REMARK    8  A    between atoms: C_12  and  C_13
REMARK    9  A    between atoms: C_13  and  C_14
REMARK   10  A    between atoms: C_14  and  C_15
REMARK   11  A    between atoms: C_15  and  C_16
REMARK   12  A    between atoms: N_18  and  N_19
REMARK   13  A    between atoms: N_19  and  C_20
REMARK   14  A    between atoms: C_35  and  O_36
REMARK   15  A    between atoms: O_36  and  C_37
REMARK   16  A    between atoms: C_38  and  O_39
REMARK   17  A    between atoms: O_39  and  C_40
REMARK                            x       y       z     vdW  Elec       q    Type
REMARK                         _______ _______ _______ _____ _____    ______ ____
ROOT
ATOM      1  C   UNL A   1      43.961 -16.760 -34.565  0.00  0.00    -0.045 C 
ENDROOT
BRANCH   1   2
ATOM      2  C   UNL A   1      44.967 -16.286 -35.619  0.00  0.00    -0.053 C 
BRANCH   2   3
ATOM      3  C   UNL A   1      44.896 -17.138 -36.887  0.00  0.00    -0.053 C 
BRANCH   3   4
ATOM      4  C   UNL A   1      44.247 -16.362 -38.034  0.00  0.00    -0.052 C 
BRANCH   4   5
ATOM      5  C   UNL A   1      44.005 -17.254 -39.252  0.00  0.00    -0.037 C 
BRANCH   5   6
ATOM      6  C   UNL A   1      42.518 -17.326 -39.594  0.00  0.00    +0.012 C 
BRANCH   6   9
ATOM      7  C   UNL A   1      40.434 -17.074 -38.298  0.00  0.00    +0.244 C 
ATOM      8  O   UNL A   1      39.887 -16.394 -39.157  0.00  0.00    -0.270 OA
ATOM      9  N   UNL A   1      41.709 -17.587 -38.420  0.00  0.00    -0.311 N 
ATOM     10  H   UNL A   1      42.077 -18.141 -37.695  0.00  0.00    +0.000 HD
BRANCH   7  13
ATOM     11  C   UNL A   1      37.712 -17.754 -35.743  0.00  0.00    +0.166 A 
ATOM     12  C   UNL A   1      38.340 -17.493 -36.962  0.00  0.00    -0.004 A 
ATOM     13  C   UNL A   1      39.734 -17.355 -37.016  0.00  0.00    +0.044 A 
ATOM     14  C   UNL A   1      40.508 -17.451 -35.851  0.00  0.00    -0.004 A 
ATOM     15  C   UNL A   1      39.898 -17.713 -34.625  0.00  0.00    +0.166 A 
ATOM     16  C   UNL A   1      38.499 -17.852 -34.580  0.00  0.00    +0.204 A 
BRANCH  11  18
ATOM     17  C   UNL A   1      35.761 -19.089 -36.097  0.00  0.00    +0.079 C 
ATOM     18  O   UNL A   1      36.361 -17.912 -35.575  0.00  0.00    -0.491 OA
ENDBRANCH  11  18
BRANCH  15  19
ATOM     19  O   UNL A   1      40.561 -17.842 -33.432  0.00  0.00    -0.491 OA
ATOM     20  C   UNL A   1      40.921 -16.648 -32.749  0.00  0.00    +0.079 C 
ENDBRANCH  15  19
BRANCH  16  21
ATOM     21  O   UNL A   1      37.889 -18.160 -33.384  0.00  0.00    -0.488 OA
ATOM     22  C   UNL A   1      37.348 -16.977 -32.798  0.00  0.00    +0.079 C 
ENDBRANCH  16  21
ENDBRANCH   7  13
ENDBRANCH   6   9
ENDBRANCH   5   6
ENDBRANCH   4   5
ENDBRANCH   3   4
ENDBRANCH   2   3
ENDBRANCH   1   2
BRANCH   1  23
ATOM     23  C   UNL A   1      44.636 -17.548 -33.443  0.00  0.00    +0.025 C 
BRANCH  23  24
ATOM     24  C   UNL A   1      44.536 -19.050 -33.627  0.00  0.00    +0.229 C 
ATOM     25  O   UNL A   1      45.491 -19.781 -33.880  0.00  0.00    -0.274 OA
ATOM     26  N   UNL A   1      43.257 -19.536 -33.416  0.00  0.00    -0.236 N 
ATOM     27  H   UNL A   1      42.544 -18.969 -33.043  0.00  0.00    +0.000 HD
BRANCH  26  28
ATOM     28  N   UNL A   1      43.025 -20.892 -33.761  0.00  0.00    -0.264 N 
ATOM     29  H   UNL A   1      43.540 -21.658 -33.420  0.00  0.00    +0.000 HD
BRANCH  28  30
ATOM     30  C   UNL A   1      41.932 -20.978 -34.680  0.00  0.00    +0.058 A 
ATOM     31  C   UNL A   1      40.642 -21.204 -34.158  0.00  0.00    -0.003 A 
ATOM     32  C   UNL A   1      39.598 -21.378 -35.064  0.00  0.00    +0.047 A 
ATOM     33  N   UNL A   1      39.769 -21.320 -36.405  0.00  0.00    -0.251 NA
ATOM     34  C   UNL A   1      40.997 -21.109 -36.900  0.00  0.00    +0.073 A 
ATOM     35  C   UNL A   1      41.138 -21.068 -38.282  0.00  0.00    -0.036 A 
ATOM     36  C   UNL A   1      42.376 -20.866 -38.894  0.00  0.00    -0.060 A 
ATOM     37  C   UNL A   1      43.508 -20.704 -38.110  0.00  0.00    -0.061 A 
ATOM     38  C   UNL A   1      43.390 -20.739 -36.721  0.00  0.00    -0.051 A 
ATOM     39  C   UNL A   1      42.135 -20.936 -36.088  0.00  0.00    +0.023 A 
ATOM     40  C   UNL A   1      38.177 -21.585 -34.606  0.00  0.00    -0.010 C 
ATOM     41  C   UNL A   1      38.071 -22.056 -33.160  0.00  0.00    -0.047 C 
ATOM     42  C   UNL A   1      38.939 -21.181 -32.266  0.00  0.00    -0.049 C 
ATOM     43  C   UNL A   1      40.408 -21.296 -32.670  0.00  0.00    -0.024 C 
ENDBRANCH  28  30
ENDBRANCH  26  28
ENDBRANCH  23  24
ENDBRANCH   1  23
TORSDOF 14
ENDMDL
MODEL 19
REMARK VINA RESULT:    -7.155     18.278     21.757
REMARK INTER + INTRA:         -13.575
REMARK INTER:                 -10.695
REMARK INTRA:                  -2.880
REMARK UNBOUND:                -0.564
REMARK  Name = cpd73.pdb
REMARK  17 active torsions:
REMARK  status: ('A' for Active; 'I' for Inactive)
REMARK    1  A    between atoms: C_1  and  O_2
REMARK    2  A    between atoms: O_2  and  C_3
REMARK    3  A    between atoms: C_5  and  C_6
REMARK    4  A    between atoms: N_8  and  C_9
REMARK    5  A    between atoms: C_9  and  C_10
REMARK    6  A    between atoms: C_10  and  C_11
REMARK    7  A    between atoms: C_11  and  C_12
REMARK    8  A    between atoms: C_12  and  C_13
REMARK    9  A    between atoms: C_13  and  C_14
REMARK   10  A    between atoms: C_14  and  C_15
REMARK   11  A    between atoms: C_15  and  C_16
REMARK   12  A    between atoms: N_18  and  N_19
REMARK   13  A    between atoms: N_19  and  C_20
REMARK   14  A    between atoms: C_35  and  O_36
REMARK   15  A    between atoms: O_36  and  C_37
REMARK   16  A    between atoms: C_38  and  O_39
REMARK   17  A    between atoms: O_39  and  C_40
REMARK                            x       y       z     vdW  Elec       q    Type
REMARK                         _______ _______ _______ _____ _____    ______ ____
ROOT
ATOM      1  C   UNL A   1      43.079 -15.063 -34.752  0.00  0.00    -0.045 C 
ENDROOT
BRANCH   1   2
ATOM      2  C   UNL A   1      44.373 -14.621 -35.443  0.00  0.00    -0.053 C 
BRANCH   2   3
ATOM      3  C   UNL A   1      44.990 -15.758 -36.260  0.00  0.00    -0.053 C 
BRANCH   3   4
ATOM      4  C   UNL A   1      44.256 -15.938 -37.590  0.00  0.00    -0.052 C 
BRANCH   4   5
ATOM      5  C   UNL A   1      44.529 -14.777 -38.546  0.00  0.00    -0.037 C 
BRANCH   5   6
ATOM      6  C   UNL A   1      44.333 -15.203 -39.999  0.00  0.00    +0.012 C 
BRANCH   6   9
ATOM      7  C   UNL A   1      45.792 -17.117 -40.538  0.00  0.00    +0.244 C 
ATOM      8  O   UNL A   1      46.781 -16.417 -40.713  0.00  0.00    -0.270 OA
ATOM      9  N   UNL A   1      44.555 -16.624 -40.176  0.00  0.00    -0.311 N 
ATOM     10  H   UNL A   1      43.808 -17.250 -40.035  0.00  0.00    +0.000 HD
BRANCH   7  13
ATOM     11  C   UNL A   1      44.875 -20.793 -40.749  0.00  0.00    +0.166 A 
ATOM     12  C   UNL A   1      44.766 -19.418 -40.538  0.00  0.00    -0.004 A 
ATOM     13  C   UNL A   1      45.873 -18.586 -40.756  0.00  0.00    +0.044 A 
ATOM     14  C   UNL A   1      47.103 -19.124 -41.161  0.00  0.00    -0.004 A 
ATOM     15  C   UNL A   1      47.231 -20.495 -41.377  0.00  0.00    +0.166 A 
ATOM     16  C   UNL A   1      46.114 -21.322 -41.158  0.00  0.00    +0.204 A 
BRANCH  11  18
ATOM     17  C   UNL A   1      42.525 -21.227 -40.696  0.00  0.00    +0.079 C 
ATOM     18  O   UNL A   1      43.859 -21.697 -40.572  0.00  0.00    -0.491 OA
ENDBRANCH  11  18
BRANCH  15  19
ATOM     19  O   UNL A   1      48.379 -21.121 -41.789  0.00  0.00    -0.491 OA
ATOM     20  C   UNL A   1      49.062 -21.929 -40.839  0.00  0.00    +0.079 C 
ENDBRANCH  15  19
BRANCH  16  21
ATOM     21  O   UNL A   1      46.212 -22.672 -41.417  0.00  0.00    -0.488 OA
ATOM     22  C   UNL A   1      46.081 -22.908 -42.817  0.00  0.00    +0.079 C 
ENDBRANCH  16  21
ENDBRANCH   7  13
ENDBRANCH   6   9
ENDBRANCH   5   6
ENDBRANCH   4   5
ENDBRANCH   3   4
ENDBRANCH   2   3
ENDBRANCH   1   2
BRANCH   1  23
ATOM     23  C   UNL A   1      43.261 -15.222 -33.243  0.00  0.00    +0.025 C 
BRANCH  23  24
ATOM     24  C   UNL A   1      43.934 -16.525 -32.858  0.00  0.00    +0.229 C 
ATOM     25  O   UNL A   1      44.929 -16.605 -32.141  0.00  0.00    -0.274 OA
ATOM     26  N   UNL A   1      43.272 -17.639 -33.347  0.00  0.00    -0.236 N 
ATOM     27  H   UNL A   1      42.385 -17.570 -33.767  0.00  0.00    +0.000 HD
BRANCH  26  28
ATOM     28  N   UNL A   1      43.935 -18.885 -33.210  0.00  0.00    -0.264 N 
ATOM     29  H   UNL A   1      44.271 -19.257 -32.363  0.00  0.00    +0.000 HD
BRANCH  28  30
ATOM     30  C   UNL A   1      44.045 -19.519 -34.488  0.00  0.00    +0.058 A 
ATOM     31  C   UNL A   1      45.236 -19.337 -35.219  0.00  0.00    -0.003 A 
ATOM     32  C   UNL A   1      45.299 -19.881 -36.501  0.00  0.00    +0.047 A 
ATOM     33  N   UNL A   1      44.282 -20.583 -37.054  0.00  0.00    -0.251 NA
ATOM     34  C   UNL A   1      43.149 -20.751 -36.359  0.00  0.00    +0.073 A 
ATOM     35  C   UNL A   1      42.121 -21.466 -36.962  0.00  0.00    -0.036 A 
ATOM     36  C   UNL A   1      40.899 -21.684 -36.325  0.00  0.00    -0.060 A 
ATOM     37  C   UNL A   1      40.689 -21.175 -35.054  0.00  0.00    -0.061 A 
ATOM     38  C   UNL A   1      41.707 -20.456 -34.427  0.00  0.00    -0.051 A 
ATOM     39  C   UNL A   1      42.957 -20.235 -35.062  0.00  0.00    +0.023 A 
ATOM     40  C   UNL A   1      46.542 -19.776 -37.346  0.00  0.00    -0.010 C 
ATOM     41  C   UNL A   1      47.485 -18.664 -36.900  0.00  0.00    -0.047 C 
ATOM     42  C   UNL A   1      47.706 -18.746 -35.396  0.00  0.00    -0.049 C 
ATOM     43  C   UNL A   1      46.389 -18.545 -34.650  0.00  0.00    -0.024 C 
ENDBRANCH  28  30
ENDBRANCH  26  28
ENDBRANCH  23  24
ENDBRANCH   1  23
TORSDOF 14
ENDMDL
MODEL 20
REMARK VINA RESULT:    -7.121     18.181     21.802
REMARK INTER + INTRA:         -13.513
REMARK INTER:                  -8.768
REMARK INTRA:                  -4.745
REMARK UNBOUND:                -0.564
REMARK  Name = cpd73.pdb
REMARK  17 active torsions:
REMARK  status: ('A' for Active; 'I' for Inactive)
REMARK    1  A    between atoms: C_1  and  O_2
REMARK    2  A    between atoms: O_2  and  C_3
REMARK    3  A    between atoms: C_5  and  C_6
REMARK    4  A    between atoms: N_8  and  C_9
REMARK    5  A    between atoms: C_9  and  C_10
REMARK    6  A    between atoms: C_10  and  C_11
REMARK    7  A    between atoms: C_11  and  C_12
REMARK    8  A    between atoms: C_12  and  C_13
REMARK    9  A    between atoms: C_13  and  C_14
REMARK   10  A    between atoms: C_14  and  C_15
REMARK   11  A    between atoms: C_15  and  C_16
REMARK   12  A    between atoms: N_18  and  N_19
REMARK   13  A    between atoms: N_19  and  C_20
REMARK   14  A    between atoms: C_35  and  O_36
REMARK   15  A    between atoms: O_36  and  C_37
REMARK   16  A    between atoms: C_38  and  O_39
REMARK   17  A    between atoms: O_39  and  C_40
REMARK                            x       y       z     vdW  Elec       q    Type
REMARK                         _______ _______ _______ _____ _____    ______ ____
ROOT
ATOM      1  C   UNL A   1      42.958 -19.802 -33.801  0.00  0.00    -0.045 C 
ENDROOT
BRANCH   1   2
ATOM      2  C   UNL A   1      41.862 -19.475 -32.782  0.00  0.00    -0.053 C 
BRANCH   2   3
ATOM      3  C   UNL A   1      40.472 -19.815 -33.324  0.00  0.00    -0.053 C 
BRANCH   3   4
ATOM      4  C   UNL A   1      40.496 -19.954 -34.848  0.00  0.00    -0.052 C 
BRANCH   4   5
ATOM      5  C   UNL A   1      39.320 -20.789 -35.355  0.00  0.00    -0.037 C 
BRANCH   5   6
ATOM      6  C   UNL A   1      39.611 -21.362 -36.741  0.00  0.00    +0.012 C 
BRANCH   6   9
ATOM      7  C   UNL A   1      41.232 -20.774 -38.504  0.00  0.00    +0.244 C 
ATOM      8  O   UNL A   1      40.385 -20.753 -39.388  0.00  0.00    -0.270 OA
ATOM      9  N   UNL A   1      40.955 -21.047 -37.180  0.00  0.00    -0.311 N 
ATOM     10  H   UNL A   1      41.686 -21.028 -36.521  0.00  0.00    +0.000 HD
BRANCH   7  13
ATOM     11  C   UNL A   1      44.482 -20.439 -40.434  0.00  0.00    +0.166 A 
ATOM     12  C   UNL A   1      43.134 -20.668 -40.152  0.00  0.00    -0.004 A 
ATOM     13  C   UNL A   1      42.661 -20.534 -38.840  0.00  0.00    +0.044 A 
ATOM     14  C   UNL A   1      43.534 -20.197 -37.795  0.00  0.00    -0.004 A 
ATOM     15  C   UNL A   1      44.883 -19.963 -38.058  0.00  0.00    +0.166 A 
ATOM     16  C   UNL A   1      45.349 -20.097 -39.379  0.00  0.00    +0.204 A 
BRANCH  11  18
ATOM     17  C   UNL A   1      44.384 -19.906 -42.762  0.00  0.00    +0.079 C 
ATOM     18  O   UNL A   1      45.051 -20.536 -41.678  0.00  0.00    -0.491 OA
ENDBRANCH  11  18
BRANCH  15  19
ATOM     19  O   UNL A   1      45.816 -19.612 -37.117  0.00  0.00    -0.491 OA
ATOM     20  C   UNL A   1      46.256 -20.624 -36.221  0.00  0.00    +0.079 C 
ENDBRANCH  15  19
BRANCH  16  21
ATOM     21  O   UNL A   1      46.669 -19.821 -39.661  0.00  0.00    -0.488 OA
ATOM     22  C   UNL A   1      47.410 -21.036 -39.746  0.00  0.00    +0.079 C 
ENDBRANCH  16  21
ENDBRANCH   7  13
ENDBRANCH   6   9
ENDBRANCH   5   6
ENDBRANCH   4   5
ENDBRANCH   3   4
ENDBRANCH   2   3
ENDBRANCH   1   2
BRANCH   1  23
ATOM     23  C   UNL A   1      44.292 -19.152 -33.434  0.00  0.00    +0.025 C 
BRANCH  23  24
ATOM     24  C   UNL A   1      44.561 -17.871 -34.200  0.00  0.00    +0.229 C 
ATOM     25  O   UNL A   1      45.406 -17.038 -33.880  0.00  0.00    -0.274 OA
ATOM     26  N   UNL A   1      43.797 -17.759 -35.350  0.00  0.00    -0.236 N 
ATOM     27  H   UNL A   1      43.257 -18.510 -35.687  0.00  0.00    +0.000 HD
BRANCH  26  28
ATOM     28  N   UNL A   1      43.833 -16.509 -36.019  0.00  0.00    -0.264 N 
ATOM     29  H   UNL A   1      44.049 -15.647 -35.595  0.00  0.00    +0.000 HD
BRANCH  28  30
ATOM     30  C   UNL A   1      43.507 -16.688 -37.400  0.00  0.00    +0.058 A 
ATOM     31  C   UNL A   1      44.540 -16.548 -38.349  0.00  0.00    -0.003 A 
ATOM     32  C   UNL A   1      44.197 -16.634 -39.698  0.00  0.00    +0.047 A 
ATOM     33  N   UNL A   1      42.932 -16.861 -40.123  0.00  0.00    -0.251 NA
ATOM     34  C   UNL A   1      41.951 -16.990 -39.219  0.00  0.00    +0.073 A 
ATOM     35  C   UNL A   1      40.663 -17.211 -39.691  0.00  0.00    -0.036 A 
ATOM     36  C   UNL A   1      39.572 -17.346 -38.831  0.00  0.00    -0.060 A 
ATOM     37  C   UNL A   1      39.766 -17.256 -37.462  0.00  0.00    -0.061 A 
ATOM     38  C   UNL A   1      41.050 -17.037 -36.964  0.00  0.00    -0.051 A 
ATOM     39  C   UNL A   1      42.168 -16.906 -37.829  0.00  0.00    +0.023 A 
ATOM     40  C   UNL A   1      45.234 -16.538 -40.786  0.00  0.00    -0.010 C 
ATOM     41  C   UNL A   1      46.532 -15.882 -40.329  0.00  0.00    -0.047 C 
ATOM     42  C   UNL A   1      46.995 -16.508 -39.021  0.00  0.00    -0.049 C 
ATOM     43  C   UNL A   1      45.962 -16.274 -37.921  0.00  0.00    -0.024 C 
ENDBRANCH  28  30
ENDBRANCH  26  28
ENDBRANCH  23  24
ENDBRANCH   1  23
TORSDOF 14
ENDMDL
