@<TRIPOS>MOLECULE
*****
 40 43 0 0 0
SMALL
GASTEIGER

@<TRIPOS>ATOM
      1 C           0.8660   -2.5000    0.0000 C.3     1  UNL1        0.2526
      2 O           0.8660   -1.5000    0.0000 O.3     1  UNL1       -0.4683
      3 C          -0.0000   -1.0000    0.0000 C.ar    1  UNL1        0.1756
      4 C          -0.8660   -1.5000    0.0000 C.ar    1  UNL1        0.0448
      5 C          -1.7321   -1.0000    0.0000 C.ar    1  UNL1        0.0613
      6 C          -2.5981   -1.5000    0.0000 C.2     1  UNL1        0.2650
      7 O          -3.4641   -1.0000    0.0000 O.2     1  UNL1       -0.2684
      8 N          -2.5981   -2.5000    0.0000 N.am    1  UNL1       -0.2017
      9 C          -3.4641   -3.0000    0.0000 C.3     1  UNL1        0.1155
     10 C          -4.3301   -2.5000    0.0000 C.3     1  UNL1        0.0234
     11 C          -5.1962   -3.0000    0.0000 C.3     1  UNL1        0.0018
     12 C          -6.0622   -2.5000    0.0000 C.3     1  UNL1        0.0001
     13 C          -6.9282   -3.0000    0.0000 C.3     1  UNL1        0.0005
     14 C          -7.7942   -2.5000    0.0000 C.3     1  UNL1        0.0097
     15 C          -8.6603   -3.0000    0.0000 C.3     1  UNL1        0.0885
     16 C          -9.5263   -2.5000    0.0000 C.2     1  UNL1        0.2606
     17 O          -9.5263   -1.5000    0.0000 O.2     1  UNL1       -0.2717
     18 N         -10.3923   -3.0000    0.0000 N.am    1  UNL1       -0.0905
     19 N         -11.2583   -2.5000    0.0000 N.pl3   1  UNL1       -0.1256
     20 C         -12.1244   -3.0000    0.0000 C.ar    1  UNL1        0.0877
     21 C         -12.1244   -4.0000    0.0000 C.ar    1  UNL1        0.0081
     22 C         -12.9904   -4.5000    0.0000 C.ar    1  UNL1        0.0563
     23 N         -13.8564   -4.0000    0.0000 N.ar    1  UNL1       -0.2499
     24 C         -13.8564   -3.0000    0.0000 C.ar    1  UNL1        0.0822
     25 C         -14.7224   -2.5000    0.0000 C.ar    1  UNL1        0.0191
     26 C         -14.7224   -1.5000    0.0000 C.ar    1  UNL1        0.0015
     27 C         -13.8564   -1.0000    0.0000 C.ar    1  UNL1        0.0001
     28 C         -12.9904   -1.5000    0.0000 C.ar    1  UNL1        0.0028
     29 C         -12.9904   -2.5000    0.0000 C.ar    1  UNL1        0.0341
     30 C         -12.9904   -5.5000    0.0000 C.3     1  UNL1        0.0455
     31 C         -12.1244   -6.0000    0.0000 C.3     1  UNL1        0.0066
     32 C         -11.2583   -5.5000    0.0000 C.3     1  UNL1        0.0052
     33 C         -11.2583   -4.5000    0.0000 C.3     1  UNL1        0.0289
     34 C          -1.7321    0.0000    0.0000 C.ar    1  UNL1        0.0448
     35 C          -0.8660    0.5000    0.0000 C.ar    1  UNL1        0.1756
     36 O          -0.8660    1.5000    0.0000 O.3     1  UNL1       -0.4683
     37 C          -1.7321    2.0000    0.0000 C.3     1  UNL1        0.2526
     38 C           0.0000    0.0000    0.0000 C.ar    1  UNL1        0.2061
     39 O           0.8660    0.5000    0.0000 O.3     1  UNL1       -0.4654
     40 C           0.8660    1.5000    0.0000 C.3     1  UNL1        0.2528
@<TRIPOS>BOND
     1     1     2    1
     2     2     3    1
     3     3     4   ar
     4     4     5   ar
     5     5     6    1
     6     6     7    2
     7     6     8   am
     8     8     9    1
     9     9    10    1
    10    10    11    1
    11    11    12    1
    12    12    13    1
    13    13    14    1
    14    14    15    1
    15    15    16    1
    16    16    17    2
    17    16    18   am
    18    18    19    1
    19    19    20    1
    20    20    21   ar
    21    21    22   ar
    22    22    23   ar
    23    23    24   ar
    24    24    25   ar
    25    25    26   ar
    26    26    27   ar
    27    27    28   ar
    28    28    29   ar
    29    20    29   ar
    30    24    29   ar
    31    22    30    1
    32    30    31    1
    33    31    32    1
    34    32    33    1
    35    21    33    1
    36     5    34   ar
    37    34    35   ar
    38    35    36    1
    39    36    37    1
    40    35    38   ar
    41     3    38   ar
    42    38    39    1
    43    39    40    1
