MODEL 1
REMARK VINA RESULT:    -6.844      0.000      0.000
REMARK INTER + INTRA:          -7.969
REMARK INTER:                  -7.645
REMARK INTRA:                  -0.324
REMARK UNBOUND:                -0.324
REMARK  Name = cpd160.pdb
REMARK  3 active torsions:
REMARK  status: ('A' for Active; 'I' for Inactive)
REMARK    1  A    between atoms: C_1  and  C_2
REMARK    2  A    between atoms: C_6  and  C_7
REMARK    3  A    between atoms: C_7  and  C_9
REMARK                            x       y       z     vdW  Elec       q    Type
REMARK                         _______ _______ _______ _____ _____    ______ ____
ROOT
ATOM      1  C   UNL A   1      36.783 -36.212 -30.894  0.00  0.00    -0.040 C 
ATOM      2  C   UNL A   1      37.917 -36.859 -30.154  0.00  0.00    -0.050 A 
ATOM      3  C   UNL A   1      37.707 -37.502 -28.932  0.00  0.00    -0.059 A 
ATOM      4  C   UNL A   1      38.771 -38.099 -28.257  0.00  0.00    -0.061 A 
ATOM      5  C   UNL A   1      40.059 -38.064 -28.797  0.00  0.00    -0.051 A 
ATOM      6  C   UNL A   1      40.289 -37.428 -30.024  0.00  0.00    +0.027 A 
ATOM      7  C   UNL A   1      39.211 -36.824 -30.692  0.00  0.00    -0.048 A 
ENDROOT
BRANCH   6   8
ATOM      8  C   UNL A   1      41.639 -37.362 -30.660  0.00  0.00    +0.265 C 
ATOM      9  O   UNL A   1      42.221 -38.419 -30.922  0.00  0.00    -0.283 OA
BRANCH   8  10
ATOM     10  C   UNL A   1      42.226 -35.993 -30.958  0.00  0.00    +0.455 C 
ATOM     11  F   UNL A   1      41.925 -35.081 -29.991  0.00  0.00    -0.163 F 
ATOM     12  F   UNL A   1      43.587 -36.015 -31.046  0.00  0.00    -0.163 F 
ATOM     13  F   UNL A   1      41.781 -35.462 -32.131  0.00  0.00    -0.163 F 
ENDBRANCH   8  10
ENDBRANCH   6   8
TORSDOF 2
ENDMDL
MODEL 2
REMARK VINA RESULT:    -6.596      1.624      2.709
REMARK INTER + INTRA:          -7.691
REMARK INTER:                  -7.471
REMARK INTRA:                  -0.221
REMARK UNBOUND:                -0.324
REMARK  Name = cpd160.pdb
REMARK  3 active torsions:
REMARK  status: ('A' for Active; 'I' for Inactive)
REMARK    1  A    between atoms: C_1  and  C_2
REMARK    2  A    between atoms: C_6  and  C_7
REMARK    3  A    between atoms: C_7  and  C_9
REMARK                            x       y       z     vdW  Elec       q    Type
REMARK                         _______ _______ _______ _____ _____    ______ ____
ROOT
ATOM      1  C   UNL A   1      37.575 -37.940 -29.164  0.00  0.00    -0.040 C 
ATOM      2  C   UNL A   1      37.928 -36.837 -30.117  0.00  0.00    -0.050 A 
ATOM      3  C   UNL A   1      37.011 -35.830 -30.427  0.00  0.00    -0.059 A 
ATOM      4  C   UNL A   1      37.355 -34.811 -31.315  0.00  0.00    -0.061 A 
ATOM      5  C   UNL A   1      38.622 -34.785 -31.903  0.00  0.00    -0.051 A 
ATOM      6  C   UNL A   1      39.558 -35.783 -31.600  0.00  0.00    +0.027 A 
ATOM      7  C   UNL A   1      39.199 -36.808 -30.710  0.00  0.00    -0.048 A 
ENDROOT
BRANCH   6   8
ATOM      8  C   UNL A   1      40.931 -35.807 -32.187  0.00  0.00    +0.265 C 
ATOM      9  O   UNL A   1      41.060 -35.610 -33.398  0.00  0.00    -0.283 OA
BRANCH   8  10
ATOM     10  C   UNL A   1      42.104 -36.068 -31.257  0.00  0.00    +0.455 C 
ATOM     11  F   UNL A   1      42.370 -37.397 -31.121  0.00  0.00    -0.163 F 
ATOM     12  F   UNL A   1      43.260 -35.495 -31.700  0.00  0.00    -0.163 F 
ATOM     13  F   UNL A   1      41.907 -35.590 -29.997  0.00  0.00    -0.163 F 
ENDBRANCH   8  10
ENDBRANCH   6   8
TORSDOF 2
ENDMDL
MODEL 3
REMARK VINA RESULT:    -6.454     33.738     34.856
REMARK INTER + INTRA:          -7.533
REMARK INTER:                  -7.178
REMARK INTRA:                  -0.355
REMARK UNBOUND:                -0.324
REMARK  Name = cpd160.pdb
REMARK  3 active torsions:
REMARK  status: ('A' for Active; 'I' for Inactive)
REMARK    1  A    between atoms: C_1  and  C_2
REMARK    2  A    between atoms: C_6  and  C_7
REMARK    3  A    between atoms: C_7  and  C_9
REMARK                            x       y       z     vdW  Elec       q    Type
REMARK                         _______ _______ _______ _____ _____    ______ ____
ROOT
ATOM      1  C   UNL A   1      63.368 -23.456 -10.008  0.00  0.00    -0.040 C 
ATOM      2  C   UNL A   1      63.447 -23.880  -8.571  0.00  0.00    -0.050 A 
ATOM      3  C   UNL A   1      63.125 -22.994  -7.540  0.00  0.00    -0.059 A 
ATOM      4  C   UNL A   1      63.204 -23.403  -6.209  0.00  0.00    -0.061 A 
ATOM      5  C   UNL A   1      63.603 -24.704  -5.892  0.00  0.00    -0.051 A 
ATOM      6  C   UNL A   1      63.925 -25.608  -6.912  0.00  0.00    +0.027 A 
ATOM      7  C   UNL A   1      63.849 -25.184  -8.249  0.00  0.00    -0.048 A 
ENDROOT
BRANCH   6   8
ATOM      8  C   UNL A   1      64.350 -27.015  -6.641  0.00  0.00    +0.265 C 
ATOM      9  O   UNL A   1      65.547 -27.298  -6.728  0.00  0.00    -0.283 OA
BRANCH   8  10
ATOM     10  C   UNL A   1      63.280 -28.026  -6.265  0.00  0.00    +0.455 C 
ATOM     11  F   UNL A   1      62.855 -27.874  -4.979  0.00  0.00    -0.163 F 
ATOM     12  F   UNL A   1      62.167 -27.924  -7.045  0.00  0.00    -0.163 F 
ATOM     13  F   UNL A   1      63.699 -29.317  -6.374  0.00  0.00    -0.163 F 
ENDBRANCH   8  10
ENDBRANCH   6   8
TORSDOF 2
ENDMDL
MODEL 4
REMARK VINA RESULT:    -6.081      3.695      4.826
REMARK INTER + INTRA:          -7.117
REMARK INTER:                  -6.973
REMARK INTRA:                  -0.144
REMARK UNBOUND:                -0.324
REMARK  Name = cpd160.pdb
REMARK  3 active torsions:
REMARK  status: ('A' for Active; 'I' for Inactive)
REMARK    1  A    between atoms: C_1  and  C_2
REMARK    2  A    between atoms: C_6  and  C_7
REMARK    3  A    between atoms: C_7  and  C_9
REMARK                            x       y       z     vdW  Elec       q    Type
REMARK                         _______ _______ _______ _____ _____    ______ ____
ROOT
ATOM      1  C   UNL A   1      41.209 -35.980 -32.894  0.00  0.00    -0.040 C 
ATOM      2  C   UNL A   1      40.796 -36.676 -31.630  0.00  0.00    -0.050 A 
ATOM      3  C   UNL A   1      41.689 -37.493 -30.932  0.00  0.00    -0.059 A 
ATOM      4  C   UNL A   1      41.290 -38.132 -29.759  0.00  0.00    -0.061 A 
ATOM      5  C   UNL A   1      39.993 -37.961 -29.267  0.00  0.00    -0.051 A 
ATOM      6  C   UNL A   1      39.085 -37.142 -29.950  0.00  0.00    +0.027 A 
ATOM      7  C   UNL A   1      39.495 -36.508 -31.134  0.00  0.00    -0.048 A 
ENDROOT
BRANCH   6   8
ATOM      8  C   UNL A   1      37.688 -36.911 -29.473  0.00  0.00    +0.265 C 
ATOM      9  O   UNL A   1      37.098 -35.893 -29.845  0.00  0.00    -0.283 OA
BRANCH   8  10
ATOM     10  C   UNL A   1      37.063 -37.948 -28.556  0.00  0.00    +0.455 C 
ATOM     11  F   UNL A   1      37.577 -37.900 -27.295  0.00  0.00    -0.163 F 
ATOM     12  F   UNL A   1      35.716 -37.782 -28.421  0.00  0.00    -0.163 F 
ATOM     13  F   UNL A   1      37.242 -39.227 -28.989  0.00  0.00    -0.163 F 
ENDBRANCH   8  10
ENDBRANCH   6   8
TORSDOF 2
ENDMDL
MODEL 5
REMARK VINA RESULT:    -6.033      7.034      8.190
REMARK INTER + INTRA:          -7.063
REMARK INTER:                  -6.820
REMARK INTRA:                  -0.243
REMARK UNBOUND:                -0.324
REMARK  Name = cpd160.pdb
REMARK  3 active torsions:
REMARK  status: ('A' for Active; 'I' for Inactive)
REMARK    1  A    between atoms: C_1  and  C_2
REMARK    2  A    between atoms: C_6  and  C_7
REMARK    3  A    between atoms: C_7  and  C_9
REMARK                            x       y       z     vdW  Elec       q    Type
REMARK                         _______ _______ _______ _____ _____    ______ ____
ROOT
ATOM      1  C   UNL A   1      46.931 -35.716 -29.698  0.00  0.00    -0.040 C 
ATOM      2  C   UNL A   1      47.448 -37.124 -29.650  0.00  0.00    -0.050 A 
ATOM      3  C   UNL A   1      48.790 -37.408 -29.910  0.00  0.00    -0.059 A 
ATOM      4  C   UNL A   1      49.255 -38.722 -29.861  0.00  0.00    -0.061 A 
ATOM      5  C   UNL A   1      48.384 -39.769 -29.547  0.00  0.00    -0.051 A 
ATOM      6  C   UNL A   1      47.035 -39.503 -29.278  0.00  0.00    +0.027 A 
ATOM      7  C   UNL A   1      46.576 -38.177 -29.337  0.00  0.00    -0.048 A 
ENDROOT
BRANCH   6   8
ATOM      8  C   UNL A   1      46.055 -40.575 -28.928  0.00  0.00    +0.265 C 
ATOM      9  O   UNL A   1      45.691 -40.683 -27.754  0.00  0.00    -0.283 OA
BRANCH   8  10
ATOM     10  C   UNL A   1      45.548 -41.475 -30.043  0.00  0.00    +0.455 C 
ATOM     11  F   UNL A   1      45.243 -42.726 -29.597  0.00  0.00    -0.163 F 
ATOM     12  F   UNL A   1      44.414 -40.995 -30.627  0.00  0.00    -0.163 F 
ATOM     13  F   UNL A   1      46.450 -41.641 -31.050  0.00  0.00    -0.163 F 
ENDBRANCH   8  10
ENDBRANCH   6   8
TORSDOF 2
ENDMDL
MODEL 6
REMARK VINA RESULT:    -5.997      4.235      5.557
REMARK INTER + INTRA:          -7.023
REMARK INTER:                  -6.730
REMARK INTRA:                  -0.293
REMARK UNBOUND:                -0.324
REMARK  Name = cpd160.pdb
REMARK  3 active torsions:
REMARK  status: ('A' for Active; 'I' for Inactive)
REMARK    1  A    between atoms: C_1  and  C_2
REMARK    2  A    between atoms: C_6  and  C_7
REMARK    3  A    between atoms: C_7  and  C_9
REMARK                            x       y       z     vdW  Elec       q    Type
REMARK                         _______ _______ _______ _____ _____    ______ ____
ROOT
ATOM      1  C   UNL A   1      40.319 -35.934 -32.792  0.00  0.00    -0.040 C 
ATOM      2  C   UNL A   1      39.214 -36.123 -31.796  0.00  0.00    -0.050 A 
ATOM      3  C   UNL A   1      39.400 -36.904 -30.652  0.00  0.00    -0.059 A 
ATOM      4  C   UNL A   1      38.362 -37.069 -29.735  0.00  0.00    -0.061 A 
ATOM      5  C   UNL A   1      37.126 -36.454 -29.948  0.00  0.00    -0.051 A 
ATOM      6  C   UNL A   1      36.922 -35.663 -31.086  0.00  0.00    +0.027 A 
ATOM      7  C   UNL A   1      37.971 -35.508 -32.007  0.00  0.00    -0.048 A 
ENDROOT
BRANCH   6   8
ATOM      8  C   UNL A   1      35.628 -34.971 -31.368  0.00  0.00    +0.265 C 
ATOM      9  O   UNL A   1      34.735 -35.599 -31.941  0.00  0.00    -0.283 OA
BRANCH   8  10
ATOM     10  C   UNL A   1      35.478 -33.525 -30.925  0.00  0.00    +0.455 C 
ATOM     11  F   UNL A   1      34.611 -32.831 -31.715  0.00  0.00    -0.163 F 
ATOM     12  F   UNL A   1      35.000 -33.415 -29.653  0.00  0.00    -0.163 F 
ATOM     13  F   UNL A   1      36.649 -32.831 -30.948  0.00  0.00    -0.163 F 
ENDBRANCH   8  10
ENDBRANCH   6   8
TORSDOF 2
ENDMDL
MODEL 7
REMARK VINA RESULT:    -5.883     21.727     23.796
REMARK INTER + INTRA:          -6.895
REMARK INTER:                  -6.556
REMARK INTRA:                  -0.339
REMARK UNBOUND:                -0.324
REMARK  Name = cpd160.pdb
REMARK  3 active torsions:
REMARK  status: ('A' for Active; 'I' for Inactive)
REMARK    1  A    between atoms: C_1  and  C_2
REMARK    2  A    between atoms: C_6  and  C_7
REMARK    3  A    between atoms: C_7  and  C_9
REMARK                            x       y       z     vdW  Elec       q    Type
REMARK                         _______ _______ _______ _____ _____    ______ ____
ROOT
ATOM      1  C   UNL A   1      53.820 -35.110 -45.006  0.00  0.00    -0.040 C 
ATOM      2  C   UNL A   1      54.906 -34.814 -45.998  0.00  0.00    -0.050 A 
ATOM      3  C   UNL A   1      55.431 -33.526 -46.128  0.00  0.00    -0.059 A 
ATOM      4  C   UNL A   1      56.441 -33.266 -47.055  0.00  0.00    -0.061 A 
ATOM      5  C   UNL A   1      56.941 -34.293 -47.860  0.00  0.00    -0.051 A 
ATOM      6  C   UNL A   1      56.431 -35.592 -47.740  0.00  0.00    +0.027 A 
ATOM      7  C   UNL A   1      55.410 -35.841 -46.809  0.00  0.00    -0.048 A 
ENDROOT
BRANCH   6   8
ATOM      8  C   UNL A   1      56.929 -36.735 -48.564  0.00  0.00    +0.265 C 
ATOM      9  O   UNL A   1      58.115 -37.060 -48.468  0.00  0.00    -0.283 OA
BRANCH   8  10
ATOM     10  C   UNL A   1      55.942 -37.443 -49.477  0.00  0.00    +0.455 C 
ATOM     11  F   UNL A   1      56.556 -38.043 -50.535  0.00  0.00    -0.163 F 
ATOM     12  F   UNL A   1      55.251 -38.428 -48.834  0.00  0.00    -0.163 F 
ATOM     13  F   UNL A   1      55.004 -36.609 -50.006  0.00  0.00    -0.163 F 
ENDBRANCH   8  10
ENDBRANCH   6   8
TORSDOF 2
ENDMDL
MODEL 8
REMARK VINA RESULT:    -5.788      3.525      5.022
REMARK INTER + INTRA:          -6.790
REMARK INTER:                  -6.476
REMARK INTRA:                  -0.314
REMARK UNBOUND:                -0.324
REMARK  Name = cpd160.pdb
REMARK  3 active torsions:
REMARK  status: ('A' for Active; 'I' for Inactive)
REMARK    1  A    between atoms: C_1  and  C_2
REMARK    2  A    between atoms: C_6  and  C_7
REMARK    3  A    between atoms: C_7  and  C_9
REMARK                            x       y       z     vdW  Elec       q    Type
REMARK                         _______ _______ _______ _____ _____    ______ ____
ROOT
ATOM      1  C   UNL A   1      41.686 -36.144 -31.253  0.00  0.00    -0.040 C 
ATOM      2  C   UNL A   1      40.197 -35.957 -31.216  0.00  0.00    -0.050 A 
ATOM      3  C   UNL A   1      39.607 -34.779 -31.681  0.00  0.00    -0.059 A 
ATOM      4  C   UNL A   1      38.222 -34.620 -31.639  0.00  0.00    -0.061 A 
ATOM      5  C   UNL A   1      37.409 -35.639 -31.135  0.00  0.00    -0.051 A 
ATOM      6  C   UNL A   1      37.982 -36.829 -30.670  0.00  0.00    +0.027 A 
ATOM      7  C   UNL A   1      39.378 -36.976 -30.709  0.00  0.00    -0.048 A 
ENDROOT
BRANCH   6   8
ATOM      8  C   UNL A   1      37.169 -37.959 -30.128  0.00  0.00    +0.265 C 
ATOM      9  O   UNL A   1      36.464 -38.606 -30.906  0.00  0.00    -0.283 OA
BRANCH   8  10
ATOM     10  C   UNL A   1      37.259 -38.259 -28.640  0.00  0.00    +0.455 C 
ATOM     11  F   UNL A   1      38.442 -38.842 -28.302  0.00  0.00    -0.163 F 
ATOM     12  F   UNL A   1      37.159 -37.134 -27.875  0.00  0.00    -0.163 F 
ATOM     13  F   UNL A   1      36.282 -39.100 -28.202  0.00  0.00    -0.163 F 
ENDBRANCH   8  10
ENDBRANCH   6   8
TORSDOF 2
ENDMDL
MODEL 9
REMARK VINA RESULT:    -5.781      4.212      5.644
REMARK INTER + INTRA:          -6.781
REMARK INTER:                  -6.455
REMARK INTRA:                  -0.326
REMARK UNBOUND:                -0.324
REMARK  Name = cpd160.pdb
REMARK  3 active torsions:
REMARK  status: ('A' for Active; 'I' for Inactive)
REMARK    1  A    between atoms: C_1  and  C_2
REMARK    2  A    between atoms: C_6  and  C_7
REMARK    3  A    between atoms: C_7  and  C_9
REMARK                            x       y       z     vdW  Elec       q    Type
REMARK                         _______ _______ _______ _____ _____    ______ ____
ROOT
ATOM      1  C   UNL A   1      36.939 -37.808 -27.743  0.00  0.00    -0.040 C 
ATOM      2  C   UNL A   1      37.284 -37.092 -29.016  0.00  0.00    -0.050 A 
ATOM      3  C   UNL A   1      38.553 -37.211 -29.589  0.00  0.00    -0.059 A 
ATOM      4  C   UNL A   1      38.858 -36.539 -30.773  0.00  0.00    -0.061 A 
ATOM      5  C   UNL A   1      37.897 -35.742 -31.400  0.00  0.00    -0.051 A 
ATOM      6  C   UNL A   1      36.618 -35.615 -30.844  0.00  0.00    +0.027 A 
ATOM      7  C   UNL A   1      36.323 -36.290 -29.648  0.00  0.00    -0.048 A 
ENDROOT
BRANCH   6   8
ATOM      8  C   UNL A   1      35.544 -34.786 -31.469  0.00  0.00    +0.265 C 
ATOM      9  O   UNL A   1      34.705 -35.345 -32.181  0.00  0.00    -0.283 OA
BRANCH   8  10
ATOM     10  C   UNL A   1      35.536 -33.292 -31.190  0.00  0.00    +0.455 C 
ATOM     11  F   UNL A   1      36.699 -32.690 -31.566  0.00  0.00    -0.163 F 
ATOM     12  F   UNL A   1      34.541 -32.641 -31.857  0.00  0.00    -0.163 F 
ATOM     13  F   UNL A   1      35.364 -32.993 -29.872  0.00  0.00    -0.163 F 
ENDBRANCH   8  10
ENDBRANCH   6   8
TORSDOF 2
ENDMDL
MODEL 10
REMARK VINA RESULT:    -5.682     33.950     34.997
REMARK INTER + INTRA:          -6.670
REMARK INTER:                  -6.307
REMARK INTRA:                  -0.363
REMARK UNBOUND:                -0.324
REMARK  Name = cpd160.pdb
REMARK  3 active torsions:
REMARK  status: ('A' for Active; 'I' for Inactive)
REMARK    1  A    between atoms: C_1  and  C_2
REMARK    2  A    between atoms: C_6  and  C_7
REMARK    3  A    between atoms: C_7  and  C_9
REMARK                            x       y       z     vdW  Elec       q    Type
REMARK                         _______ _______ _______ _____ _____    ______ ____
ROOT
ATOM      1  C   UNL A   1      63.170 -20.633  -7.795  0.00  0.00    -0.040 C 
ATOM      2  C   UNL A   1      63.267 -21.974  -8.462  0.00  0.00    -0.050 A 
ATOM      3  C   UNL A   1      63.255 -22.088  -9.854  0.00  0.00    -0.059 A 
ATOM      4  C   UNL A   1      63.346 -23.341 -10.460  0.00  0.00    -0.061 A 
ATOM      5  C   UNL A   1      63.452 -24.496  -9.680  0.00  0.00    -0.051 A 
ATOM      6  C   UNL A   1      63.470 -24.401  -8.283  0.00  0.00    +0.027 A 
ATOM      7  C   UNL A   1      63.371 -23.135  -7.683  0.00  0.00    -0.048 A 
ENDROOT
BRANCH   6   8
ATOM      8  C   UNL A   1      63.591 -25.596  -7.394  0.00  0.00    +0.265 C 
ATOM      9  O   UNL A   1      62.585 -26.278  -7.181  0.00  0.00    -0.283 OA
BRANCH   8  10
ATOM     10  C   UNL A   1      64.953 -25.913  -6.800  0.00  0.00    +0.455 C 
ATOM     11  F   UNL A   1      65.048 -25.538  -5.494  0.00  0.00    -0.163 F 
ATOM     12  F   UNL A   1      65.239 -27.247  -6.833  0.00  0.00    -0.163 F 
ATOM     13  F   UNL A   1      65.979 -25.293  -7.447  0.00  0.00    -0.163 F 
ENDBRANCH   8  10
ENDBRANCH   6   8
TORSDOF 2
ENDMDL
MODEL 11
REMARK VINA RESULT:    -5.643     26.982     28.286
REMARK INTER + INTRA:          -6.627
REMARK INTER:                  -6.290
REMARK INTRA:                  -0.338
REMARK UNBOUND:                -0.324
REMARK  Name = cpd160.pdb
REMARK  3 active torsions:
REMARK  status: ('A' for Active; 'I' for Inactive)
REMARK    1  A    between atoms: C_1  and  C_2
REMARK    2  A    between atoms: C_6  and  C_7
REMARK    3  A    between atoms: C_7  and  C_9
REMARK                            x       y       z     vdW  Elec       q    Type
REMARK                         _______ _______ _______ _____ _____    ______ ____
ROOT
ATOM      1  C   UNL A   1      59.297 -19.056 -46.429  0.00  0.00    -0.040 C 
ATOM      2  C   UNL A   1      57.834 -19.378 -46.339  0.00  0.00    -0.050 A 
ATOM      3  C   UNL A   1      56.913 -18.426 -45.896  0.00  0.00    -0.059 A 
ATOM      4  C   UNL A   1      55.557 -18.740 -45.818  0.00  0.00    -0.061 A 
ATOM      5  C   UNL A   1      55.103 -20.010 -46.185  0.00  0.00    -0.051 A 
ATOM      6  C   UNL A   1      56.012 -20.976 -46.637  0.00  0.00    +0.027 A 
ATOM      7  C   UNL A   1      57.376 -20.651 -46.705  0.00  0.00    -0.048 A 
ENDROOT
BRANCH   6   8
ATOM      8  C   UNL A   1      55.591 -22.348 -47.053  0.00  0.00    +0.265 C 
ATOM      9  O   UNL A   1      55.738 -23.278 -46.256  0.00  0.00    -0.283 OA
BRANCH   8  10
ATOM     10  C   UNL A   1      54.996 -22.526 -48.440  0.00  0.00    +0.455 C 
ATOM     11  F   UNL A   1      55.818 -22.054 -49.419  0.00  0.00    -0.163 F 
ATOM     12  F   UNL A   1      54.760 -23.835 -48.742  0.00  0.00    -0.163 F 
ATOM     13  F   UNL A   1      53.807 -21.882 -48.601  0.00  0.00    -0.163 F 
ENDBRANCH   8  10
ENDBRANCH   6   8
TORSDOF 2
ENDMDL
MODEL 12
REMARK VINA RESULT:    -5.522      3.863      5.035
REMARK INTER + INTRA:          -6.492
REMARK INTER:                  -6.237
REMARK INTRA:                  -0.256
REMARK UNBOUND:                -0.324
REMARK  Name = cpd160.pdb
REMARK  3 active torsions:
REMARK  status: ('A' for Active; 'I' for Inactive)
REMARK    1  A    between atoms: C_1  and  C_2
REMARK    2  A    between atoms: C_6  and  C_7
REMARK    3  A    between atoms: C_7  and  C_9
REMARK                            x       y       z     vdW  Elec       q    Type
REMARK                         _______ _______ _______ _____ _____    ______ ____
ROOT
ATOM      1  C   UNL A   1      40.584 -36.000 -31.908  0.00  0.00    -0.040 C 
ATOM      2  C   UNL A   1      39.919 -36.792 -30.821  0.00  0.00    -0.050 A 
ATOM      3  C   UNL A   1      40.672 -37.447 -29.843  0.00  0.00    -0.059 A 
ATOM      4  C   UNL A   1      40.039 -38.179 -28.839  0.00  0.00    -0.061 A 
ATOM      5  C   UNL A   1      38.645 -38.263 -28.798  0.00  0.00    -0.051 A 
ATOM      6  C   UNL A   1      37.873 -37.609 -29.767  0.00  0.00    +0.027 A 
ATOM      7  C   UNL A   1      38.520 -36.880 -30.778  0.00  0.00    -0.048 A 
ENDROOT
BRANCH   6   8
ATOM      8  C   UNL A   1      36.379 -37.652 -29.774  0.00  0.00    +0.265 C 
ATOM      9  O   UNL A   1      35.819 -38.645 -30.244  0.00  0.00    -0.283 OA
BRANCH   8  10
ATOM     10  C   UNL A   1      35.625 -36.467 -29.194  0.00  0.00    +0.455 C 
ATOM     11  F   UNL A   1      34.330 -36.423 -29.615  0.00  0.00    -0.163 F 
ATOM     12  F   UNL A   1      35.579 -36.494 -27.831  0.00  0.00    -0.163 F 
ATOM     13  F   UNL A   1      36.173 -35.266 -29.529  0.00  0.00    -0.163 F 
ENDBRANCH   8  10
ENDBRANCH   6   8
TORSDOF 2
ENDMDL
MODEL 13
REMARK VINA RESULT:    -5.510     34.213     35.107
REMARK INTER + INTRA:          -6.479
REMARK INTER:                  -6.142
REMARK INTRA:                  -0.336
REMARK UNBOUND:                -0.324
REMARK  Name = cpd160.pdb
REMARK  3 active torsions:
REMARK  status: ('A' for Active; 'I' for Inactive)
REMARK    1  A    between atoms: C_1  and  C_2
REMARK    2  A    between atoms: C_6  and  C_7
REMARK    3  A    between atoms: C_7  and  C_9
REMARK                            x       y       z     vdW  Elec       q    Type
REMARK                         _______ _______ _______ _____ _____    ______ ____
ROOT
ATOM      1  C   UNL A   1      63.214 -21.019  -7.163  0.00  0.00    -0.040 C 
ATOM      2  C   UNL A   1      63.499 -22.396  -7.687  0.00  0.00    -0.050 A 
ATOM      3  C   UNL A   1      63.649 -22.629  -9.056  0.00  0.00    -0.059 A 
ATOM      4  C   UNL A   1      63.913 -23.914  -9.528  0.00  0.00    -0.061 A 
ATOM      5  C   UNL A   1      64.035 -24.983  -8.636  0.00  0.00    -0.051 A 
ATOM      6  C   UNL A   1      63.893 -24.768  -7.259  0.00  0.00    +0.027 A 
ATOM      7  C   UNL A   1      63.620 -23.471  -6.795  0.00  0.00    -0.048 A 
ENDROOT
BRANCH   6   8
ATOM      8  C   UNL A   1      64.020 -25.865  -6.253  0.00  0.00    +0.265 C 
ATOM      9  O   UNL A   1      64.978 -25.846  -5.475  0.00  0.00    -0.283 OA
BRANCH   8  10
ATOM     10  C   UNL A   1      62.956 -26.949  -6.236  0.00  0.00    +0.455 C 
ATOM     11  F   UNL A   1      63.382 -28.102  -6.825  0.00  0.00    -0.163 F 
ATOM     12  F   UNL A   1      62.578 -27.290  -4.971  0.00  0.00    -0.163 F 
ATOM     13  F   UNL A   1      61.814 -26.592  -6.886  0.00  0.00    -0.163 F 
ENDBRANCH   8  10
ENDBRANCH   6   8
TORSDOF 2
ENDMDL
MODEL 14
REMARK VINA RESULT:    -5.499     33.919     35.201
REMARK INTER + INTRA:          -6.467
REMARK INTER:                  -6.132
REMARK INTRA:                  -0.335
REMARK UNBOUND:                -0.324
REMARK  Name = cpd160.pdb
REMARK  3 active torsions:
REMARK  status: ('A' for Active; 'I' for Inactive)
REMARK    1  A    between atoms: C_1  and  C_2
REMARK    2  A    between atoms: C_6  and  C_7
REMARK    3  A    between atoms: C_7  and  C_9
REMARK                            x       y       z     vdW  Elec       q    Type
REMARK                         _______ _______ _______ _____ _____    ______ ____
ROOT
ATOM      1  C   UNL A   1      65.078 -22.170  -4.767  0.00  0.00    -0.040 C 
ATOM      2  C   UNL A   1      64.700 -23.423  -5.500  0.00  0.00    -0.050 A 
ATOM      3  C   UNL A   1      64.341 -24.583  -4.809  0.00  0.00    -0.059 A 
ATOM      4  C   UNL A   1      63.992 -25.740  -5.505  0.00  0.00    -0.061 A 
ATOM      5  C   UNL A   1      63.995 -25.751  -6.902  0.00  0.00    -0.051 A 
ATOM      6  C   UNL A   1      64.348 -24.597  -7.613  0.00  0.00    +0.027 A 
ATOM      7  C   UNL A   1      64.704 -23.440  -6.902  0.00  0.00    -0.048 A 
ENDROOT
BRANCH   6   8
ATOM      8  C   UNL A   1      64.363 -24.541  -9.106  0.00  0.00    +0.265 C 
ATOM      9  O   UNL A   1      65.379 -24.909  -9.701  0.00  0.00    -0.283 OA
BRANCH   8  10
ATOM     10  C   UNL A   1      63.117 -24.038  -9.817  0.00  0.00    +0.455 C 
ATOM     11  F   UNL A   1      63.404 -23.087 -10.751  0.00  0.00    -0.163 F 
ATOM     12  F   UNL A   1      62.457 -25.030 -10.479  0.00  0.00    -0.163 F 
ATOM     13  F   UNL A   1      62.207 -23.477  -8.974  0.00  0.00    -0.163 F 
ENDBRANCH   8  10
ENDBRANCH   6   8
TORSDOF 2
ENDMDL
MODEL 15
REMARK VINA RESULT:    -5.369      5.200      6.661
REMARK INTER + INTRA:          -6.322
REMARK INTER:                  -5.966
REMARK INTRA:                  -0.356
REMARK UNBOUND:                -0.324
REMARK  Name = cpd160.pdb
REMARK  3 active torsions:
REMARK  status: ('A' for Active; 'I' for Inactive)
REMARK    1  A    between atoms: C_1  and  C_2
REMARK    2  A    between atoms: C_6  and  C_7
REMARK    3  A    between atoms: C_7  and  C_9
REMARK                            x       y       z     vdW  Elec       q    Type
REMARK                         _______ _______ _______ _____ _____    ______ ____
ROOT
ATOM      1  C   UNL A   1      38.735 -36.671 -30.681  0.00  0.00    -0.040 C 
ATOM      2  C   UNL A   1      37.446 -36.460 -29.943  0.00  0.00    -0.050 A 
ATOM      3  C   UNL A   1      37.179 -37.137 -28.751  0.00  0.00    -0.059 A 
ATOM      4  C   UNL A   1      35.975 -36.930 -28.077  0.00  0.00    -0.061 A 
ATOM      5  C   UNL A   1      35.025 -36.040 -28.585  0.00  0.00    -0.051 A 
ATOM      6  C   UNL A   1      35.278 -35.348 -29.776  0.00  0.00    +0.027 A 
ATOM      7  C   UNL A   1      36.489 -35.569 -30.450  0.00  0.00    -0.048 A 
ENDROOT
BRANCH   6   8
ATOM      8  C   UNL A   1      34.308 -34.377 -30.367  0.00  0.00    +0.265 C 
ATOM      9  O   UNL A   1      33.814 -34.632 -31.468  0.00  0.00    -0.283 OA
BRANCH   8  10
ATOM     10  C   UNL A   1      33.976 -33.123 -29.575  0.00  0.00    +0.455 C 
ATOM     11  F   UNL A   1      33.489 -32.127 -30.366  0.00  0.00    -0.163 F 
ATOM     12  F   UNL A   1      33.028 -33.346 -28.620  0.00  0.00    -0.163 F 
ATOM     13  F   UNL A   1      35.050 -32.599 -28.923  0.00  0.00    -0.163 F 
ENDBRANCH   8  10
ENDBRANCH   6   8
TORSDOF 2
ENDMDL
MODEL 16
REMARK VINA RESULT:    -5.249      5.563      6.942
REMARK INTER + INTRA:          -6.187
REMARK INTER:                  -5.899
REMARK INTRA:                  -0.288
REMARK UNBOUND:                -0.324
REMARK  Name = cpd160.pdb
REMARK  3 active torsions:
REMARK  status: ('A' for Active; 'I' for Inactive)
REMARK    1  A    between atoms: C_1  and  C_2
REMARK    2  A    between atoms: C_6  and  C_7
REMARK    3  A    between atoms: C_7  and  C_9
REMARK                            x       y       z     vdW  Elec       q    Type
REMARK                         _______ _______ _______ _____ _____    ______ ____
ROOT
ATOM      1  C   UNL A   1      36.336 -37.920 -27.670  0.00  0.00    -0.040 C 
ATOM      2  C   UNL A   1      36.283 -36.834 -28.704  0.00  0.00    -0.050 A 
ATOM      3  C   UNL A   1      37.341 -36.632 -29.593  0.00  0.00    -0.059 A 
ATOM      4  C   UNL A   1      37.276 -35.618 -30.548  0.00  0.00    -0.061 A 
ATOM      5  C   UNL A   1      36.150 -34.795 -30.629  0.00  0.00    -0.051 A 
ATOM      6  C   UNL A   1      35.076 -34.985 -29.750  0.00  0.00    +0.027 A 
ATOM      7  C   UNL A   1      35.155 -36.004 -28.787  0.00  0.00    -0.048 A 
ENDROOT
BRANCH   6   8
ATOM      8  C   UNL A   1      33.841 -34.146 -29.790  0.00  0.00    +0.265 C 
ATOM      9  O   UNL A   1      32.743 -34.709 -29.766  0.00  0.00    -0.283 OA
BRANCH   8  10
ATOM     10  C   UNL A   1      34.001 -32.636 -29.852  0.00  0.00    +0.455 C 
ATOM     11  F   UNL A   1      32.834 -31.982 -29.592  0.00  0.00    -0.163 F 
ATOM     12  F   UNL A   1      34.906 -32.170 -28.945  0.00  0.00    -0.163 F 
ATOM     13  F   UNL A   1      34.423 -32.190 -31.068  0.00  0.00    -0.163 F 
ENDBRANCH   8  10
ENDBRANCH   6   8
TORSDOF 2
ENDMDL
MODEL 17
REMARK VINA RESULT:    -5.239     19.510     20.825
REMARK INTER + INTRA:          -6.176
REMARK INTER:                  -5.833
REMARK INTRA:                  -0.344
REMARK UNBOUND:                -0.324
REMARK  Name = cpd160.pdb
REMARK  3 active torsions:
REMARK  status: ('A' for Active; 'I' for Inactive)
REMARK    1  A    between atoms: C_1  and  C_2
REMARK    2  A    between atoms: C_6  and  C_7
REMARK    3  A    between atoms: C_7  and  C_9
REMARK                            x       y       z     vdW  Elec       q    Type
REMARK                         _______ _______ _______ _____ _____    ______ ____
ROOT
ATOM      1  C   UNL A   1      45.073 -17.149 -40.124  0.00  0.00    -0.040 C 
ATOM      2  C   UNL A   1      45.017 -18.386 -40.971  0.00  0.00    -0.050 A 
ATOM      3  C   UNL A   1      44.229 -18.436 -42.123  0.00  0.00    -0.059 A 
ATOM      4  C   UNL A   1      44.187 -19.593 -42.900  0.00  0.00    -0.061 A 
ATOM      5  C   UNL A   1      44.936 -20.715 -42.536  0.00  0.00    -0.051 A 
ATOM      6  C   UNL A   1      45.736 -20.683 -41.387  0.00  0.00    +0.027 A 
ATOM      7  C   UNL A   1      45.766 -19.515 -40.608  0.00  0.00    -0.048 A 
ENDROOT
BRANCH   6   8
ATOM      8  C   UNL A   1      46.567 -21.845 -40.948  0.00  0.00    +0.265 C 
ATOM      9  O   UNL A   1      46.311 -22.380 -39.867  0.00  0.00    -0.283 OA
BRANCH   8  10
ATOM     10  C   UNL A   1      47.685 -22.313 -41.865  0.00  0.00    +0.455 C 
ATOM     11  F   UNL A   1      47.218 -23.037 -42.921  0.00  0.00    -0.163 F 
ATOM     12  F   UNL A   1      48.390 -21.276 -42.400  0.00  0.00    -0.163 F 
ATOM     13  F   UNL A   1      48.598 -23.105 -41.237  0.00  0.00    -0.163 F 
ENDBRANCH   8  10
ENDBRANCH   6   8
TORSDOF 2
ENDMDL
MODEL 18
REMARK VINA RESULT:    -4.989     18.976     19.626
REMARK INTER + INTRA:          -5.896
REMARK INTER:                  -5.537
REMARK INTRA:                  -0.360
REMARK UNBOUND:                -0.324
REMARK  Name = cpd160.pdb
REMARK  3 active torsions:
REMARK  status: ('A' for Active; 'I' for Inactive)
REMARK    1  A    between atoms: C_1  and  C_2
REMARK    2  A    between atoms: C_6  and  C_7
REMARK    3  A    between atoms: C_7  and  C_9
REMARK                            x       y       z     vdW  Elec       q    Type
REMARK                         _______ _______ _______ _____ _____    ______ ____
ROOT
ATOM      1  C   UNL A   1      44.697 -20.129 -37.668  0.00  0.00    -0.040 C 
ATOM      2  C   UNL A   1      44.760 -20.652 -39.074  0.00  0.00    -0.050 A 
ATOM      3  C   UNL A   1      43.596 -20.963 -39.780  0.00  0.00    -0.059 A 
ATOM      4  C   UNL A   1      43.672 -21.448 -41.086  0.00  0.00    -0.061 A 
ATOM      5  C   UNL A   1      44.913 -21.624 -41.703  0.00  0.00    -0.051 A 
ATOM      6  C   UNL A   1      46.091 -21.312 -41.013  0.00  0.00    +0.027 A 
ATOM      7  C   UNL A   1      46.004 -20.831 -39.696  0.00  0.00    -0.048 A 
ENDROOT
BRANCH   6   8
ATOM      8  C   UNL A   1      47.448 -21.468 -41.618  0.00  0.00    +0.265 C 
ATOM      9  O   UNL A   1      48.006 -20.471 -42.084  0.00  0.00    -0.283 OA
BRANCH   8  10
ATOM     10  C   UNL A   1      48.076 -22.852 -41.623  0.00  0.00    +0.455 C 
ATOM     11  F   UNL A   1      48.153 -23.380 -42.877  0.00  0.00    -0.163 F 
ATOM     12  F   UNL A   1      49.349 -22.849 -41.134  0.00  0.00    -0.163 F 
ATOM     13  F   UNL A   1      47.387 -23.757 -40.873  0.00  0.00    -0.163 F 
ENDBRANCH   8  10
ENDBRANCH   6   8
TORSDOF 2
ENDMDL
MODEL 19
REMARK VINA RESULT:    -4.961     18.745     20.016
REMARK INTER + INTRA:          -5.866
REMARK INTER:                  -5.527
REMARK INTRA:                  -0.338
REMARK UNBOUND:                -0.324
REMARK  Name = cpd160.pdb
REMARK  3 active torsions:
REMARK  status: ('A' for Active; 'I' for Inactive)
REMARK    1  A    between atoms: C_1  and  C_2
REMARK    2  A    between atoms: C_6  and  C_7
REMARK    3  A    between atoms: C_7  and  C_9
REMARK                            x       y       z     vdW  Elec       q    Type
REMARK                         _______ _______ _______ _____ _____    ______ ____
ROOT
ATOM      1  C   UNL A   1      45.976 -17.613 -40.798  0.00  0.00    -0.040 C 
ATOM      2  C   UNL A   1      45.654 -19.045 -40.482  0.00  0.00    -0.050 A 
ATOM      3  C   UNL A   1      44.746 -19.374 -39.472  0.00  0.00    -0.059 A 
ATOM      4  C   UNL A   1      44.458 -20.709 -39.192  0.00  0.00    -0.061 A 
ATOM      5  C   UNL A   1      45.071 -21.732 -39.919  0.00  0.00    -0.051 A 
ATOM      6  C   UNL A   1      45.979 -21.422 -40.939  0.00  0.00    +0.027 A 
ATOM      7  C   UNL A   1      46.268 -20.074 -41.209  0.00  0.00    -0.048 A 
ENDROOT
BRANCH   6   8
ATOM      8  C   UNL A   1      46.661 -22.468 -41.759  0.00  0.00    +0.265 C 
ATOM      9  O   UNL A   1      46.051 -22.965 -42.709  0.00  0.00    -0.283 OA
BRANCH   8  10
ATOM     10  C   UNL A   1      48.080 -22.862 -41.383  0.00  0.00    +0.455 C 
ATOM     11  F   UNL A   1      48.495 -23.984 -42.037  0.00  0.00    -0.163 F 
ATOM     12  F   UNL A   1      48.989 -21.891 -41.684  0.00  0.00    -0.163 F 
ATOM     13  F   UNL A   1      48.231 -23.121 -40.055  0.00  0.00    -0.163 F 
ENDBRANCH   8  10
ENDBRANCH   6   8
TORSDOF 2
ENDMDL
MODEL 20
REMARK VINA RESULT:    -4.924     35.128     36.404
REMARK INTER + INTRA:          -5.824
REMARK INTER:                  -5.464
REMARK INTRA:                  -0.360
REMARK UNBOUND:                -0.324
REMARK  Name = cpd160.pdb
REMARK  3 active torsions:
REMARK  status: ('A' for Active; 'I' for Inactive)
REMARK    1  A    between atoms: C_1  and  C_2
REMARK    2  A    between atoms: C_6  and  C_7
REMARK    3  A    between atoms: C_7  and  C_9
REMARK                            x       y       z     vdW  Elec       q    Type
REMARK                         _______ _______ _______ _____ _____    ______ ____
ROOT
ATOM      1  C   UNL A   1      66.277 -22.688  -3.542  0.00  0.00    -0.040 C 
ATOM      2  C   UNL A   1      65.193 -23.053  -4.513  0.00  0.00    -0.050 A 
ATOM      3  C   UNL A   1      64.160 -22.160  -4.809  0.00  0.00    -0.059 A 
ATOM      4  C   UNL A   1      63.160 -22.514  -5.714  0.00  0.00    -0.061 A 
ATOM      5  C   UNL A   1      63.181 -23.765  -6.337  0.00  0.00    -0.051 A 
ATOM      6  C   UNL A   1      64.212 -24.672  -6.057  0.00  0.00    +0.027 A 
ATOM      7  C   UNL A   1      65.210 -24.308  -5.139  0.00  0.00    -0.048 A 
ENDROOT
BRANCH   6   8
ATOM      8  C   UNL A   1      64.297 -26.020  -6.695  0.00  0.00    +0.265 C 
ATOM      9  O   UNL A   1      65.117 -26.194  -7.600  0.00  0.00    -0.283 OA
BRANCH   8  10
ATOM     10  C   UNL A   1      63.370 -27.113  -6.189  0.00  0.00    +0.455 C 
ATOM     11  F   UNL A   1      63.947 -28.346  -6.246  0.00  0.00    -0.163 F 
ATOM     12  F   UNL A   1      63.005 -26.927  -4.889  0.00  0.00    -0.163 F 
ATOM     13  F   UNL A   1      62.211 -27.204  -6.897  0.00  0.00    -0.163 F 
ENDBRANCH   8  10
ENDBRANCH   6   8
TORSDOF 2
ENDMDL
