REMARK  Name = cpd160.pdb
REMARK  3 active torsions:
REMARK  status: ('A' for Active; 'I' for Inactive)
REMARK    1  A    between atoms: C_1  and  C_2
REMARK    2  A    between atoms: C_6  and  C_7
REMARK    3  A    between atoms: C_7  and  C_9
REMARK                            x       y       z     vdW  Elec       q    Type
REMARK                         _______ _______ _______ _____ _____    ______ ____
ROOT
ATOM      1  C   UNL A   1      -1.032  -2.474  -0.004  0.00  0.00    -0.040 C 
ATOM      2  C   UNL A   1      -1.091  -0.975  -0.031  0.00  0.00    -0.050 A 
ATOM      3  C   UNL A   1      -2.315  -0.302  -0.048  0.00  0.00    -0.059 A 
ATOM      4  C   UNL A   1      -2.353   1.092  -0.073  0.00  0.00    -0.061 A 
ATOM      5  C   UNL A   1      -1.167   1.831  -0.078  0.00  0.00    -0.051 A 
ATOM      6  C   UNL A   1       0.070   1.174  -0.056  0.00  0.00    +0.027 A 
ATOM      7  C   UNL A   1       0.097  -0.230  -0.038  0.00  0.00    -0.048 A 
ENDROOT
BRANCH   6   8
ATOM      8  C   UNL A   1       1.373   1.905  -0.051  0.00  0.00    +0.265 C 
ATOM      9  O   UNL A   1       2.412   1.262  -0.222  0.00  0.00    -0.283 OA
BRANCH   8  10
ATOM     10  C   UNL A   1       1.350   3.410   0.159  0.00  0.00    +0.455 C 
ATOM     11  F   UNL A   1       0.770   4.068  -0.884  0.00  0.00    -0.163 F 
ATOM     12  F   UNL A   1       0.648   3.771   1.271  0.00  0.00    -0.163 F 
ATOM     13  F   UNL A   1       2.591   3.951   0.305  0.00  0.00    -0.163 F 
ENDBRANCH   8  10
ENDBRANCH   6   8
TORSDOF 2
