@<TRIPOS>MOLECULE
*****
 13 13 0 0 0
SMALL
GASTEIGER

@<TRIPOS>ATOM
      1 C          -0.8660   -1.5000    0.0000 C.3     1  UNL1        0.0310
      2 C          -0.8660   -0.5000    0.0000 C.ar    1  UNL1       -0.0218
      3 C          -1.7321   -0.0000    0.0000 C.ar    1  UNL1       -0.0043
      4 C          -1.7321    1.0000    0.0000 C.ar    1  UNL1       -0.0002
      5 C          -0.8660    1.5000    0.0000 C.ar    1  UNL1        0.0031
      6 C          -0.0000    1.0000    0.0000 C.ar    1  UNL1        0.0428
      7 C           0.8660    1.5000    0.0000 C.2     1  UNL1        0.2666
      8 O           1.7321    1.0000    0.0000 O.2     1  UNL1       -0.2825
      9 C           0.8660    2.5000    0.0000 C.3     1  UNL1        0.4554
     10 F           0.3660    3.3660    0.0000 F       1  UNL1       -0.1631
     11 F          -0.1340    2.5000    0.0000 F       1  UNL1       -0.1631
     12 F           1.7321    3.0000    0.0000 F       1  UNL1       -0.1631
     13 C           0.0000    0.0000    0.0000 C.ar    1  UNL1       -0.0011
@<TRIPOS>BOND
     1     1     2    1
     2     2     3   ar
     3     3     4   ar
     4     4     5   ar
     5     5     6   ar
     6     6     7    1
     7     7     8    2
     8     7     9    1
     9     9    10    1
    10     9    11    1
    11     9    12    1
    12     6    13   ar
    13     2    13   ar
