REMARK  Name = cpd101.pdb
REMARK  8 active torsions:
REMARK  status: ('A' for Active; 'I' for Inactive)
REMARK    1  A    between atoms: C_1  and  C_2
REMARK    2  A    between atoms: C_11  and  N_12
REMARK    3  A    between atoms: C_13  and  C_14
REMARK    4  A    between atoms: C_14  and  O_15
REMARK    5  A    between atoms: O_15  and  C_16
REMARK    6  A    between atoms: C_16  and  C_17
REMARK    7  A    between atoms: C_21  and  C_22
REMARK    8  A    between atoms: C_22  and  C_24
REMARK                            x       y       z     vdW  Elec       q    Type
REMARK                         _______ _______ _______ _____ _____    ______ ____
ROOT
ATOM      1  C   UNL A   1      -4.235  -1.695   0.177  0.00  0.00    -0.022 C 
ATOM      2  C   UNL A   1      -4.327  -0.197   0.153  0.00  0.00    +0.046 A 
ATOM      3  N   UNL A   1      -5.567   0.270   0.452  0.00  0.00    -0.251 NA
ATOM      4  C   UNL A   1      -5.812   1.583   0.417  0.00  0.00    +0.076 A 
ATOM      5  C   UNL A   1      -7.108   2.011   0.685  0.00  0.00    -0.035 A 
ATOM      6  C   UNL A   1      -7.467   3.359   0.662  0.00  0.00    -0.057 A 
ATOM      7  C   UNL A   1      -6.502   4.309   0.369  0.00  0.00    -0.026 A 
ATOM      8  C   UNL A   1      -5.201   3.892   0.103  0.00  0.00    +0.134 A 
ATOM      9  F   UNL A   1      -4.288   4.845  -0.151  0.00  0.00    -0.205 F 
ATOM     10  C   UNL A   1      -4.821   2.528   0.113  0.00  0.00    +0.056 A 
ATOM     11  C   UNL A   1      -3.506   2.041  -0.145  0.00  0.00    +0.044 A 
ATOM     12  C   UNL A   1      -3.255   0.645  -0.165  0.00  0.00    +0.020 A 
ENDROOT
BRANCH  11  13
ATOM     13  N   UNL A   1      -2.504   2.943  -0.593  0.00  0.00    -0.357 N 
ATOM     14  H   UNL A   1      -2.674   3.913  -0.581  0.00  0.00    +0.000 HD
ATOM     15  H   UNL A   1      -1.640   2.598  -0.915  0.00  0.00    +0.000 HD
ENDBRANCH  11  13
BRANCH  12  16
ATOM     16  C   UNL A   1      -1.888   0.161  -0.610  0.00  0.00    +0.077 C 
BRANCH  16  17
ATOM     17  O   UNL A   1      -1.627  -1.225  -0.404  0.00  0.00    -0.370 OA
BRANCH  17  18
ATOM     18  C   UNL A   1      -0.478  -1.687  -1.112  0.00  0.00    +0.073 C 
BRANCH  18  19
ATOM     19  C   UNL A   1       0.798  -1.304  -0.405  0.00  0.00    -0.021 A 
ATOM     20  C   UNL A   1       1.224  -2.015   0.723  0.00  0.00    -0.056 A 
ATOM     21  C   UNL A   1       2.395  -1.650   1.387  0.00  0.00    -0.061 A 
ATOM     22  C   UNL A   1       3.147  -0.559   0.945  0.00  0.00    -0.051 A 
ATOM     23  C   UNL A   1       2.730   0.176  -0.170  0.00  0.00    +0.027 A 
ATOM     24  C   UNL A   1       1.557  -0.208  -0.842  0.00  0.00    -0.046 A 
BRANCH  23  25
ATOM     25  C   UNL A   1       3.467   1.375  -0.675  0.00  0.00    +0.265 C 
ATOM     26  O   UNL A   1       2.956   2.040  -1.580  0.00  0.00    -0.283 OA
BRANCH  25  27
ATOM     27  C   UNL A   1       4.801   1.722  -0.035  0.00  0.00    +0.455 C 
ATOM     28  F   UNL A   1       5.688   0.689  -0.090  0.00  0.00    -0.163 F 
ATOM     29  F   UNL A   1       4.673   2.041   1.284  0.00  0.00    -0.163 F 
ATOM     30  F   UNL A   1       5.419   2.783  -0.622  0.00  0.00    -0.163 F 
ENDBRANCH  25  27
ENDBRANCH  23  25
ENDBRANCH  18  19
ENDBRANCH  17  18
ENDBRANCH  16  17
ENDBRANCH  12  16
TORSDOF 7
