@<TRIPOS>MOLECULE
*****
 34 36 0 0 0
SMALL
GASTEIGER

@<TRIPOS>ATOM
      1 C          -5.0916    0.0055    0.0000 C.3     1  UNL1        0.0006
      2 C          -5.0916   -0.9945    0.0000 C.3     1  UNL1        0.0111
      3 C          -5.9576   -1.4945    0.0000 C.3     1  UNL1        0.0009
      4 C          -6.8237   -0.9945    0.0000 C.3     1  UNL1        0.0041
      5 C          -7.6897   -1.4945    0.0000 C.3     1  UNL1        0.0205
      6 C          -7.6897   -2.4945    0.0000 C.2     1  UNL1       -0.0162
      7 C          -6.8237   -2.9945    0.0000 C.3     1  UNL1        0.2041
      8 O          -6.8237   -3.9945    0.0000 O.3     1  UNL1       -0.2155
      9 C          -8.5557   -2.9945    0.0000 C.2     1  UNL1       -0.0321
     10 C          -9.4218   -2.4945    0.0000 C.3     1  UNL1        0.0255
     11 C          -9.4218   -1.4945    0.0000 C.3     1  UNL1        0.0046
     12 C         -10.2878   -0.9945    0.0000 C.3     1  UNL1        0.0003
     13 C         -11.2878   -0.9945    0.0000 C.3     1  UNL1        0.0000
     14 C         -10.7878   -1.8605    0.0000 C.3     1  UNL1        0.0000
     15 C         -10.2878    0.0055    0.0000 C.3     1  UNL1        0.0000
     16 C          -9.4218    0.5055    0.0000 C.3     1  UNL1        0.0000
     17 C          -8.5557    0.0055    0.0000 C.3     1  UNL1        0.0003
     18 C          -8.5557   -0.9945    0.0000 C.3     1  UNL1        0.0038
     19 C          -7.6897   -0.4945    0.0000 C.3     1  UNL1        0.0003
     20 C          -4.2256   -1.4945    0.0000 C.3     1  UNL1        0.1096
     21 C          -4.2256   -2.4945    0.0000 C.2     1  UNL1        0.3170
     22 O          -5.0916   -2.9945    0.0000 O.2     1  UNL1       -0.2501
     23 O          -3.3596   -2.9945    0.0000 O.3     1  UNL1       -0.4485
     24 C          -2.4935   -2.4945    0.0000 C.3     1  UNL1        0.2084
     25 C          -1.6275   -2.9945    0.0000 C.3     1  UNL1        0.0474
     26 C          -0.7615   -2.4945    0.0000 C.3     1  UNL1        0.0039
     27 C           0.1045   -2.9945    0.0000 C.3     1  UNL1        0.0016
     28 C           0.9706   -2.4945    0.0000 C.3     1  UNL1        0.0173
     29 C           0.9706   -1.4945    0.0000 C.3     1  UNL1        0.0721
     30 N           0.1045   -0.9945    0.0000 N.3     1  UNL1       -0.2727
     31 C          -0.8090   -1.4013    0.0000 C.3     1  UNL1        0.0721
     32 C          -1.4781   -0.6581    0.0000 C.3     1  UNL1        0.0188
     33 C          -0.9781    0.2079    0.0000 C.3     1  UNL1        0.0188
     34 C           0.0000    0.0000    0.0000 C.3     1  UNL1        0.0721
@<TRIPOS>BOND
     1     1     2    1
     2     2     3    1
     3     3     4    1
     4     4     5    1
     5     5     6    1
     6     6     7    1
     7     7     8    1
     8     6     9    2
     9     9    10    1
    10    10    11    1
    11    11    12    1
    12    12    13    1
    13    12    14    1
    14    12    15    1
    15    15    16    1
    16    16    17    1
    17    17    18    1
    18     5    18    1
    19    11    18    1
    20    18    19    1
    21     2    20    1
    22    20    21    1
    23    21    22    2
    24    21    23    1
    25    23    24    1
    26    24    25    1
    27    25    26    1
    28    26    27    1
    29    27    28    1
    30    28    29    1
    31    29    30    1
    32    30    31    1
    33    31    32    1
    34    32    33    1
    35    33    34    1
    36    30    34    1
