REMARK  Name = cpd296.pdb
REMARK  19 active torsions:
REMARK  status: ('A' for Active; 'I' for Inactive)
REMARK    1  A    between atoms: C_1  and  C_2
REMARK    2  A    between atoms: C_2  and  C_3
REMARK    3  A    between atoms: C_2  and  C_20
REMARK    4  A    between atoms: C_3  and  C_4
REMARK    5  A    between atoms: C_4  and  C_5
REMARK    6  A    between atoms: C_6  and  C_7
REMARK    7  A    between atoms: C_7  and  O_8
REMARK    8  A    between atoms: C_12  and  C_13
REMARK    9  A    between atoms: C_12  and  C_14
REMARK   10  A    between atoms: C_18  and  C_19
REMARK   11  A    between atoms: C_20  and  C_21
REMARK   12  A    between atoms: C_21  and  O_23
REMARK   13  A    between atoms: O_23  and  C_24
REMARK   14  A    between atoms: C_24  and  C_25
REMARK   15  A    between atoms: C_25  and  C_26
REMARK   16  A    between atoms: C_26  and  C_27
REMARK   17  A    between atoms: C_27  and  C_28
REMARK   18  A    between atoms: C_28  and  C_29
REMARK   19  A    between atoms: C_29  and  N_30
REMARK                            x       y       z     vdW  Elec       q    Type
REMARK                         _______ _______ _______ _____ _____    ______ ____
ROOT
ATOM      1  C   UNL     1      -4.122   0.135   0.626  0.00  0.00    -0.062 C 
ATOM      2  C   UNL     1      -4.475  -0.829  -0.513  0.00  0.00    -0.034 C 
ENDROOT
BRANCH   2   3
ATOM      3  C   UNL     1      -5.590  -1.826  -0.119  0.00  0.00    -0.049 C 
BRANCH   3   4
ATOM      4  C   UNL     1      -6.845  -1.160   0.475  0.00  0.00    -0.046 C 
BRANCH   4   5
ATOM      5  C   UNL     1      -8.181  -1.941   0.254  0.00  0.00    -0.012 C 
ATOM      6  C   UNL     1      -8.382  -3.160   1.186  0.00  0.00    -0.045 C 
ATOM      7  C   UNL     1      -9.615  -3.511   1.611  0.00  0.00    -0.082 C 
ATOM      8  C   UNL     1     -10.893  -2.823   1.241  0.00  0.00    -0.031 C 
ATOM      9  C   UNL     1     -10.730  -1.847   0.064  0.00  0.00    -0.027 C 
ATOM     10  C   UNL     1     -12.068  -1.127  -0.347  0.00  0.00    -0.031 C 
ATOM     11  C   UNL     1     -12.801  -0.411   0.806  0.00  0.00    -0.060 C 
ATOM     12  C   UNL     1     -13.068  -2.174  -0.904  0.00  0.00    -0.060 C 
ATOM     13  C   UNL     1     -11.790  -0.123  -1.489  0.00  0.00    -0.048 C 
ATOM     14  C   UNL     1     -10.634   0.819  -1.195  0.00  0.00    -0.052 C 
ATOM     15  C   UNL     1      -9.348   0.046  -0.924  0.00  0.00    -0.047 C 
ATOM     16  C   UNL     1      -9.449  -0.955   0.262  0.00  0.00    -0.022 C 
ATOM     17  C   UNL     1      -9.457  -0.154   1.589  0.00  0.00    -0.059 C 
BRANCH   6  18
ATOM     18  C   UNL     1      -7.165  -3.988   1.536  0.00  0.00    +0.066 C 
BRANCH  18  19
ATOM     19  O   UNL     1      -7.472  -5.127   2.330  0.00  0.00    -0.391 OA
ATOM     20  H   UNL     1      -7.854  -4.839   3.174  0.00  0.00    +0.000 HD
ENDBRANCH  18  19
ENDBRANCH   6  18
ENDBRANCH   4   5
ENDBRANCH   3   4
ENDBRANCH   2   3
BRANCH   2  21
ATOM     21  C   UNL     1      -3.198  -1.580  -0.938  0.00  0.00    +0.048 C 
BRANCH  21  22
ATOM     22  C   UNL     1      -3.416  -2.489  -2.127  0.00  0.00    +0.307 C 
ATOM     23  O   UNL     1      -3.934  -2.063  -3.156  0.00  0.00    -0.251 OA
BRANCH  22  24
ATOM     24  O   UNL     1      -2.972  -3.765  -2.070  0.00  0.00    -0.465 OA
BRANCH  24  25
ATOM     25  C   UNL     1      -2.610  -4.493  -0.877  0.00  0.00    +0.092 C 
BRANCH  25  26
ATOM     26  C   UNL     1      -1.096  -4.697  -0.798  0.00  0.00    -0.019 C 
BRANCH  26  27
ATOM     27  C   UNL     1      -0.323  -3.383  -0.699  0.00  0.00    -0.050 C 
BRANCH  27  28
ATOM     28  C   UNL     1       1.190  -3.596  -0.582  0.00  0.00    -0.052 C 
BRANCH  28  29
ATOM     29  C   UNL     1       1.954  -2.274  -0.721  0.00  0.00    -0.040 C 
BRANCH  29  30
ATOM     30  C   UNL     1       1.780  -1.340   0.488  0.00  0.00    -0.001 C 
BRANCH  30  31
ATOM     31  N   UNL     1       1.833   0.072   0.098  0.00  0.00    -0.302 N 
ATOM     32  C   UNL     1       0.611   0.517  -0.582  0.00  0.00    -0.001 C 
ATOM     33  C   UNL     1       0.659   2.034  -0.470  0.00  0.00    -0.039 C 
ATOM     34  C   UNL     1       1.619   2.322   0.677  0.00  0.00    -0.039 C 
ATOM     35  C   UNL     1       1.952   0.958   1.259  0.00  0.00    -0.001 C 
ATOM     36  H   UNL     1       2.646   0.129  -0.516  0.00  0.00    +0.000 HD
ENDBRANCH  30  31
ENDBRANCH  29  30
ENDBRANCH  28  29
ENDBRANCH  27  28
ENDBRANCH  26  27
ENDBRANCH  25  26
ENDBRANCH  24  25
ENDBRANCH  22  24
ENDBRANCH  21  22
ENDBRANCH   2  21
TORSDOF 15
