REMARK  Name = cpd153.pdb
REMARK  11 active torsions:
REMARK  status: ('A' for Active; 'I' for Inactive)
REMARK    1  A    between atoms: C_2  and  C_3
REMARK    2  A    between atoms: C_3  and  S_4
REMARK    3  A    between atoms: S_4  and  C_5
REMARK    4  A    between atoms: C_5  and  C_6
REMARK    5  A    between atoms: C_6  and  N_7
REMARK    6  A    between atoms: C_6  and  C_8
REMARK    7  A    between atoms: N_10  and  C_11
REMARK    8  A    between atoms: C_11  and  C_12
REMARK    9  A    between atoms: C_12  and  C_13
REMARK   10  A    between atoms: C_13  and  N_14
REMARK   11  A    between atoms: N_14  and  C_15
REMARK                            x       y       z     vdW  Elec       q    Type
REMARK                         _______ _______ _______ _____ _____    ______ ____
ROOT
ATOM      1  C   UNL     1       2.497  -1.260   1.598  0.00  0.00    +0.011 C 
ENDROOT
BRANCH   1   2
ATOM      2  N   UNL     1       1.368  -0.382   1.963  0.00  0.00    -0.343 N 
ATOM      3  H   UNL     1       0.732  -0.592   2.685  0.00  0.00    +0.000 HD
BRANCH   2   4
ATOM      4  C   UNL     1       1.287   0.800   1.168  0.00  0.00    +0.041 A 
ATOM      5  C   UNL     1       0.237   0.907   0.237  0.00  0.00    -0.005 A 
ATOM      6  C   UNL     1       0.204   2.040  -0.577  0.00  0.00    +0.047 A 
ATOM      7  N   UNL     1       1.111   3.041  -0.489  0.00  0.00    -0.251 NA
ATOM      8  C   UNL     1       2.091   2.956   0.418  0.00  0.00    +0.074 A 
ATOM      9  C   UNL     1       2.992   4.009   0.491  0.00  0.00    -0.017 A 
ATOM     10  C   UNL     1       4.038   4.006   1.408  0.00  0.00    +0.043 A 
ATOM     11 CL   UNL     1       5.134   5.331   1.465  0.00  0.00    -0.083 Cl
ATOM     12  C   UNL     1       4.201   2.940   2.279  0.00  0.00    -0.043 A 
ATOM     13  C   UNL     1       3.305   1.873   2.222  0.00  0.00    -0.049 A 
ATOM     14  C   UNL     1       2.237   1.856   1.288  0.00  0.00    +0.022 A 
ATOM     15  C   UNL     1      -0.903   2.269  -1.575  0.00  0.00    -0.010 C 
ATOM     16  C   UNL     1      -1.678   1.004  -1.926  0.00  0.00    -0.047 C 
ATOM     17  C   UNL     1      -2.057   0.259  -0.655  0.00  0.00    -0.049 C 
ATOM     18  C   UNL     1      -0.800  -0.181   0.095  0.00  0.00    -0.024 C 
ENDBRANCH   2   4
ENDBRANCH   1   2
BRANCH   1  19
ATOM     19  C   UNL     1       2.000  -2.459   0.793  0.00  0.00    -0.022 C 
BRANCH  19  20
ATOM     20  C   UNL     1       3.061  -3.548   0.646  0.00  0.00    +0.013 C 
BRANCH  20  23
ATOM     21  C   UNL     1       5.288  -2.551   0.179  0.00  0.00    +0.231 C 
ATOM     22  O   UNL     1       5.440  -2.172   1.336  0.00  0.00    -0.274 OA
ATOM     23  N   UNL     1       4.133  -3.178  -0.257  0.00  0.00    -0.314 N 
ATOM     24  H   UNL     1       4.036  -3.380  -1.216  0.00  0.00    +0.000 HD
BRANCH  21  25
ATOM     25  C   UNL     1       6.280  -2.249  -0.965  0.00  0.00    +0.091 C 
BRANCH  25  26
ATOM     26  N   UNL     1       5.784  -1.048  -1.687  0.00  0.00    -0.319 N 
ATOM     27  H   UNL     1       5.745  -0.257  -1.044  0.00  0.00    +0.000 HD
ATOM     28  H   UNL     1       4.851  -1.234  -2.055  0.00  0.00    +0.000 HD
ATOM     29  H   UNL     1       6.416  -0.829  -2.457  0.00  0.00    +0.000 HD
ENDBRANCH  25  26
BRANCH  25  30
ATOM     30  C   UNL     1       7.706  -2.003  -0.450  0.00  0.00    +0.018 C 
BRANCH  30  31
ATOM     31  S   UNL     1       8.551  -3.472   0.251  0.00  0.00    -0.155 S 
BRANCH  31  32
ATOM     32  C   UNL     1       8.694  -4.511  -1.228  0.00  0.00    +0.012 C 
BRANCH  32  34
ATOM     33  C   UNL     1       6.673  -5.941  -0.521  0.00  0.00    -0.102 C 
ATOM     34  C   UNL     1       7.601  -5.531  -1.399  0.00  0.00    -0.081 C 
ENDBRANCH  32  34
ENDBRANCH  31  32
ENDBRANCH  30  31
ENDBRANCH  25  30
ENDBRANCH  21  25
ENDBRANCH  20  23
ENDBRANCH  19  20
ENDBRANCH   1  19
TORSDOF 11
