@<TRIPOS>MOLECULE
*****
 29 31 0 0 0
SMALL
GASTEIGER

@<TRIPOS>ATOM
      1 C           6.0622   -4.5000    0.0000 C.2     1  UNL1       -0.0040
      2 C           6.9282   -4.0000    0.0000 C.2     1  UNL1       -0.0145
      3 C           6.9282   -3.0000    0.0000 C.3     1  UNL1        0.0835
      4 S           6.0622   -2.5000    0.0000 S.3     1  UNL1       -0.1334
      5 C           6.0622   -1.5000    0.0000 C.3     1  UNL1        0.0862
      6 C           5.1962   -1.0000    0.0000 C.3     1  UNL1        0.1800
      7 N           5.1962    0.0000    0.0000 N.3     1  UNL1       -0.1221
      8 C           4.3301   -1.5000    0.0000 C.2     1  UNL1        0.2597
      9 O           3.4641   -1.0000    0.0000 O.2     1  UNL1       -0.2718
     10 N           4.3301   -2.5000    0.0000 N.am    1  UNL1       -0.2041
     11 C           3.4641   -3.0000    0.0000 C.3     1  UNL1        0.1170
     12 C           2.5981   -2.5000    0.0000 C.3     1  UNL1        0.0467
     13 C           2.5981   -1.5000    0.0000 C.3     1  UNL1        0.1140
     14 N           1.7321   -1.0000    0.0000 N.pl3   1  UNL1       -0.2378
     15 C           1.7321    0.0000    0.0000 C.ar    1  UNL1        0.0638
     16 C           0.8660    0.5000    0.0000 C.ar    1  UNL1        0.0062
     17 C           0.8660    1.5000    0.0000 C.ar    1  UNL1        0.0562
     18 N           1.7321    2.0000    0.0000 N.ar    1  UNL1       -0.2499
     19 C           2.5981    1.5000    0.0000 C.ar    1  UNL1        0.0829
     20 C           3.4641    2.0000    0.0000 C.ar    1  UNL1        0.0305
     21 C           4.3301    1.5000    0.0000 C.ar    1  UNL1        0.0592
     22 CL          5.1962    2.0000    0.0000 Cl      1  UNL1       -0.0822
     23 C           4.3301    0.5000    0.0000 C.ar    1  UNL1        0.0115
     24 C           3.4641    0.0000    0.0000 C.ar    1  UNL1        0.0036
     25 C           2.5981    0.5000    0.0000 C.ar    1  UNL1        0.0323
     26 C          -0.0000    2.0000    0.0000 C.3     1  UNL1        0.0455
     27 C          -0.8660    1.5000    0.0000 C.3     1  UNL1        0.0066
     28 C          -0.8660    0.5000    0.0000 C.3     1  UNL1        0.0052
     29 C           0.0000    0.0000    0.0000 C.3     1  UNL1        0.0289
@<TRIPOS>BOND
     1     1     2    2
     2     2     3    1
     3     3     4    1
     4     4     5    1
     5     5     6    1
     6     6     7    1
     7     6     8    1
     8     8     9    2
     9     8    10   am
    10    10    11    1
    11    11    12    1
    12    12    13    1
    13    13    14    1
    14    14    15    1
    15    15    16   ar
    16    16    17   ar
    17    17    18   ar
    18    18    19   ar
    19    19    20   ar
    20    20    21   ar
    21    21    22    1
    22    21    23   ar
    23    23    24   ar
    24    24    25   ar
    25    15    25   ar
    26    19    25   ar
    27    17    26    1
    28    26    27    1
    29    27    28    1
    30    28    29    1
    31    16    29    1
