REMARK  Name = cpd229.pdb
REMARK  13 active torsions:
REMARK  status: ('A' for Active; 'I' for Inactive)
REMARK    1  A    between atoms: C_1  and  O_2
REMARK    2  A    between atoms: O_2  and  C_3
REMARK    3  A    between atoms: C_3  and  C_5
REMARK    4  A    between atoms: C_5  and  C_6
REMARK    5  A    between atoms: C_6  and  C_7
REMARK    6  A    between atoms: C_7  and  N_8
REMARK    7  A    between atoms: C_7  and  C_21
REMARK    8  A    between atoms: C_9  and  C_11
REMARK    9  A    between atoms: C_11  and  O_12
REMARK   10  A    between atoms: O_12  and  C_13
REMARK   11  A    between atoms: C_16  and  C_17
REMARK   12  A    between atoms: C_21  and  O_23
REMARK   13  A    between atoms: O_23  and  C_24
REMARK                            x       y       z     vdW  Elec       q    Type
REMARK                         _______ _______ _______ _____ _____    ______ ____
ROOT
ATOM      1  N   UNL A   1       0.359   3.287   0.515  0.00  0.00    -0.300 N 
ATOM      2  C   UNL A   1      -0.193   2.145   1.033  0.00  0.00    +0.251 C 
ATOM      3  O   UNL A   1      -1.416   2.020   1.000  0.00  0.00    -0.272 OA
ATOM      4  H   UNL A   1      -0.273   4.003   0.275  0.00  0.00    +0.000 HD
ENDROOT
BRANCH   1   5
ATOM      5  C   UNL A   1       1.777   3.573   0.274  0.00  0.00    +0.121 C 
BRANCH   5   6
ATOM      6  C   UNL A   1       2.186   2.951  -1.070  0.00  0.00    +0.327 C 
ATOM      7  O   UNL A   1       1.446   2.806  -2.034  0.00  0.00    -0.249 OA
BRANCH   6   8
ATOM      8  O   UNL A   1       3.500   2.585  -1.032  0.00  0.00    -0.467 OA
ATOM      9  C   UNL A   1       3.971   1.986  -2.241  0.00  0.00    +0.082 C 
ENDBRANCH   6   8
ENDBRANCH   5   6
BRANCH   5  10
ATOM     10  C   UNL A   1       2.004   5.088   0.265  0.00  0.00    -0.014 C 
BRANCH  10  11
ATOM     11  C   UNL A   1       3.488   5.476   0.288  0.00  0.00    +0.047 C 
BRANCH  11  12
ATOM     12  C   UNL A   1       3.669   6.976   0.409  0.00  0.00    +0.307 C 
ATOM     13  O   UNL A   1       2.723   7.755   0.432  0.00  0.00    -0.251 OA
BRANCH  12  15
ATOM     14  C   UNL A   1       6.074   6.553   0.440  0.00  0.00    +0.082 C 
ATOM     15  O   UNL A   1       4.943   7.433   0.489  0.00  0.00    -0.468 OA
ENDBRANCH  12  15
ENDBRANCH  11  12
ENDBRANCH  10  11
ENDBRANCH   5  10
ENDBRANCH   1   5
BRANCH   2  16
ATOM     16  C   UNL A   1       0.750   1.085   1.621  0.00  0.00    +0.165 C 
BRANCH  16  17
ATOM     17  O   UNL A   1       0.143  -0.113   2.076  0.00  0.00    -0.483 OA
BRANCH  17  18
ATOM     18  C   UNL A   1      -0.154  -1.074   1.150  0.00  0.00    +0.121 A 
ATOM     19  C   UNL A   1      -0.481  -2.320   1.695  0.00  0.00    -0.019 A 
ATOM     20  C   UNL A   1      -0.815  -3.395   0.868  0.00  0.00    -0.048 A 
ATOM     21  C   UNL A   1      -0.833  -3.219  -0.516  0.00  0.00    +0.014 A 
ATOM     22  C   UNL A   1      -0.518  -1.977  -1.071  0.00  0.00    -0.048 A 
ATOM     23  C   UNL A   1      -0.178  -0.905  -0.236  0.00  0.00    -0.019 A 
BRANCH  21  24
ATOM     24  C   UNL A   1      -1.192  -4.342  -1.405  0.00  0.00    +0.150 C 
ATOM     25  O   UNL A   1      -1.436  -5.463  -0.976  0.00  0.00    -0.296 OA
ENDBRANCH  21  24
ENDBRANCH  17  18
ENDBRANCH  16  17
ENDBRANCH   2  16
TORSDOF 11
