@<TRIPOS>MOLECULE
*****
 24 24 0 0 0
SMALL
GASTEIGER

@<TRIPOS>ATOM
      1 C           4.3301    5.5000    0.0000 C.3     1  UNL1        0.2556
      2 O           3.4641    6.0000    0.0000 O.3     1  UNL1       -0.4444
      3 C           2.5981    5.5000    0.0000 C.2     1  UNL1        0.3172
      4 O           1.7321    6.0000    0.0000 O.2     1  UNL1       -0.2501
      5 C           2.5981    4.5000    0.0000 C.3     1  UNL1        0.1119
      6 C           1.7321    4.0000    0.0000 C.3     1  UNL1        0.0448
      7 C           1.7321    3.0000    0.0000 C.3     1  UNL1        0.1941
      8 N           0.8660    2.5000    0.0000 N.am    1  UNL1       -0.1926
      9 C           0.8660    1.5000    0.0000 C.2     1  UNL1        0.2863
     10 O           0.0000    1.0000    0.0000 O.2     1  UNL1       -0.2693
     11 C           1.7321    1.0000    0.0000 C.3     1  UNL1        0.2911
     12 O           1.7321   -0.0000    0.0000 O.3     1  UNL1       -0.4656
     13 C           0.8660   -0.5000    0.0000 C.ar    1  UNL1        0.1393
     14 C           0.8660   -1.5000    0.0000 C.ar    1  UNL1        0.0370
     15 C           0.0000   -2.0000    0.0000 C.ar    1  UNL1        0.0064
     16 C          -0.8660   -1.5000    0.0000 C.ar    1  UNL1        0.0424
     17 C          -1.7321   -2.0000    0.0000 C.2     1  UNL1        0.2342
     18 O          -1.7321   -3.0000    0.0000 O.2     1  UNL1       -0.2831
     19 C          -0.8660   -0.5000    0.0000 C.ar    1  UNL1        0.0064
     20 C          -0.0000   -0.0000    0.0000 C.ar    1  UNL1        0.0370
     21 C           2.5981    2.5000    0.0000 C.2     1  UNL1        0.3371
     22 O           2.5981    1.5000    0.0000 O.2     1  UNL1       -0.2482
     23 O           3.4641    3.0000    0.0000 O.3     1  UNL1       -0.4432
     24 C           4.3301    2.5000    0.0000 C.3     1  UNL1        0.2557
@<TRIPOS>BOND
     1     1     2    1
     2     2     3    1
     3     3     4    2
     4     3     5    1
     5     5     6    1
     6     6     7    1
     7     7     8    1
     8     8     9   am
     9     9    10    2
    10     9    11    1
    11    11    12    1
    12    12    13    1
    13    13    14   ar
    14    14    15   ar
    15    15    16   ar
    16    16    17    1
    17    17    18    2
    18    16    19   ar
    19    19    20   ar
    20    13    20   ar
    21     7    21    1
    22    21    22    2
    23    21    23    1
    24    23    24    1
