MODEL 1
REMARK VINA RESULT:    -5.858      0.000      0.000
REMARK INTER + INTRA:         -10.496
REMARK INTER:                  -9.625
REMARK INTRA:                  -0.872
REMARK UNBOUND:                -0.872
REMARK  Name = cpd229.pdb
REMARK  13 active torsions:
REMARK  status: ('A' for Active; 'I' for Inactive)
REMARK    1  A    between atoms: C_1  and  O_2
REMARK    2  A    between atoms: O_2  and  C_3
REMARK    3  A    between atoms: C_3  and  C_5
REMARK    4  A    between atoms: C_5  and  C_6
REMARK    5  A    between atoms: C_6  and  C_7
REMARK    6  A    between atoms: C_7  and  N_8
REMARK    7  A    between atoms: C_7  and  C_21
REMARK    8  A    between atoms: C_9  and  C_11
REMARK    9  A    between atoms: C_11  and  O_12
REMARK   10  A    between atoms: O_12  and  C_13
REMARK   11  A    between atoms: C_16  and  C_17
REMARK   12  A    between atoms: C_21  and  O_23
REMARK   13  A    between atoms: O_23  and  C_24
REMARK                            x       y       z     vdW  Elec       q    Type
REMARK                         _______ _______ _______ _____ _____    ______ ____
ROOT
ATOM      1  N   UNL A   1      35.286 -36.912 -28.367  0.00  0.00    -0.300 N 
ATOM      2  C   UNL A   1      36.442 -37.601 -28.623  0.00  0.00    +0.251 C 
ATOM      3  O   UNL A   1      36.955 -38.242 -27.708  0.00  0.00    -0.272 OA
ATOM      4  H   UNL A   1      35.014 -36.860 -27.422  0.00  0.00    +0.000 HD
ENDROOT
BRANCH   1   5
ATOM      5  C   UNL A   1      34.404 -36.244 -29.329  0.00  0.00    +0.121 C 
BRANCH   5   6
ATOM      6  C   UNL A   1      32.962 -36.716 -29.090  0.00  0.00    +0.327 C 
ATOM      7  O   UNL A   1      32.395 -37.598 -29.722  0.00  0.00    -0.249 OA
BRANCH   6   8
ATOM      8  O   UNL A   1      32.405 -36.009 -28.066  0.00  0.00    -0.467 OA
ATOM      9  C   UNL A   1      31.829 -36.824 -27.043  0.00  0.00    +0.082 C 
ENDBRANCH   6   8
ENDBRANCH   5   6
BRANCH   5  10
ATOM     10  C   UNL A   1      34.514 -34.725 -29.162  0.00  0.00    -0.014 C 
BRANCH  10  11
ATOM     11  C   UNL A   1      35.043 -34.017 -30.416  0.00  0.00    +0.047 C 
BRANCH  11  12
ATOM     12  C   UNL A   1      33.993 -33.108 -31.026  0.00  0.00    +0.307 C 
ATOM     13  O   UNL A   1      33.762 -33.082 -32.229  0.00  0.00    -0.251 OA
BRANCH  12  15
ATOM     14  C   UNL A   1      32.319 -31.376 -30.629  0.00  0.00    +0.082 C 
ATOM     15  O   UNL A   1      33.308 -32.308 -30.173  0.00  0.00    -0.468 OA
ENDBRANCH  12  15
ENDBRANCH  11  12
ENDBRANCH  10  11
ENDBRANCH   5  10
ENDBRANCH   1   5
BRANCH   2  16
ATOM     16  C   UNL A   1      37.028 -37.535 -30.042  0.00  0.00    +0.165 C 
BRANCH  16  17
ATOM     17  O   UNL A   1      37.764 -36.367 -30.364  0.00  0.00    -0.483 OA
BRANCH  17  18
ATOM     18  C   UNL A   1      39.075 -36.512 -30.722  0.00  0.00    +0.121 A 
ATOM     19  C   UNL A   1      39.834 -37.284 -29.835  0.00  0.00    -0.019 A 
ATOM     20  C   UNL A   1      41.188 -37.525 -30.078  0.00  0.00    -0.048 A 
ATOM     21  C   UNL A   1      41.786 -36.998 -31.223  0.00  0.00    +0.014 A 
ATOM     22  C   UNL A   1      41.037 -36.235 -32.121  0.00  0.00    -0.048 A 
ATOM     23  C   UNL A   1      39.680 -35.992 -31.868  0.00  0.00    -0.019 A 
BRANCH  21  24
ATOM     24  C   UNL A   1      43.215 -37.250 -31.500  0.00  0.00    +0.150 C 
ATOM     25  O   UNL A   1      44.035 -37.412 -30.605  0.00  0.00    -0.296 OA
ENDBRANCH  21  24
ENDBRANCH  17  18
ENDBRANCH  16  17
ENDBRANCH   2  16
TORSDOF 11
ENDMDL
MODEL 2
REMARK VINA RESULT:    -5.776      3.188      4.870
REMARK INTER + INTRA:         -10.362
REMARK INTER:                  -9.405
REMARK INTRA:                  -0.957
REMARK UNBOUND:                -0.872
REMARK  Name = cpd229.pdb
REMARK  13 active torsions:
REMARK  status: ('A' for Active; 'I' for Inactive)
REMARK    1  A    between atoms: C_1  and  O_2
REMARK    2  A    between atoms: O_2  and  C_3
REMARK    3  A    between atoms: C_3  and  C_5
REMARK    4  A    between atoms: C_5  and  C_6
REMARK    5  A    between atoms: C_6  and  C_7
REMARK    6  A    between atoms: C_7  and  N_8
REMARK    7  A    between atoms: C_7  and  C_21
REMARK    8  A    between atoms: C_9  and  C_11
REMARK    9  A    between atoms: C_11  and  O_12
REMARK   10  A    between atoms: O_12  and  C_13
REMARK   11  A    between atoms: C_16  and  C_17
REMARK   12  A    between atoms: C_21  and  O_23
REMARK   13  A    between atoms: O_23  and  C_24
REMARK                            x       y       z     vdW  Elec       q    Type
REMARK                         _______ _______ _______ _____ _____    ______ ____
ROOT
ATOM      1  N   UNL A   1      34.834 -38.982 -29.135  0.00  0.00    -0.300 N 
ATOM      2  C   UNL A   1      35.292 -37.706 -29.332  0.00  0.00    +0.251 C 
ATOM      3  O   UNL A   1      34.615 -36.771 -28.908  0.00  0.00    -0.272 OA
ATOM      4  H   UNL A   1      33.916 -39.064 -28.788  0.00  0.00    +0.000 HD
ENDROOT
BRANCH   1   5
ATOM      5  C   UNL A   1      35.545 -40.242 -29.378  0.00  0.00    +0.121 C 
BRANCH   5   6
ATOM      6  C   UNL A   1      35.573 -41.054 -28.074  0.00  0.00    +0.327 C 
ATOM      7  O   UNL A   1      36.346 -41.971 -27.831  0.00  0.00    -0.249 OA
BRANCH   6   8
ATOM      8  O   UNL A   1      34.608 -40.599 -27.223  0.00  0.00    -0.467 OA
ATOM      9  C   UNL A   1      33.752 -41.625 -26.716  0.00  0.00    +0.082 C 
ENDBRANCH   6   8
ENDBRANCH   5   6
BRANCH   5  10
ATOM     10  C   UNL A   1      34.843 -41.024 -30.493  0.00  0.00    -0.014 C 
BRANCH  10  11
ATOM     11  C   UNL A   1      35.436 -40.758 -31.882  0.00  0.00    +0.047 C 
BRANCH  11  12
ATOM     12  C   UNL A   1      34.376 -40.283 -32.857  0.00  0.00    +0.307 C 
ATOM     13  O   UNL A   1      33.687 -39.291 -32.650  0.00  0.00    -0.251 OA
BRANCH  12  15
ATOM     14  C   UNL A   1      33.937 -42.419 -33.954  0.00  0.00    +0.082 C 
ATOM     15  O   UNL A   1      34.215 -41.013 -33.987  0.00  0.00    -0.468 OA
ENDBRANCH  12  15
ENDBRANCH  11  12
ENDBRANCH  10  11
ENDBRANCH   5  10
ENDBRANCH   1   5
BRANCH   2  16
ATOM     16  C   UNL A   1      36.627 -37.519 -30.068  0.00  0.00    +0.165 C 
BRANCH  16  17
ATOM     17  O   UNL A   1      37.760 -37.260 -29.256  0.00  0.00    -0.483 OA
BRANCH  17  18
ATOM     18  C   UNL A   1      38.992 -37.275 -29.850  0.00  0.00    +0.121 A 
ATOM     19  C   UNL A   1      39.956 -38.019 -29.163  0.00  0.00    -0.019 A 
ATOM     20  C   UNL A   1      41.258 -38.131 -29.657  0.00  0.00    -0.048 A 
ATOM     21  C   UNL A   1      41.595 -37.501 -30.855  0.00  0.00    +0.014 A 
ATOM     22  C   UNL A   1      40.638 -36.764 -31.556  0.00  0.00    -0.048 A 
ATOM     23  C   UNL A   1      39.336 -36.652 -31.051  0.00  0.00    -0.019 A 
BRANCH  21  24
ATOM     24  C   UNL A   1      42.964 -37.615 -31.397  0.00  0.00    +0.150 C 
ATOM     25  O   UNL A   1      43.954 -37.607 -30.676  0.00  0.00    -0.296 OA
ENDBRANCH  21  24
ENDBRANCH  17  18
ENDBRANCH  16  17
ENDBRANCH   2  16
TORSDOF 11
ENDMDL
MODEL 3
REMARK VINA RESULT:    -5.640      2.586      4.324
REMARK INTER + INTRA:         -10.139
REMARK INTER:                  -8.925
REMARK INTRA:                  -1.215
REMARK UNBOUND:                -0.872
REMARK  Name = cpd229.pdb
REMARK  13 active torsions:
REMARK  status: ('A' for Active; 'I' for Inactive)
REMARK    1  A    between atoms: C_1  and  O_2
REMARK    2  A    between atoms: O_2  and  C_3
REMARK    3  A    between atoms: C_3  and  C_5
REMARK    4  A    between atoms: C_5  and  C_6
REMARK    5  A    between atoms: C_6  and  C_7
REMARK    6  A    between atoms: C_7  and  N_8
REMARK    7  A    between atoms: C_7  and  C_21
REMARK    8  A    between atoms: C_9  and  C_11
REMARK    9  A    between atoms: C_11  and  O_12
REMARK   10  A    between atoms: O_12  and  C_13
REMARK   11  A    between atoms: C_16  and  C_17
REMARK   12  A    between atoms: C_21  and  O_23
REMARK   13  A    between atoms: O_23  and  C_24
REMARK                            x       y       z     vdW  Elec       q    Type
REMARK                         _______ _______ _______ _____ _____    ______ ____
ROOT
ATOM      1  N   UNL A   1      33.122 -32.987 -31.433  0.00  0.00    -0.300 N 
ATOM      2  C   UNL A   1      34.476 -32.781 -31.440  0.00  0.00    +0.251 C 
ATOM      3  O   UNL A   1      34.909 -31.754 -31.961  0.00  0.00    -0.272 OA
ATOM      4  H   UNL A   1      32.587 -32.363 -31.976  0.00  0.00    +0.000 HD
ENDROOT
BRANCH   1   5
ATOM      5  C   UNL A   1      32.371 -34.023 -30.717  0.00  0.00    +0.121 C 
BRANCH   5   6
ATOM      6  C   UNL A   1      31.619 -33.370 -29.548  0.00  0.00    +0.327 C 
ATOM      7  O   UNL A   1      32.115 -33.069 -28.470  0.00  0.00    -0.249 OA
BRANCH   6   8
ATOM      8  O   UNL A   1      30.312 -33.172 -29.888  0.00  0.00    -0.467 OA
ATOM      9  C   UNL A   1      29.882 -31.814 -29.775  0.00  0.00    +0.082 C 
ENDBRANCH   6   8
ENDBRANCH   5   6
BRANCH   5  10
ATOM     10  C   UNL A   1      31.396 -34.711 -31.677  0.00  0.00    -0.014 C 
BRANCH  10  11
ATOM     11  C   UNL A   1      31.596 -36.230 -31.755  0.00  0.00    +0.047 C 
BRANCH  11  12
ATOM     12  C   UNL A   1      32.987 -36.583 -32.242  0.00  0.00    +0.307 C 
ATOM     13  O   UNL A   1      33.383 -36.304 -33.368  0.00  0.00    -0.251 OA
BRANCH  12  15
ATOM     14  C   UNL A   1      34.276 -38.562 -31.621  0.00  0.00    +0.082 C 
ATOM     15  O   UNL A   1      33.793 -37.236 -31.369  0.00  0.00    -0.468 OA
ENDBRANCH  12  15
ENDBRANCH  11  12
ENDBRANCH  10  11
ENDBRANCH   5  10
ENDBRANCH   1   5
BRANCH   2  16
ATOM     16  C   UNL A   1      35.375 -33.843 -30.790  0.00  0.00    +0.165 C 
BRANCH  16  17
ATOM     17  O   UNL A   1      35.998 -34.763 -31.671  0.00  0.00    -0.483 OA
BRANCH  17  18
ATOM     18  C   UNL A   1      37.160 -35.356 -31.262  0.00  0.00    +0.121 A 
ATOM     19  C   UNL A   1      36.999 -36.302 -30.245  0.00  0.00    -0.019 A 
ATOM     20  C   UNL A   1      38.099 -36.995 -29.733  0.00  0.00    -0.048 A 
ATOM     21  C   UNL A   1      39.370 -36.748 -30.252  0.00  0.00    +0.014 A 
ATOM     22  C   UNL A   1      39.542 -35.813 -31.275  0.00  0.00    -0.048 A 
ATOM     23  C   UNL A   1      38.435 -35.117 -31.779  0.00  0.00    -0.019 A 
BRANCH  21  24
ATOM     24  C   UNL A   1      40.543 -37.477 -29.730  0.00  0.00    +0.150 C 
ATOM     25  O   UNL A   1      41.660 -36.977 -29.693  0.00  0.00    -0.296 OA
ENDBRANCH  21  24
ENDBRANCH  17  18
ENDBRANCH  16  17
ENDBRANCH   2  16
TORSDOF 11
ENDMDL
MODEL 4
REMARK VINA RESULT:    -5.558      1.760      4.132
REMARK INTER + INTRA:         -10.004
REMARK INTER:                  -8.920
REMARK INTRA:                  -1.084
REMARK UNBOUND:                -0.872
REMARK  Name = cpd229.pdb
REMARK  13 active torsions:
REMARK  status: ('A' for Active; 'I' for Inactive)
REMARK    1  A    between atoms: C_1  and  O_2
REMARK    2  A    between atoms: O_2  and  C_3
REMARK    3  A    between atoms: C_3  and  C_5
REMARK    4  A    between atoms: C_5  and  C_6
REMARK    5  A    between atoms: C_6  and  C_7
REMARK    6  A    between atoms: C_7  and  N_8
REMARK    7  A    between atoms: C_7  and  C_21
REMARK    8  A    between atoms: C_9  and  C_11
REMARK    9  A    between atoms: C_11  and  O_12
REMARK   10  A    between atoms: O_12  and  C_13
REMARK   11  A    between atoms: C_16  and  C_17
REMARK   12  A    between atoms: C_21  and  O_23
REMARK   13  A    between atoms: O_23  and  C_24
REMARK                            x       y       z     vdW  Elec       q    Type
REMARK                         _______ _______ _______ _____ _____    ______ ____
ROOT
ATOM      1  N   UNL A   1      33.574 -34.867 -30.318  0.00  0.00    -0.300 N 
ATOM      2  C   UNL A   1      34.503 -34.556 -31.276  0.00  0.00    +0.251 C 
ATOM      3  O   UNL A   1      34.104 -34.169 -32.373  0.00  0.00    -0.272 OA
ATOM      4  H   UNL A   1      32.637 -34.896 -30.617  0.00  0.00    +0.000 HD
ENDROOT
BRANCH   1   5
ATOM      5  C   UNL A   1      33.807 -35.161 -28.900  0.00  0.00    +0.121 C 
BRANCH   5   6
ATOM      6  C   UNL A   1      32.572 -34.727 -28.095  0.00  0.00    +0.327 C 
ATOM      7  O   UNL A   1      32.296 -35.111 -26.966  0.00  0.00    -0.249 OA
BRANCH   6   8
ATOM      8  O   UNL A   1      31.827 -33.847 -28.825  0.00  0.00    -0.467 OA
ATOM      9  C   UNL A   1      30.555 -33.546 -28.249  0.00  0.00    +0.082 C 
ENDBRANCH   6   8
ENDBRANCH   5   6
BRANCH   5  10
ATOM     10  C   UNL A   1      34.075 -36.659 -28.721  0.00  0.00    -0.014 C 
BRANCH  10  11
ATOM     11  C   UNL A   1      35.452 -36.957 -28.113  0.00  0.00    +0.047 C 
BRANCH  11  12
ATOM     12  C   UNL A   1      35.880 -38.386 -28.380  0.00  0.00    +0.307 C 
ATOM     13  O   UNL A   1      36.825 -38.911 -27.801  0.00  0.00    -0.251 OA
BRANCH  12  15
ATOM     14  C   UNL A   1      35.622 -39.237 -30.654  0.00  0.00    +0.082 C 
ATOM     15  O   UNL A   1      35.167 -39.075 -29.304  0.00  0.00    -0.468 OA
ENDBRANCH  12  15
ENDBRANCH  11  12
ENDBRANCH  10  11
ENDBRANCH   5  10
ENDBRANCH   1   5
BRANCH   2  16
ATOM     16  C   UNL A   1      35.990 -34.704 -30.921  0.00  0.00    +0.165 C 
BRANCH  16  17
ATOM     17  O   UNL A   1      36.588 -35.953 -31.229  0.00  0.00    -0.483 OA
BRANCH  17  18
ATOM     18  C   UNL A   1      37.948 -36.054 -31.133  0.00  0.00    +0.121 A 
ATOM     19  C   UNL A   1      38.651 -35.044 -31.798  0.00  0.00    -0.019 A 
ATOM     20  C   UNL A   1      40.047 -35.015 -31.779  0.00  0.00    -0.048 A 
ATOM     21  C   UNL A   1      40.747 -35.999 -31.080  0.00  0.00    +0.014 A 
ATOM     22  C   UNL A   1      40.056 -37.007 -30.405  0.00  0.00    -0.048 A 
ATOM     23  C   UNL A   1      38.655 -37.033 -30.433  0.00  0.00    -0.019 A 
BRANCH  21  24
ATOM     24  C   UNL A   1      42.223 -35.979 -31.043  0.00  0.00    +0.150 C 
ATOM     25  O   UNL A   1      42.872 -36.811 -30.421  0.00  0.00    -0.296 OA
ENDBRANCH  21  24
ENDBRANCH  17  18
ENDBRANCH  16  17
ENDBRANCH   2  16
TORSDOF 11
ENDMDL
MODEL 5
REMARK VINA RESULT:    -5.526      1.627      4.049
REMARK INTER + INTRA:          -9.951
REMARK INTER:                  -8.835
REMARK INTRA:                  -1.117
REMARK UNBOUND:                -0.872
REMARK  Name = cpd229.pdb
REMARK  13 active torsions:
REMARK  status: ('A' for Active; 'I' for Inactive)
REMARK    1  A    between atoms: C_1  and  O_2
REMARK    2  A    between atoms: O_2  and  C_3
REMARK    3  A    between atoms: C_3  and  C_5
REMARK    4  A    between atoms: C_5  and  C_6
REMARK    5  A    between atoms: C_6  and  C_7
REMARK    6  A    between atoms: C_7  and  N_8
REMARK    7  A    between atoms: C_7  and  C_21
REMARK    8  A    between atoms: C_9  and  C_11
REMARK    9  A    between atoms: C_11  and  O_12
REMARK   10  A    between atoms: O_12  and  C_13
REMARK   11  A    between atoms: C_16  and  C_17
REMARK   12  A    between atoms: C_21  and  O_23
REMARK   13  A    between atoms: O_23  and  C_24
REMARK                            x       y       z     vdW  Elec       q    Type
REMARK                         _______ _______ _______ _____ _____    ______ ____
ROOT
ATOM      1  N   UNL A   1      33.596 -35.182 -31.006  0.00  0.00    -0.300 N 
ATOM      2  C   UNL A   1      34.431 -35.941 -31.784  0.00  0.00    +0.251 C 
ATOM      3  O   UNL A   1      33.933 -36.804 -32.505  0.00  0.00    -0.272 OA
ATOM      4  H   UNL A   1      32.656 -35.472 -30.969  0.00  0.00    +0.000 HD
ENDROOT
BRANCH   1   5
ATOM      5  C   UNL A   1      33.932 -33.989 -30.223  0.00  0.00    +0.121 C 
BRANCH   5   6
ATOM      6  C   UNL A   1      33.404 -32.748 -30.959  0.00  0.00    +0.327 C 
ATOM      7  O   UNL A   1      33.919 -32.242 -31.947  0.00  0.00    -0.249 OA
BRANCH   6   8
ATOM      8  O   UNL A   1      32.271 -32.293 -30.349  0.00  0.00    -0.467 OA
ATOM      9  C   UNL A   1      32.139 -30.870 -30.358  0.00  0.00    +0.082 C 
ENDBRANCH   6   8
ENDBRANCH   5   6
BRANCH   5  10
ATOM     10  C   UNL A   1      33.314 -34.098 -28.825  0.00  0.00    -0.014 C 
BRANCH  10  11
ATOM     11  C   UNL A   1      32.362 -35.291 -28.678  0.00  0.00    +0.047 C 
BRANCH  11  12
ATOM     12  C   UNL A   1      33.009 -36.429 -27.915  0.00  0.00    +0.307 C 
ATOM     13  O   UNL A   1      32.435 -37.031 -27.014  0.00  0.00    -0.251 OA
BRANCH  12  15
ATOM     14  C   UNL A   1      34.650 -38.108 -28.587  0.00  0.00    +0.082 C 
ATOM     15  O   UNL A   1      34.275 -36.761 -28.270  0.00  0.00    -0.468 OA
ENDBRANCH  12  15
ENDBRANCH  11  12
ENDBRANCH  10  11
ENDBRANCH   5  10
ENDBRANCH   1   5
BRANCH   2  16
ATOM     16  C   UNL A   1      35.940 -35.666 -31.711  0.00  0.00    +0.165 C 
BRANCH  16  17
ATOM     17  O   UNL A   1      36.649 -36.321 -30.672  0.00  0.00    -0.483 OA
BRANCH  17  18
ATOM     18  C   UNL A   1      38.012 -36.370 -30.757  0.00  0.00    +0.121 A 
ATOM     19  C   UNL A   1      38.568 -35.456 -31.658  0.00  0.00    -0.019 A 
ATOM     20  C   UNL A   1      39.951 -35.387 -31.842  0.00  0.00    -0.048 A 
ATOM     21  C   UNL A   1      40.786 -36.233 -31.111  0.00  0.00    +0.014 A 
ATOM     22  C   UNL A   1      40.243 -37.143 -30.202  0.00  0.00    -0.048 A 
ATOM     23  C   UNL A   1      38.855 -37.211 -30.027  0.00  0.00    -0.019 A 
BRANCH  21  24
ATOM     24  C   UNL A   1      42.251 -36.169 -31.287  0.00  0.00    +0.150 C 
ATOM     25  O   UNL A   1      43.013 -36.927 -30.702  0.00  0.00    -0.296 OA
ENDBRANCH  21  24
ENDBRANCH  17  18
ENDBRANCH  16  17
ENDBRANCH   2  16
TORSDOF 11
ENDMDL
MODEL 6
REMARK VINA RESULT:    -5.470      1.975      2.784
REMARK INTER + INTRA:          -9.859
REMARK INTER:                  -8.784
REMARK INTRA:                  -1.074
REMARK UNBOUND:                -0.872
REMARK  Name = cpd229.pdb
REMARK  13 active torsions:
REMARK  status: ('A' for Active; 'I' for Inactive)
REMARK    1  A    between atoms: C_1  and  O_2
REMARK    2  A    between atoms: O_2  and  C_3
REMARK    3  A    between atoms: C_3  and  C_5
REMARK    4  A    between atoms: C_5  and  C_6
REMARK    5  A    between atoms: C_6  and  C_7
REMARK    6  A    between atoms: C_7  and  N_8
REMARK    7  A    between atoms: C_7  and  C_21
REMARK    8  A    between atoms: C_9  and  C_11
REMARK    9  A    between atoms: C_11  and  O_12
REMARK   10  A    between atoms: O_12  and  C_13
REMARK   11  A    between atoms: C_16  and  C_17
REMARK   12  A    between atoms: C_21  and  O_23
REMARK   13  A    between atoms: O_23  and  C_24
REMARK                            x       y       z     vdW  Elec       q    Type
REMARK                         _______ _______ _______ _____ _____    ______ ____
ROOT
ATOM      1  N   UNL A   1      34.073 -34.230 -30.751  0.00  0.00    -0.300 N 
ATOM      2  C   UNL A   1      35.432 -34.062 -30.792  0.00  0.00    +0.251 C 
ATOM      3  O   UNL A   1      35.876 -32.922 -30.923  0.00  0.00    -0.272 OA
ATOM      4  H   UNL A   1      33.532 -33.438 -30.972  0.00  0.00    +0.000 HD
ENDROOT
BRANCH   1   5
ATOM      5  C   UNL A   1      33.326 -35.447 -30.417  0.00  0.00    +0.121 C 
BRANCH   5   6
ATOM      6  C   UNL A   1      33.002 -35.433 -28.916  0.00  0.00    +0.327 C 
ATOM      7  O   UNL A   1      33.792 -35.708 -28.022  0.00  0.00    -0.249 OA
BRANCH   6   8
ATOM      8  O   UNL A   1      31.702 -35.066 -28.724  0.00  0.00    -0.467 OA
ATOM      9  C   UNL A   1      31.408 -34.648 -27.390  0.00  0.00    +0.082 C 
ENDBRANCH   6   8
ENDBRANCH   5   6
BRANCH   5  10
ATOM     10  C   UNL A   1      32.043 -35.511 -31.251  0.00  0.00    -0.014 C 
BRANCH  10  11
ATOM     11  C   UNL A   1      31.965 -34.417 -32.324  0.00  0.00    +0.047 C 
BRANCH  11  12
ATOM     12  C   UNL A   1      31.205 -33.203 -31.827  0.00  0.00    +0.307 C 
ATOM     13  O   UNL A   1      30.014 -33.030 -32.058  0.00  0.00    -0.251 OA
BRANCH  12  15
ATOM     14  C   UNL A   1      31.375 -31.682 -29.924  0.00  0.00    +0.082 C 
ATOM     15  O   UNL A   1      31.908 -32.296 -31.104  0.00  0.00    -0.468 OA
ENDBRANCH  12  15
ENDBRANCH  11  12
ENDBRANCH  10  11
ENDBRANCH   5  10
ENDBRANCH   1   5
BRANCH   2  16
ATOM     16  C   UNL A   1      36.322 -35.307 -30.668  0.00  0.00    +0.165 C 
BRANCH  16  17
ATOM     17  O   UNL A   1      37.147 -35.604 -31.782  0.00  0.00    -0.483 OA
BRANCH  17  18
ATOM     18  C   UNL A   1      38.480 -35.806 -31.558  0.00  0.00    +0.121 A 
ATOM     19  C   UNL A   1      39.311 -34.805 -32.073  0.00  0.00    -0.019 A 
ATOM     20  C   UNL A   1      40.697 -34.876 -31.912  0.00  0.00    -0.048 A 
ATOM     21  C   UNL A   1      41.256 -35.951 -31.220  0.00  0.00    +0.014 A 
ATOM     22  C   UNL A   1      40.436 -36.951 -30.694  0.00  0.00    -0.048 A 
ATOM     23  C   UNL A   1      39.047 -36.877 -30.864  0.00  0.00    -0.019 A 
BRANCH  21  24
ATOM     24  C   UNL A   1      42.718 -36.037 -31.033  0.00  0.00    +0.150 C 
ATOM     25  O   UNL A   1      43.397 -36.897 -31.580  0.00  0.00    -0.296 OA
ENDBRANCH  21  24
ENDBRANCH  17  18
ENDBRANCH  16  17
ENDBRANCH   2  16
TORSDOF 11
ENDMDL
MODEL 7
REMARK VINA RESULT:    -5.464      1.614      2.109
REMARK INTER + INTRA:          -9.849
REMARK INTER:                  -9.037
REMARK INTRA:                  -0.812
REMARK UNBOUND:                -0.872
REMARK  Name = cpd229.pdb
REMARK  13 active torsions:
REMARK  status: ('A' for Active; 'I' for Inactive)
REMARK    1  A    between atoms: C_1  and  O_2
REMARK    2  A    between atoms: O_2  and  C_3
REMARK    3  A    between atoms: C_3  and  C_5
REMARK    4  A    between atoms: C_5  and  C_6
REMARK    5  A    between atoms: C_6  and  C_7
REMARK    6  A    between atoms: C_7  and  N_8
REMARK    7  A    between atoms: C_7  and  C_21
REMARK    8  A    between atoms: C_9  and  C_11
REMARK    9  A    between atoms: C_11  and  O_12
REMARK   10  A    between atoms: O_12  and  C_13
REMARK   11  A    between atoms: C_16  and  C_17
REMARK   12  A    between atoms: C_21  and  O_23
REMARK   13  A    between atoms: O_23  and  C_24
REMARK                            x       y       z     vdW  Elec       q    Type
REMARK                         _______ _______ _______ _____ _____    ______ ____
ROOT
ATOM      1  N   UNL A   1      34.213 -36.353 -29.716  0.00  0.00    -0.300 N 
ATOM      2  C   UNL A   1      35.295 -36.864 -29.048  0.00  0.00    +0.251 C 
ATOM      3  O   UNL A   1      35.319 -36.779 -27.822  0.00  0.00    -0.272 OA
ATOM      4  H   UNL A   1      33.585 -35.819 -29.177  0.00  0.00    +0.000 HD
ENDROOT
BRANCH   1   5
ATOM      5  C   UNL A   1      33.877 -36.503 -31.135  0.00  0.00    +0.121 C 
BRANCH   5   6
ATOM      6  C   UNL A   1      32.364 -36.740 -31.263  0.00  0.00    +0.327 C 
ATOM      7  O   UNL A   1      31.846 -37.730 -31.762  0.00  0.00    -0.249 OA
BRANCH   6   8
ATOM      8  O   UNL A   1      31.682 -35.684 -30.734  0.00  0.00    -0.467 OA
ATOM      9  C   UNL A   1      30.524 -35.308 -31.482  0.00  0.00    +0.082 C 
ENDBRANCH   6   8
ENDBRANCH   5   6
BRANCH   5  10
ATOM     10  C   UNL A   1      34.298 -35.245 -31.902  0.00  0.00    -0.014 C 
BRANCH  10  11
ATOM     11  C   UNL A   1      34.724 -34.093 -30.983  0.00  0.00    +0.047 C 
BRANCH  11  12
ATOM     12  C   UNL A   1      34.240 -32.756 -31.507  0.00  0.00    +0.307 C 
ATOM     13  O   UNL A   1      35.008 -31.858 -31.835  0.00  0.00    -0.251 OA
BRANCH  12  15
ATOM     14  C   UNL A   1      32.205 -31.576 -30.850  0.00  0.00    +0.082 C 
ATOM     15  O   UNL A   1      32.898 -32.585 -31.597  0.00  0.00    -0.468 OA
ENDBRANCH  12  15
ENDBRANCH  11  12
ENDBRANCH  10  11
ENDBRANCH   5  10
ENDBRANCH   1   5
BRANCH   2  16
ATOM     16  C   UNL A   1      36.413 -37.519 -29.873  0.00  0.00    +0.165 C 
BRANCH  16  17
ATOM     17  O   UNL A   1      37.530 -38.003 -29.145  0.00  0.00    -0.483 OA
BRANCH  17  18
ATOM     18  C   UNL A   1      38.779 -37.655 -29.579  0.00  0.00    +0.121 A 
ATOM     19  C   UNL A   1      38.788 -36.756 -30.651  0.00  0.00    -0.019 A 
ATOM     20  C   UNL A   1      39.994 -36.306 -31.194  0.00  0.00    -0.048 A 
ATOM     21  C   UNL A   1      41.201 -36.749 -30.653  0.00  0.00    +0.014 A 
ATOM     22  C   UNL A   1      41.204 -37.638 -29.576  0.00  0.00    -0.048 A 
ATOM     23  C   UNL A   1      39.991 -38.091 -29.040  0.00  0.00    -0.019 A 
BRANCH  21  24
ATOM     24  C   UNL A   1      42.485 -36.276 -31.208  0.00  0.00    +0.150 C 
ATOM     25  O   UNL A   1      43.560 -36.545 -30.688  0.00  0.00    -0.296 OA
ENDBRANCH  21  24
ENDBRANCH  17  18
ENDBRANCH  16  17
ENDBRANCH   2  16
TORSDOF 11
ENDMDL
MODEL 8
REMARK VINA RESULT:    -5.435     15.480     17.558
REMARK INTER + INTRA:          -9.801
REMARK INTER:                  -8.926
REMARK INTRA:                  -0.875
REMARK UNBOUND:                -0.872
REMARK  Name = cpd229.pdb
REMARK  13 active torsions:
REMARK  status: ('A' for Active; 'I' for Inactive)
REMARK    1  A    between atoms: C_1  and  O_2
REMARK    2  A    between atoms: O_2  and  C_3
REMARK    3  A    between atoms: C_3  and  C_5
REMARK    4  A    between atoms: C_5  and  C_6
REMARK    5  A    between atoms: C_6  and  C_7
REMARK    6  A    between atoms: C_7  and  N_8
REMARK    7  A    between atoms: C_7  and  C_21
REMARK    8  A    between atoms: C_9  and  C_11
REMARK    9  A    between atoms: C_11  and  O_12
REMARK   10  A    between atoms: O_12  and  C_13
REMARK   11  A    between atoms: C_16  and  C_17
REMARK   12  A    between atoms: C_21  and  O_23
REMARK   13  A    between atoms: O_23  and  C_24
REMARK                            x       y       z     vdW  Elec       q    Type
REMARK                         _______ _______ _______ _____ _____    ______ ____
ROOT
ATOM      1  N   UNL A   1      40.281 -21.251 -37.050  0.00  0.00    -0.300 N 
ATOM      2  C   UNL A   1      40.540 -20.993 -38.371  0.00  0.00    +0.251 C 
ATOM      3  O   UNL A   1      39.699 -20.375 -39.022  0.00  0.00    -0.272 OA
ATOM      4  H   UNL A   1      39.369 -21.047 -36.740  0.00  0.00    +0.000 HD
ENDROOT
BRANCH   1   5
ATOM      5  C   UNL A   1      41.196 -21.794 -36.042  0.00  0.00    +0.121 C 
BRANCH   5   6
ATOM      6  C   UNL A   1      41.557 -20.680 -35.048  0.00  0.00    +0.327 C 
ATOM      7  O   UNL A   1      41.682 -19.496 -35.332  0.00  0.00    -0.249 OA
BRANCH   6   8
ATOM      8  O   UNL A   1      41.714 -21.204 -33.798  0.00  0.00    -0.467 OA
ATOM      9  C   UNL A   1      41.193 -20.380 -32.753  0.00  0.00    +0.082 C 
ENDBRANCH   6   8
ENDBRANCH   5   6
BRANCH   5  10
ATOM     10  C   UNL A   1      40.532 -22.972 -35.323  0.00  0.00    -0.014 C 
BRANCH  10  11
ATOM     11  C   UNL A   1      39.009 -22.827 -35.206  0.00  0.00    +0.047 C 
BRANCH  11  12
ATOM     12  C   UNL A   1      38.546 -22.966 -33.769  0.00  0.00    +0.307 C 
ATOM     13  O   UNL A   1      39.190 -23.576 -32.924  0.00  0.00    -0.251 OA
BRANCH  12  15
ATOM     14  C   UNL A   1      37.294 -21.206 -32.629  0.00  0.00    +0.082 C 
ATOM     15  O   UNL A   1      37.366 -22.380 -33.449  0.00  0.00    -0.468 OA
ENDBRANCH  12  15
ENDBRANCH  11  12
ENDBRANCH  10  11
ENDBRANCH   5  10
ENDBRANCH   1   5
BRANCH   2  16
ATOM     16  C   UNL A   1      41.869 -21.488 -38.960  0.00  0.00    +0.165 C 
BRANCH  16  17
ATOM     17  O   UNL A   1      42.433 -20.695 -39.992  0.00  0.00    -0.483 OA
BRANCH  17  18
ATOM     18  C   UNL A   1      43.532 -21.180 -40.645  0.00  0.00    +0.121 A 
ATOM     19  C   UNL A   1      44.598 -21.523 -39.808  0.00  0.00    -0.019 A 
ATOM     20  C   UNL A   1      45.783 -22.039 -40.336  0.00  0.00    -0.048 A 
ATOM     21  C   UNL A   1      45.899 -22.225 -41.714  0.00  0.00    +0.014 A 
ATOM     22  C   UNL A   1      44.838 -21.895 -42.560  0.00  0.00    -0.048 A 
ATOM     23  C   UNL A   1      43.654 -21.372 -42.023  0.00  0.00    -0.019 A 
BRANCH  21  24
ATOM     24  C   UNL A   1      47.141 -22.777 -42.290  0.00  0.00    +0.150 C 
ATOM     25  O   UNL A   1      47.584 -23.871 -41.961  0.00  0.00    -0.296 OA
ENDBRANCH  21  24
ENDBRANCH  17  18
ENDBRANCH  16  17
ENDBRANCH   2  16
TORSDOF 11
ENDMDL
MODEL 9
REMARK VINA RESULT:    -5.395      2.200      4.391
REMARK INTER + INTRA:          -9.735
REMARK INTER:                  -8.972
REMARK INTRA:                  -0.763
REMARK UNBOUND:                -0.872
REMARK  Name = cpd229.pdb
REMARK  13 active torsions:
REMARK  status: ('A' for Active; 'I' for Inactive)
REMARK    1  A    between atoms: C_1  and  O_2
REMARK    2  A    between atoms: O_2  and  C_3
REMARK    3  A    between atoms: C_3  and  C_5
REMARK    4  A    between atoms: C_5  and  C_6
REMARK    5  A    between atoms: C_6  and  C_7
REMARK    6  A    between atoms: C_7  and  N_8
REMARK    7  A    between atoms: C_7  and  C_21
REMARK    8  A    between atoms: C_9  and  C_11
REMARK    9  A    between atoms: C_11  and  O_12
REMARK   10  A    between atoms: O_12  and  C_13
REMARK   11  A    between atoms: C_16  and  C_17
REMARK   12  A    between atoms: C_21  and  O_23
REMARK   13  A    between atoms: O_23  and  C_24
REMARK                            x       y       z     vdW  Elec       q    Type
REMARK                         _______ _______ _______ _____ _____    ______ ____
ROOT
ATOM      1  N   UNL A   1      34.219 -38.273 -27.997  0.00  0.00    -0.300 N 
ATOM      2  C   UNL A   1      35.469 -38.832 -27.949  0.00  0.00    +0.251 C 
ATOM      3  O   UNL A   1      35.565 -40.055 -28.039  0.00  0.00    -0.272 OA
ATOM      4  H   UNL A   1      33.462 -38.901 -27.959  0.00  0.00    +0.000 HD
ENDROOT
BRANCH   1   5
ATOM      5  C   UNL A   1      33.871 -36.852 -28.099  0.00  0.00    +0.121 C 
BRANCH   5   6
ATOM      6  C   UNL A   1      33.201 -36.602 -29.458  0.00  0.00    +0.327 C 
ATOM      7  O   UNL A   1      32.128 -37.071 -29.812  0.00  0.00    -0.249 OA
BRANCH   6   8
ATOM      8  O   UNL A   1      33.980 -35.776 -30.215  0.00  0.00    -0.467 OA
ATOM      9  C   UNL A   1      34.220 -36.257 -31.539  0.00  0.00    +0.082 C 
ENDBRANCH   6   8
ENDBRANCH   5   6
BRANCH   5  10
ATOM     10  C   UNL A   1      32.934 -36.466 -26.950  0.00  0.00    -0.014 C 
BRANCH  10  11
ATOM     11  C   UNL A   1      33.519 -36.771 -25.565  0.00  0.00    +0.047 C 
BRANCH  11  12
ATOM     12  C   UNL A   1      32.513 -36.500 -24.464  0.00  0.00    +0.307 C 
ATOM     13  O   UNL A   1      31.498 -35.837 -24.646  0.00  0.00    -0.251 OA
BRANCH  12  15
ATOM     14  C   UNL A   1      33.321 -38.347 -23.086  0.00  0.00    +0.082 C 
ATOM     15  O   UNL A   1      32.786 -37.026 -23.245  0.00  0.00    -0.468 OA
ENDBRANCH  12  15
ENDBRANCH  11  12
ENDBRANCH  10  11
ENDBRANCH   5  10
ENDBRANCH   1   5
BRANCH   2  16
ATOM     16  C   UNL A   1      36.677 -37.898 -27.789  0.00  0.00    +0.165 C 
BRANCH  16  17
ATOM     17  O   UNL A   1      37.954 -38.513 -27.803  0.00  0.00    -0.483 OA
BRANCH  17  18
ATOM     18  C   UNL A   1      38.858 -38.095 -28.740  0.00  0.00    +0.121 A 
ATOM     19  C   UNL A   1      38.312 -37.307 -29.759  0.00  0.00    -0.019 A 
ATOM     20  C   UNL A   1      39.119 -36.801 -30.780  0.00  0.00    -0.048 A 
ATOM     21  C   UNL A   1      40.487 -37.076 -30.776  0.00  0.00    +0.014 A 
ATOM     22  C   UNL A   1      41.045 -37.853 -29.759  0.00  0.00    -0.048 A 
ATOM     23  C   UNL A   1      40.228 -38.362 -28.741  0.00  0.00    -0.019 A 
BRANCH  21  24
ATOM     24  C   UNL A   1      41.357 -36.543 -31.843  0.00  0.00    +0.150 C 
ATOM     25  O   UNL A   1      42.281 -35.774 -31.610  0.00  0.00    -0.296 OA
ENDBRANCH  21  24
ENDBRANCH  17  18
ENDBRANCH  16  17
ENDBRANCH   2  16
TORSDOF 11
ENDMDL
MODEL 10
REMARK VINA RESULT:    -5.378      1.987      4.442
REMARK INTER + INTRA:          -9.708
REMARK INTER:                  -8.784
REMARK INTRA:                  -0.923
REMARK UNBOUND:                -0.872
REMARK  Name = cpd229.pdb
REMARK  13 active torsions:
REMARK  status: ('A' for Active; 'I' for Inactive)
REMARK    1  A    between atoms: C_1  and  O_2
REMARK    2  A    between atoms: O_2  and  C_3
REMARK    3  A    between atoms: C_3  and  C_5
REMARK    4  A    between atoms: C_5  and  C_6
REMARK    5  A    between atoms: C_6  and  C_7
REMARK    6  A    between atoms: C_7  and  N_8
REMARK    7  A    between atoms: C_7  and  C_21
REMARK    8  A    between atoms: C_9  and  C_11
REMARK    9  A    between atoms: C_11  and  O_12
REMARK   10  A    between atoms: O_12  and  C_13
REMARK   11  A    between atoms: C_16  and  C_17
REMARK   12  A    between atoms: C_21  and  O_23
REMARK   13  A    between atoms: O_23  and  C_24
REMARK                            x       y       z     vdW  Elec       q    Type
REMARK                         _______ _______ _______ _____ _____    ______ ____
ROOT
ATOM      1  N   UNL A   1      34.708 -38.227 -29.837  0.00  0.00    -0.300 N 
ATOM      2  C   UNL A   1      35.998 -38.192 -30.295  0.00  0.00    +0.251 C 
ATOM      3  O   UNL A   1      36.309 -38.935 -31.225  0.00  0.00    -0.272 OA
ATOM      4  H   UNL A   1      34.142 -38.952 -30.190  0.00  0.00    +0.000 HD
ENDROOT
BRANCH   1   5
ATOM      5  C   UNL A   1      34.065 -37.316 -28.883  0.00  0.00    +0.121 C 
BRANCH   5   6
ATOM      6  C   UNL A   1      33.477 -36.126 -29.656  0.00  0.00    +0.327 C 
ATOM      7  O   UNL A   1      33.233 -36.114 -30.855  0.00  0.00    -0.249 OA
BRANCH   6   8
ATOM      8  O   UNL A   1      33.264 -35.080 -28.806  0.00  0.00    -0.467 OA
ATOM      9  C   UNL A   1      33.719 -33.821 -29.308  0.00  0.00    +0.082 C 
ENDBRANCH   6   8
ENDBRANCH   5   6
BRANCH   5  10
ATOM     10  C   UNL A   1      32.970 -38.062 -28.115  0.00  0.00    -0.014 C 
BRANCH  10  11
ATOM     11  C   UNL A   1      33.101 -39.588 -28.205  0.00  0.00    +0.047 C 
BRANCH  11  12
ATOM     12  C   UNL A   1      34.102 -40.121 -27.199  0.00  0.00    +0.307 C 
ATOM     13  O   UNL A   1      33.993 -39.926 -25.994  0.00  0.00    -0.251 OA
BRANCH  12  15
ATOM     14  C   UNL A   1      35.016 -41.672 -28.849  0.00  0.00    +0.082 C 
ATOM     15  O   UNL A   1      35.145 -40.832 -27.694  0.00  0.00    -0.468 OA
ENDBRANCH  12  15
ENDBRANCH  11  12
ENDBRANCH  10  11
ENDBRANCH   5  10
ENDBRANCH   1   5
BRANCH   2  16
ATOM     16  C   UNL A   1      36.981 -37.222 -29.624  0.00  0.00    +0.165 C 
BRANCH  16  17
ATOM     17  O   UNL A   1      37.738 -36.393 -30.490  0.00  0.00    -0.483 OA
BRANCH  17  18
ATOM     18  C   UNL A   1      39.070 -36.666 -30.638  0.00  0.00    +0.121 A 
ATOM     19  C   UNL A   1      39.676 -36.016 -31.718  0.00  0.00    -0.019 A 
ATOM     20  C   UNL A   1      41.036 -36.193 -31.986  0.00  0.00    -0.048 A 
ATOM     21  C   UNL A   1      41.798 -37.020 -31.159  0.00  0.00    +0.014 A 
ATOM     22  C   UNL A   1      41.205 -37.666 -30.072  0.00  0.00    -0.048 A 
ATOM     23  C   UNL A   1      39.840 -37.488 -29.813  0.00  0.00    -0.019 A 
BRANCH  21  24
ATOM     24  C   UNL A   1      43.238 -37.212 -31.422  0.00  0.00    +0.150 C 
ATOM     25  O   UNL A   1      44.071 -37.223 -30.524  0.00  0.00    -0.296 OA
ENDBRANCH  21  24
ENDBRANCH  17  18
ENDBRANCH  16  17
ENDBRANCH   2  16
TORSDOF 11
ENDMDL
MODEL 11
REMARK VINA RESULT:    -5.258     16.651     18.575
REMARK INTER + INTRA:          -9.510
REMARK INTER:                  -8.339
REMARK INTRA:                  -1.171
REMARK UNBOUND:                -0.872
REMARK  Name = cpd229.pdb
REMARK  13 active torsions:
REMARK  status: ('A' for Active; 'I' for Inactive)
REMARK    1  A    between atoms: C_1  and  O_2
REMARK    2  A    between atoms: O_2  and  C_3
REMARK    3  A    between atoms: C_3  and  C_5
REMARK    4  A    between atoms: C_5  and  C_6
REMARK    5  A    between atoms: C_6  and  C_7
REMARK    6  A    between atoms: C_7  and  N_8
REMARK    7  A    between atoms: C_7  and  C_21
REMARK    8  A    between atoms: C_9  and  C_11
REMARK    9  A    between atoms: C_11  and  O_12
REMARK   10  A    between atoms: O_12  and  C_13
REMARK   11  A    between atoms: C_16  and  C_17
REMARK   12  A    between atoms: C_21  and  O_23
REMARK   13  A    between atoms: O_23  and  C_24
REMARK                            x       y       z     vdW  Elec       q    Type
REMARK                         _______ _______ _______ _____ _____    ______ ____
ROOT
ATOM      1  N   UNL A   1      41.596 -21.963 -37.094  0.00  0.00    -0.300 N 
ATOM      2  C   UNL A   1      41.476 -21.875 -38.456  0.00  0.00    +0.251 C 
ATOM      3  O   UNL A   1      41.150 -22.884 -39.080  0.00  0.00    -0.272 OA
ATOM      4  H   UNL A   1      41.551 -22.870 -36.712  0.00  0.00    +0.000 HD
ENDROOT
BRANCH   1   5
ATOM      5  C   UNL A   1      41.783 -20.870 -36.134  0.00  0.00    +0.121 C 
BRANCH   5   6
ATOM      6  C   UNL A   1      40.646 -20.918 -35.101  0.00  0.00    +0.327 C 
ATOM      7  O   UNL A   1      39.529 -20.444 -35.260  0.00  0.00    -0.249 OA
BRANCH   6   8
ATOM      8  O   UNL A   1      41.066 -21.570 -33.978  0.00  0.00    -0.467 OA
ATOM      9  C   UNL A   1      40.365 -22.788 -33.719  0.00  0.00    +0.082 C 
ENDBRANCH   6   8
ENDBRANCH   5   6
BRANCH   5  10
ATOM     10  C   UNL A   1      43.147 -21.011 -35.450  0.00  0.00    -0.014 C 
BRANCH  10  11
ATOM     11  C   UNL A   1      44.043 -19.779 -35.633  0.00  0.00    +0.047 C 
BRANCH  11  12
ATOM     12  C   UNL A   1      45.445 -20.030 -35.114  0.00  0.00    +0.307 C 
ATOM     13  O   UNL A   1      45.671 -20.740 -34.141  0.00  0.00    -0.251 OA
BRANCH  12  15
ATOM     14  C   UNL A   1      46.456 -18.019 -36.062  0.00  0.00    +0.082 C 
ATOM     15  O   UNL A   1      46.460 -19.425 -35.779  0.00  0.00    -0.468 OA
ENDBRANCH  12  15
ENDBRANCH  11  12
ENDBRANCH  10  11
ENDBRANCH   5  10
ENDBRANCH   1   5
BRANCH   2  16
ATOM     16  C   UNL A   1      41.750 -20.520 -39.123  0.00  0.00    +0.165 C 
BRANCH  16  17
ATOM     17  O   UNL A   1      43.097 -20.076 -39.115  0.00  0.00    -0.483 OA
BRANCH  17  18
ATOM     18  C   UNL A   1      44.010 -20.782 -39.849  0.00  0.00    +0.121 A 
ATOM     19  C   UNL A   1      45.184 -21.100 -39.159  0.00  0.00    -0.019 A 
ATOM     20  C   UNL A   1      46.203 -21.826 -39.781  0.00  0.00    -0.048 A 
ATOM     21  C   UNL A   1      46.040 -22.247 -41.101  0.00  0.00    +0.014 A 
ATOM     22  C   UNL A   1      44.867 -21.945 -41.796  0.00  0.00    -0.048 A 
ATOM     23  C   UNL A   1      43.853 -21.211 -41.168  0.00  0.00    -0.019 A 
BRANCH  21  24
ATOM     24  C   UNL A   1      47.103 -23.023 -41.771  0.00  0.00    +0.150 C 
ATOM     25  O   UNL A   1      46.858 -23.854 -42.638  0.00  0.00    -0.296 OA
ENDBRANCH  21  24
ENDBRANCH  17  18
ENDBRANCH  16  17
ENDBRANCH   2  16
TORSDOF 11
ENDMDL
MODEL 12
REMARK VINA RESULT:    -5.257      2.877      4.126
REMARK INTER + INTRA:          -9.509
REMARK INTER:                  -8.806
REMARK INTRA:                  -0.704
REMARK UNBOUND:                -0.872
REMARK  Name = cpd229.pdb
REMARK  13 active torsions:
REMARK  status: ('A' for Active; 'I' for Inactive)
REMARK    1  A    between atoms: C_1  and  O_2
REMARK    2  A    between atoms: O_2  and  C_3
REMARK    3  A    between atoms: C_3  and  C_5
REMARK    4  A    between atoms: C_5  and  C_6
REMARK    5  A    between atoms: C_6  and  C_7
REMARK    6  A    between atoms: C_7  and  N_8
REMARK    7  A    between atoms: C_7  and  C_21
REMARK    8  A    between atoms: C_9  and  C_11
REMARK    9  A    between atoms: C_11  and  O_12
REMARK   10  A    between atoms: O_12  and  C_13
REMARK   11  A    between atoms: C_16  and  C_17
REMARK   12  A    between atoms: C_21  and  O_23
REMARK   13  A    between atoms: O_23  and  C_24
REMARK                            x       y       z     vdW  Elec       q    Type
REMARK                         _______ _______ _______ _____ _____    ______ ____
ROOT
ATOM      1  N   UNL A   1      35.519 -38.550 -28.045  0.00  0.00    -0.300 N 
ATOM      2  C   UNL A   1      36.849 -38.402 -28.341  0.00  0.00    +0.251 C 
ATOM      3  O   UNL A   1      37.623 -39.302 -28.021  0.00  0.00    -0.272 OA
ATOM      4  H   UNL A   1      35.288 -39.311 -27.464  0.00  0.00    +0.000 HD
ENDROOT
BRANCH   1   5
ATOM      5  C   UNL A   1      34.399 -37.714 -28.488  0.00  0.00    +0.121 C 
BRANCH   5   6
ATOM      6  C   UNL A   1      33.306 -38.621 -29.074  0.00  0.00    +0.327 C 
ATOM      7  O   UNL A   1      32.177 -38.259 -29.376  0.00  0.00    -0.249 OA
BRANCH   6   8
ATOM      8  O   UNL A   1      33.782 -39.893 -29.212  0.00  0.00    -0.467 OA
ATOM      9  C   UNL A   1      33.711 -40.398 -30.547  0.00  0.00    +0.082 C 
ENDBRANCH   6   8
ENDBRANCH   5   6
BRANCH   5  10
ATOM     10  C   UNL A   1      33.859 -36.905 -27.304  0.00  0.00    -0.014 C 
BRANCH  10  11
ATOM     11  C   UNL A   1      34.194 -37.530 -25.943  0.00  0.00    +0.047 C 
BRANCH  11  12
ATOM     12  C   UNL A   1      33.163 -37.163 -24.894  0.00  0.00    +0.307 C 
ATOM     13  O   UNL A   1      32.828 -36.005 -24.675  0.00  0.00    -0.251 OA
BRANCH  12  15
ATOM     14  C   UNL A   1      33.384 -39.326 -23.782  0.00  0.00    +0.082 C 
ATOM     15  O   UNL A   1      32.617 -38.186 -24.191  0.00  0.00    -0.468 OA
ENDBRANCH  12  15
ENDBRANCH  11  12
ENDBRANCH  10  11
ENDBRANCH   5  10
ENDBRANCH   1   5
BRANCH   2  16
ATOM     16  C   UNL A   1      37.293 -37.120 -29.061  0.00  0.00    +0.165 C 
BRANCH  16  17
ATOM     17  O   UNL A   1      37.755 -37.274 -30.392  0.00  0.00    -0.483 OA
BRANCH  17  18
ATOM     18  C   UNL A   1      39.060 -36.967 -30.659  0.00  0.00    +0.121 A 
ATOM     19  C   UNL A   1      39.979 -37.520 -29.762  0.00  0.00    -0.019 A 
ATOM     20  C   UNL A   1      41.349 -37.297 -29.916  0.00  0.00    -0.048 A 
ATOM     21  C   UNL A   1      41.805 -36.522 -30.984  0.00  0.00    +0.014 A 
ATOM     22  C   UNL A   1      40.897 -35.973 -31.891  0.00  0.00    -0.048 A 
ATOM     23  C   UNL A   1      39.524 -36.196 -31.727  0.00  0.00    -0.019 A 
BRANCH  21  24
ATOM     24  C   UNL A   1      43.250 -36.283 -31.167  0.00  0.00    +0.150 C 
ATOM     25  O   UNL A   1      44.095 -37.115 -30.859  0.00  0.00    -0.296 OA
ENDBRANCH  21  24
ENDBRANCH  17  18
ENDBRANCH  16  17
ENDBRANCH   2  16
TORSDOF 11
ENDMDL
MODEL 13
REMARK VINA RESULT:    -5.185      2.608      3.482
REMARK INTER + INTRA:          -9.391
REMARK INTER:                  -8.116
REMARK INTRA:                  -1.276
REMARK UNBOUND:                -0.872
REMARK  Name = cpd229.pdb
REMARK  13 active torsions:
REMARK  status: ('A' for Active; 'I' for Inactive)
REMARK    1  A    between atoms: C_1  and  O_2
REMARK    2  A    between atoms: O_2  and  C_3
REMARK    3  A    between atoms: C_3  and  C_5
REMARK    4  A    between atoms: C_5  and  C_6
REMARK    5  A    between atoms: C_6  and  C_7
REMARK    6  A    between atoms: C_7  and  N_8
REMARK    7  A    between atoms: C_7  and  C_21
REMARK    8  A    between atoms: C_9  and  C_11
REMARK    9  A    between atoms: C_11  and  O_12
REMARK   10  A    between atoms: O_12  and  C_13
REMARK   11  A    between atoms: C_16  and  C_17
REMARK   12  A    between atoms: C_21  and  O_23
REMARK   13  A    between atoms: O_23  and  C_24
REMARK                            x       y       z     vdW  Elec       q    Type
REMARK                         _______ _______ _______ _____ _____    ______ ____
ROOT
ATOM      1  N   UNL A   1      32.587 -36.642 -30.797  0.00  0.00    -0.300 N 
ATOM      2  C   UNL A   1      33.661 -37.008 -30.029  0.00  0.00    +0.251 C 
ATOM      3  O   UNL A   1      33.460 -37.338 -28.861  0.00  0.00    -0.272 OA
ATOM      4  H   UNL A   1      31.733 -36.531 -30.320  0.00  0.00    +0.000 HD
ENDROOT
BRANCH   1   5
ATOM      5  C   UNL A   1      32.555 -36.396 -32.242  0.00  0.00    +0.121 C 
BRANCH   5   6
ATOM      6  C   UNL A   1      31.552 -37.365 -32.887  0.00  0.00    +0.327 C 
ATOM      7  O   UNL A   1      30.356 -37.415 -32.630  0.00  0.00    -0.249 OA
BRANCH   6   8
ATOM      8  O   UNL A   1      32.191 -38.162 -33.792  0.00  0.00    -0.467 OA
ATOM      9  C   UNL A   1      31.312 -38.980 -34.567  0.00  0.00    +0.082 C 
ENDBRANCH   6   8
ENDBRANCH   5   6
BRANCH   5  10
ATOM     10  C   UNL A   1      32.157 -34.941 -32.510  0.00  0.00    -0.014 C 
BRANCH  10  11
ATOM     11  C   UNL A   1      33.362 -34.015 -32.718  0.00  0.00    +0.047 C 
BRANCH  11  12
ATOM     12  C   UNL A   1      33.595 -33.125 -31.512  0.00  0.00    +0.307 C 
ATOM     13  O   UNL A   1      34.331 -32.146 -31.547  0.00  0.00    -0.251 OA
BRANCH  12  15
ATOM     14  C   UNL A   1      33.548 -33.306 -29.077  0.00  0.00    +0.082 C 
ATOM     15  O   UNL A   1      32.947 -33.463 -30.370  0.00  0.00    -0.468 OA
ENDBRANCH  12  15
ENDBRANCH  11  12
ENDBRANCH  10  11
ENDBRANCH   5  10
ENDBRANCH   1   5
BRANCH   2  16
ATOM     16  C   UNL A   1      35.055 -36.989 -30.674  0.00  0.00    +0.165 C 
BRANCH  16  17
ATOM     17  O   UNL A   1      35.919 -35.938 -30.272  0.00  0.00    -0.483 OA
BRANCH  17  18
ATOM     18  C   UNL A   1      37.238 -36.022 -30.621  0.00  0.00    +0.121 A 
ATOM     19  C   UNL A   1      37.630 -35.124 -31.619  0.00  0.00    -0.019 A 
ATOM     20  C   UNL A   1      38.951 -35.091 -32.071  0.00  0.00    -0.048 A 
ATOM     21  C   UNL A   1      39.891 -35.957 -31.512  0.00  0.00    +0.014 A 
ATOM     22  C   UNL A   1      39.514 -36.852 -30.508  0.00  0.00    -0.048 A 
ATOM     23  C   UNL A   1      38.186 -36.884 -30.064  0.00  0.00    -0.019 A 
BRANCH  21  24
ATOM     24  C   UNL A   1      41.294 -35.930 -31.971  0.00  0.00    +0.150 C 
ATOM     25  O   UNL A   1      41.725 -35.048 -32.704  0.00  0.00    -0.296 OA
ENDBRANCH  21  24
ENDBRANCH  17  18
ENDBRANCH  16  17
ENDBRANCH   2  16
TORSDOF 11
ENDMDL
MODEL 14
REMARK VINA RESULT:    -5.178     16.287     18.270
REMARK INTER + INTRA:          -9.380
REMARK INTER:                  -8.313
REMARK INTRA:                  -1.067
REMARK UNBOUND:                -0.872
REMARK  Name = cpd229.pdb
REMARK  13 active torsions:
REMARK  status: ('A' for Active; 'I' for Inactive)
REMARK    1  A    between atoms: C_1  and  O_2
REMARK    2  A    between atoms: O_2  and  C_3
REMARK    3  A    between atoms: C_3  and  C_5
REMARK    4  A    between atoms: C_5  and  C_6
REMARK    5  A    between atoms: C_6  and  C_7
REMARK    6  A    between atoms: C_7  and  N_8
REMARK    7  A    between atoms: C_7  and  C_21
REMARK    8  A    between atoms: C_9  and  C_11
REMARK    9  A    between atoms: C_11  and  O_12
REMARK   10  A    between atoms: O_12  and  C_13
REMARK   11  A    between atoms: C_16  and  C_17
REMARK   12  A    between atoms: C_21  and  O_23
REMARK   13  A    between atoms: O_23  and  C_24
REMARK                            x       y       z     vdW  Elec       q    Type
REMARK                         _______ _______ _______ _____ _____    ______ ____
ROOT
ATOM      1  N   UNL A   1      42.923 -20.618 -35.466  0.00  0.00    -0.300 N 
ATOM      2  C   UNL A   1      44.080 -19.968 -35.806  0.00  0.00    +0.251 C 
ATOM      3  O   UNL A   1      45.067 -20.114 -35.087  0.00  0.00    -0.272 OA
ATOM      4  H   UNL A   1      42.915 -21.053 -34.582  0.00  0.00    +0.000 HD
ENDROOT
BRANCH   1   5
ATOM      5  C   UNL A   1      41.695 -20.746 -36.257  0.00  0.00    +0.121 C 
BRANCH   5   6
ATOM      6  C   UNL A   1      41.748 -22.065 -37.043  0.00  0.00    +0.327 C 
ATOM      7  O   UNL A   1      41.323 -23.141 -36.643  0.00  0.00    -0.249 OA
BRANCH   6   8
ATOM      8  O   UNL A   1      42.338 -21.861 -38.256  0.00  0.00    -0.467 OA
ATOM      9  C   UNL A   1      41.415 -21.586 -39.311  0.00  0.00    +0.082 C 
ENDBRANCH   6   8
ENDBRANCH   5   6
BRANCH   5  10
ATOM     10  C   UNL A   1      40.477 -20.713 -35.329  0.00  0.00    -0.014 C 
BRANCH  10  11
ATOM     11  C   UNL A   1      40.808 -21.107 -33.884  0.00  0.00    +0.047 C 
BRANCH  11  12
ATOM     12  C   UNL A   1      39.558 -21.459 -33.103  0.00  0.00    +0.307 C 
ATOM     13  O   UNL A   1      38.658 -20.652 -32.899  0.00  0.00    -0.251 OA
BRANCH  12  15
ATOM     14  C   UNL A   1      40.599 -23.610 -32.603  0.00  0.00    +0.082 C 
ATOM     15  O   UNL A   1      39.472 -22.725 -32.626  0.00  0.00    -0.468 OA
ENDBRANCH  12  15
ENDBRANCH  11  12
ENDBRANCH  10  11
ENDBRANCH   5  10
ENDBRANCH   1   5
BRANCH   2  16
ATOM     16  C   UNL A   1      44.077 -19.096 -37.070  0.00  0.00    +0.165 C 
BRANCH  16  17
ATOM     17  O   UNL A   1      45.274 -19.087 -37.830  0.00  0.00    -0.483 OA
BRANCH  17  18
ATOM     18  C   UNL A   1      45.372 -19.952 -38.884  0.00  0.00    +0.121 A 
ATOM     19  C   UNL A   1      44.693 -19.540 -40.035  0.00  0.00    -0.019 A 
ATOM     20  C   UNL A   1      44.712 -20.320 -41.193  0.00  0.00    -0.048 A 
ATOM     21  C   UNL A   1      45.426 -21.519 -41.204  0.00  0.00    +0.014 A 
ATOM     22  C   UNL A   1      46.116 -21.936 -40.064  0.00  0.00    -0.048 A 
ATOM     23  C   UNL A   1      46.088 -21.151 -38.904  0.00  0.00    -0.019 A 
BRANCH  21  24
ATOM     24  C   UNL A   1      45.464 -22.353 -42.422  0.00  0.00    +0.150 C 
ATOM     25  O   UNL A   1      46.274 -23.259 -42.568  0.00  0.00    -0.296 OA
ENDBRANCH  21  24
ENDBRANCH  17  18
ENDBRANCH  16  17
ENDBRANCH   2  16
TORSDOF 11
ENDMDL
MODEL 15
REMARK VINA RESULT:    -5.119      1.833      3.853
REMARK INTER + INTRA:          -9.282
REMARK INTER:                  -8.590
REMARK INTRA:                  -0.693
REMARK UNBOUND:                -0.872
REMARK  Name = cpd229.pdb
REMARK  13 active torsions:
REMARK  status: ('A' for Active; 'I' for Inactive)
REMARK    1  A    between atoms: C_1  and  O_2
REMARK    2  A    between atoms: O_2  and  C_3
REMARK    3  A    between atoms: C_3  and  C_5
REMARK    4  A    between atoms: C_5  and  C_6
REMARK    5  A    between atoms: C_6  and  C_7
REMARK    6  A    between atoms: C_7  and  N_8
REMARK    7  A    between atoms: C_7  and  C_21
REMARK    8  A    between atoms: C_9  and  C_11
REMARK    9  A    between atoms: C_11  and  O_12
REMARK   10  A    between atoms: O_12  and  C_13
REMARK   11  A    between atoms: C_16  and  C_17
REMARK   12  A    between atoms: C_21  and  O_23
REMARK   13  A    between atoms: O_23  and  C_24
REMARK                            x       y       z     vdW  Elec       q    Type
REMARK                         _______ _______ _______ _____ _____    ______ ____
ROOT
ATOM      1  N   UNL A   1      33.519 -35.930 -30.646  0.00  0.00    -0.300 N 
ATOM      2  C   UNL A   1      34.584 -36.780 -30.790  0.00  0.00    +0.251 C 
ATOM      3  O   UNL A   1      34.379 -37.900 -31.255  0.00  0.00    -0.272 OA
ATOM      4  H   UNL A   1      32.629 -36.323 -30.795  0.00  0.00    +0.000 HD
ENDROOT
BRANCH   1   5
ATOM      5  C   UNL A   1      33.545 -34.505 -30.298  0.00  0.00    +0.121 C 
BRANCH   5   6
ATOM      6  C   UNL A   1      32.855 -33.710 -31.417  0.00  0.00    +0.327 C 
ATOM      7  O   UNL A   1      31.752 -33.963 -31.884  0.00  0.00    -0.249 OA
BRANCH   6   8
ATOM      8  O   UNL A   1      33.653 -32.677 -31.814  0.00  0.00    -0.467 OA
ATOM      9  C   UNL A   1      35.022 -32.820 -31.427  0.00  0.00    +0.082 C 
ENDBRANCH   6   8
ENDBRANCH   5   6
BRANCH   5  10
ATOM     10  C   UNL A   1      32.835 -34.288 -28.958  0.00  0.00    -0.014 C 
BRANCH  10  11
ATOM     11  C   UNL A   1      32.879 -35.521 -28.045  0.00  0.00    +0.047 C 
BRANCH  11  12
ATOM     12  C   UNL A   1      31.710 -35.541 -27.081  0.00  0.00    +0.307 C 
ATOM     13  O   UNL A   1      30.573 -35.837 -27.429  0.00  0.00    -0.251 OA
BRANCH  12  15
ATOM     14  C   UNL A   1      31.690 -36.093 -24.703  0.00  0.00    +0.082 C 
ATOM     15  O   UNL A   1      31.974 -35.208 -25.794  0.00  0.00    -0.468 OA
ENDBRANCH  12  15
ENDBRANCH  11  12
ENDBRANCH  10  11
ENDBRANCH   5  10
ENDBRANCH   1   5
BRANCH   2  16
ATOM     16  C   UNL A   1      35.973 -36.282 -30.364  0.00  0.00    +0.165 C 
BRANCH  16  17
ATOM     17  O   UNL A   1      36.862 -35.930 -31.411  0.00  0.00    -0.483 OA
BRANCH  17  18
ATOM     18  C   UNL A   1      38.204 -36.055 -31.183  0.00  0.00    +0.121 A 
ATOM     19  C   UNL A   1      38.998 -35.147 -31.891  0.00  0.00    -0.019 A 
ATOM     20  C   UNL A   1      40.388 -35.153 -31.750  0.00  0.00    -0.048 A 
ATOM     21  C   UNL A   1      40.988 -36.068 -30.885  0.00  0.00    +0.014 A 
ATOM     22  C   UNL A   1      40.205 -36.973 -30.165  0.00  0.00    -0.048 A 
ATOM     23  C   UNL A   1      38.813 -36.966 -30.316  0.00  0.00    -0.019 A 
BRANCH  21  24
ATOM     24  C   UNL A   1      42.455 -36.083 -30.717  0.00  0.00    +0.150 C 
ATOM     25  O   UNL A   1      43.076 -37.113 -30.488  0.00  0.00    -0.296 OA
ENDBRANCH  21  24
ENDBRANCH  17  18
ENDBRANCH  16  17
ENDBRANCH   2  16
TORSDOF 11
ENDMDL
MODEL 16
REMARK VINA RESULT:    -5.055      1.554      2.184
REMARK INTER + INTRA:          -9.177
REMARK INTER:                  -7.999
REMARK INTRA:                  -1.178
REMARK UNBOUND:                -0.872
REMARK  Name = cpd229.pdb
REMARK  13 active torsions:
REMARK  status: ('A' for Active; 'I' for Inactive)
REMARK    1  A    between atoms: C_1  and  O_2
REMARK    2  A    between atoms: O_2  and  C_3
REMARK    3  A    between atoms: C_3  and  C_5
REMARK    4  A    between atoms: C_5  and  C_6
REMARK    5  A    between atoms: C_6  and  C_7
REMARK    6  A    between atoms: C_7  and  N_8
REMARK    7  A    between atoms: C_7  and  C_21
REMARK    8  A    between atoms: C_9  and  C_11
REMARK    9  A    between atoms: C_11  and  O_12
REMARK   10  A    between atoms: O_12  and  C_13
REMARK   11  A    between atoms: C_16  and  C_17
REMARK   12  A    between atoms: C_21  and  O_23
REMARK   13  A    between atoms: O_23  and  C_24
REMARK                            x       y       z     vdW  Elec       q    Type
REMARK                         _______ _______ _______ _____ _____    ______ ____
ROOT
ATOM      1  N   UNL A   1      34.315 -36.829 -29.076  0.00  0.00    -0.300 N 
ATOM      2  C   UNL A   1      35.663 -37.006 -28.908  0.00  0.00    +0.251 C 
ATOM      3  O   UNL A   1      36.129 -36.908 -27.774  0.00  0.00    -0.272 OA
ATOM      4  H   UNL A   1      33.822 -36.492 -28.293  0.00  0.00    +0.000 HD
ENDROOT
BRANCH   1   5
ATOM      5  C   UNL A   1      33.517 -37.080 -30.280  0.00  0.00    +0.121 C 
BRANCH   5   6
ATOM      6  C   UNL A   1      32.568 -38.258 -30.008  0.00  0.00    +0.327 C 
ATOM      7  O   UNL A   1      31.666 -38.260 -29.181  0.00  0.00    -0.249 OA
BRANCH   6   8
ATOM      8  O   UNL A   1      32.879 -39.303 -30.828  0.00  0.00    -0.467 OA
ATOM      9  C   UNL A   1      33.784 -38.966 -31.881  0.00  0.00    +0.082 C 
ENDBRANCH   6   8
ENDBRANCH   5   6
BRANCH   5  10
ATOM     10  C   UNL A   1      32.728 -35.819 -30.649  0.00  0.00    -0.014 C 
BRANCH  10  11
ATOM     11  C   UNL A   1      32.516 -34.871 -29.462  0.00  0.00    +0.047 C 
BRANCH  11  12
ATOM     12  C   UNL A   1      33.337 -33.605 -29.608  0.00  0.00    +0.307 C 
ATOM     13  O   UNL A   1      32.852 -32.486 -29.482  0.00  0.00    -0.251 OA
BRANCH  12  15
ATOM     14  C   UNL A   1      35.305 -33.011 -30.927  0.00  0.00    +0.082 C 
ATOM     15  O   UNL A   1      34.654 -33.760 -29.892  0.00  0.00    -0.468 OA
ENDBRANCH  12  15
ENDBRANCH  11  12
ENDBRANCH  10  11
ENDBRANCH   5  10
ENDBRANCH   1   5
BRANCH   2  16
ATOM     16  C   UNL A   1      36.514 -37.323 -30.147  0.00  0.00    +0.165 C 
BRANCH  16  17
ATOM     17  O   UNL A   1      37.062 -36.210 -30.834  0.00  0.00    -0.483 OA
BRANCH  17  18
ATOM     18  C   UNL A   1      38.423 -36.098 -30.892  0.00  0.00    +0.121 A 
ATOM     19  C   UNL A   1      39.113 -37.023 -30.101  0.00  0.00    -0.019 A 
ATOM     20  C   UNL A   1      40.509 -37.032 -30.068  0.00  0.00    -0.048 A 
ATOM     21  C   UNL A   1      41.222 -36.116 -30.843  0.00  0.00    +0.014 A 
ATOM     22  C   UNL A   1      40.544 -35.195 -31.644  0.00  0.00    -0.048 A 
ATOM     23  C   UNL A   1      39.144 -35.187 -31.668  0.00  0.00    -0.019 A 
BRANCH  21  24
ATOM     24  C   UNL A   1      42.699 -36.117 -30.827  0.00  0.00    +0.150 C 
ATOM     25  O   UNL A   1      43.358 -36.943 -31.447  0.00  0.00    -0.296 OA
ENDBRANCH  21  24
ENDBRANCH  17  18
ENDBRANCH  16  17
ENDBRANCH   2  16
TORSDOF 11
ENDMDL
MODEL 17
REMARK VINA RESULT:    -5.028     14.508     17.609
REMARK INTER + INTRA:          -9.133
REMARK INTER:                  -7.072
REMARK INTRA:                  -2.061
REMARK UNBOUND:                -0.872
REMARK  Name = cpd229.pdb
REMARK  13 active torsions:
REMARK  status: ('A' for Active; 'I' for Inactive)
REMARK    1  A    between atoms: C_1  and  O_2
REMARK    2  A    between atoms: O_2  and  C_3
REMARK    3  A    between atoms: C_3  and  C_5
REMARK    4  A    between atoms: C_5  and  C_6
REMARK    5  A    between atoms: C_6  and  C_7
REMARK    6  A    between atoms: C_7  and  N_8
REMARK    7  A    between atoms: C_7  and  C_21
REMARK    8  A    between atoms: C_9  and  C_11
REMARK    9  A    between atoms: C_11  and  O_12
REMARK   10  A    between atoms: O_12  and  C_13
REMARK   11  A    between atoms: C_16  and  C_17
REMARK   12  A    between atoms: C_21  and  O_23
REMARK   13  A    between atoms: O_23  and  C_24
REMARK                            x       y       z     vdW  Elec       q    Type
REMARK                         _______ _______ _______ _____ _____    ______ ____
ROOT
ATOM      1  N   UNL A   1      39.689 -22.182 -36.220  0.00  0.00    -0.300 N 
ATOM      2  C   UNL A   1      39.462 -23.140 -35.268  0.00  0.00    +0.251 C 
ATOM      3  O   UNL A   1      38.835 -24.148 -35.589  0.00  0.00    -0.272 OA
ATOM      4  H   UNL A   1      39.210 -22.298 -37.073  0.00  0.00    +0.000 HD
ENDROOT
BRANCH   1   5
ATOM      5  C   UNL A   1      40.559 -21.005 -36.126  0.00  0.00    +0.121 C 
BRANCH   5   6
ATOM      6  C   UNL A   1      41.574 -21.046 -37.278  0.00  0.00    +0.327 C 
ATOM      7  O   UNL A   1      42.477 -20.239 -37.450  0.00  0.00    -0.249 OA
BRANCH   6   8
ATOM      8  O   UNL A   1      41.322 -22.120 -38.082  0.00  0.00    -0.467 OA
ATOM      9  C   UNL A   1      41.373 -21.823 -39.479  0.00  0.00    +0.082 C 
ENDBRANCH   6   8
ENDBRANCH   5   6
BRANCH   5  10
ATOM     10  C   UNL A   1      39.712 -19.731 -36.191  0.00  0.00    -0.014 C 
BRANCH  10  11
ATOM     11  C   UNL A   1      38.290 -19.976 -36.712  0.00  0.00    +0.047 C 
BRANCH  11  12
ATOM     12  C   UNL A   1      37.334 -18.892 -36.255  0.00  0.00    +0.307 C 
ATOM     13  O   UNL A   1      36.118 -19.045 -36.248  0.00  0.00    -0.251 OA
BRANCH  12  15
ATOM     14  C   UNL A   1      37.468 -16.457 -36.378  0.00  0.00    +0.082 C 
ATOM     15  O   UNL A   1      37.887 -17.723 -35.849  0.00  0.00    -0.468 OA
ENDBRANCH  12  15
ENDBRANCH  11  12
ENDBRANCH  10  11
ENDBRANCH   5  10
ENDBRANCH   1   5
BRANCH   2  16
ATOM     16  C   UNL A   1      40.010 -22.901 -33.853  0.00  0.00    +0.165 C 
BRANCH  16  17
ATOM     17  O   UNL A   1      39.046 -22.754 -32.823  0.00  0.00    -0.483 OA
BRANCH  17  18
ATOM     18  C   UNL A   1      38.340 -21.585 -32.765  0.00  0.00    +0.121 A 
ATOM     19  C   UNL A   1      39.127 -20.444 -32.571  0.00  0.00    -0.019 A 
ATOM     20  C   UNL A   1      38.541 -19.178 -32.500  0.00  0.00    -0.048 A 
ATOM     21  C   UNL A   1      37.159 -19.050 -32.637  0.00  0.00    +0.014 A 
ATOM     22  C   UNL A   1      36.365 -20.180 -32.842  0.00  0.00    -0.048 A 
ATOM     23  C   UNL A   1      36.958 -21.448 -32.905  0.00  0.00    -0.019 A 
BRANCH  21  24
ATOM     24  C   UNL A   1      36.524 -17.718 -32.574  0.00  0.00    +0.150 C 
ATOM     25  O   UNL A   1      35.640 -17.378 -33.350  0.00  0.00    -0.296 OA
ENDBRANCH  21  24
ENDBRANCH  17  18
ENDBRANCH  16  17
ENDBRANCH   2  16
TORSDOF 11
ENDMDL
MODEL 18
REMARK VINA RESULT:    -5.021      2.253      8.324
REMARK INTER + INTRA:          -9.121
REMARK INTER:                  -8.284
REMARK INTRA:                  -0.837
REMARK UNBOUND:                -0.872
REMARK  Name = cpd229.pdb
REMARK  13 active torsions:
REMARK  status: ('A' for Active; 'I' for Inactive)
REMARK    1  A    between atoms: C_1  and  O_2
REMARK    2  A    between atoms: O_2  and  C_3
REMARK    3  A    between atoms: C_3  and  C_5
REMARK    4  A    between atoms: C_5  and  C_6
REMARK    5  A    between atoms: C_6  and  C_7
REMARK    6  A    between atoms: C_7  and  N_8
REMARK    7  A    between atoms: C_7  and  C_21
REMARK    8  A    between atoms: C_9  and  C_11
REMARK    9  A    between atoms: C_11  and  O_12
REMARK   10  A    between atoms: O_12  and  C_13
REMARK   11  A    between atoms: C_16  and  C_17
REMARK   12  A    between atoms: C_21  and  O_23
REMARK   13  A    between atoms: O_23  and  C_24
REMARK                            x       y       z     vdW  Elec       q    Type
REMARK                         _______ _______ _______ _____ _____    ______ ____
ROOT
ATOM      1  N   UNL A   1      36.069 -36.260 -31.528  0.00  0.00    -0.300 N 
ATOM      2  C   UNL A   1      35.000 -35.405 -31.589  0.00  0.00    +0.251 C 
ATOM      3  O   UNL A   1      34.234 -35.495 -32.547  0.00  0.00    -0.272 OA
ATOM      4  H   UNL A   1      36.237 -36.802 -32.333  0.00  0.00    +0.000 HD
ENDROOT
BRANCH   1   5
ATOM      5  C   UNL A   1      36.994 -36.466 -30.409  0.00  0.00    +0.121 C 
BRANCH   5   6
ATOM      6  C   UNL A   1      36.453 -37.596 -29.521  0.00  0.00    +0.327 C 
ATOM      7  O   UNL A   1      35.573 -37.472 -28.679  0.00  0.00    -0.249 OA
BRANCH   6   8
ATOM      8  O   UNL A   1      37.096 -38.764 -29.810  0.00  0.00    -0.467 OA
ATOM      9  C   UNL A   1      36.916 -39.786 -28.827  0.00  0.00    +0.082 C 
ENDBRANCH   6   8
ENDBRANCH   5   6
BRANCH   5  10
ATOM     10  C   UNL A   1      38.386 -36.815 -30.947  0.00  0.00    -0.014 C 
BRANCH  10  11
ATOM     11  C   UNL A   1      38.825 -35.917 -32.111  0.00  0.00    +0.047 C 
BRANCH  11  12
ATOM     12  C   UNL A   1      40.334 -35.881 -32.246  0.00  0.00    +0.307 C 
ATOM     13  O   UNL A   1      40.924 -34.969 -32.815  0.00  0.00    -0.251 OA
BRANCH  12  15
ATOM     14  C   UNL A   1      42.173 -37.485 -32.345  0.00  0.00    +0.082 C 
ATOM     15  O   UNL A   1      41.021 -36.918 -31.706  0.00  0.00    -0.468 OA
ENDBRANCH  12  15
ENDBRANCH  11  12
ENDBRANCH  10  11
ENDBRANCH   5  10
ENDBRANCH   1   5
BRANCH   2  16
ATOM     16  C   UNL A   1      34.819 -34.386 -30.455  0.00  0.00    +0.165 C 
BRANCH  16  17
ATOM     17  O   UNL A   1      33.644 -34.519 -29.672  0.00  0.00    -0.483 OA
BRANCH  17  18
ATOM     18  C   UNL A   1      32.774 -33.465 -29.637  0.00  0.00    +0.121 A 
ATOM     19  C   UNL A   1      33.131 -32.393 -30.460  0.00  0.00    -0.019 A 
ATOM     20  C   UNL A   1      32.331 -31.250 -30.531  0.00  0.00    -0.048 A 
ATOM     21  C   UNL A   1      31.157 -31.185 -29.781  0.00  0.00    +0.014 A 
ATOM     22  C   UNL A   1      30.784 -32.253 -28.963  0.00  0.00    -0.048 A 
ATOM     23  C   UNL A   1      31.594 -33.394 -28.892  0.00  0.00    -0.019 A 
BRANCH  21  24
ATOM     24  C   UNL A   1      30.294 -29.988 -29.851  0.00  0.00    +0.150 C 
ATOM     25  O   UNL A   1      29.447 -29.843 -30.724  0.00  0.00    -0.296 OA
ENDBRANCH  21  24
ENDBRANCH  17  18
ENDBRANCH  16  17
ENDBRANCH   2  16
TORSDOF 11
ENDMDL
MODEL 19
REMARK VINA RESULT:    -5.013     16.532     19.485
REMARK INTER + INTRA:          -9.108
REMARK INTER:                  -8.314
REMARK INTRA:                  -0.794
REMARK UNBOUND:                -0.872
REMARK  Name = cpd229.pdb
REMARK  13 active torsions:
REMARK  status: ('A' for Active; 'I' for Inactive)
REMARK    1  A    between atoms: C_1  and  O_2
REMARK    2  A    between atoms: O_2  and  C_3
REMARK    3  A    between atoms: C_3  and  C_5
REMARK    4  A    between atoms: C_5  and  C_6
REMARK    5  A    between atoms: C_6  and  C_7
REMARK    6  A    between atoms: C_7  and  N_8
REMARK    7  A    between atoms: C_7  and  C_21
REMARK    8  A    between atoms: C_9  and  C_11
REMARK    9  A    between atoms: C_11  and  O_12
REMARK   10  A    between atoms: O_12  and  C_13
REMARK   11  A    between atoms: C_16  and  C_17
REMARK   12  A    between atoms: C_21  and  O_23
REMARK   13  A    between atoms: O_23  and  C_24
REMARK                            x       y       z     vdW  Elec       q    Type
REMARK                         _______ _______ _______ _____ _____    ______ ____
ROOT
ATOM      1  N   UNL A   1      45.426 -20.023 -36.565  0.00  0.00    -0.300 N 
ATOM      2  C   UNL A   1      44.581 -20.102 -35.489  0.00  0.00    +0.251 C 
ATOM      3  O   UNL A   1      45.020 -19.809 -34.379  0.00  0.00    -0.272 OA
ATOM      4  H   UNL A   1      46.377 -19.870 -36.359  0.00  0.00    +0.000 HD
ENDROOT
BRANCH   1   5
ATOM      5  C   UNL A   1      45.087 -20.137 -37.987  0.00  0.00    +0.121 C 
BRANCH   5   6
ATOM      6  C   UNL A   1      45.099 -18.734 -38.613  0.00  0.00    +0.327 C 
ATOM      7  O   UNL A   1      44.139 -17.977 -38.666  0.00  0.00    -0.249 OA
BRANCH   6   8
ATOM      8  O   UNL A   1      46.343 -18.454 -39.102  0.00  0.00    -0.467 OA
ATOM      9  C   UNL A   1      46.972 -17.333 -38.479  0.00  0.00    +0.082 C 
ENDBRANCH   6   8
ENDBRANCH   5   6
BRANCH   5  10
ATOM     10  C   UNL A   1      46.094 -21.055 -38.686  0.00  0.00    -0.014 C 
BRANCH  10  11
ATOM     11  C   UNL A   1      45.478 -21.863 -39.836  0.00  0.00    +0.047 C 
BRANCH  11  12
ATOM     12  C   UNL A   1      46.358 -21.835 -41.069  0.00  0.00    +0.307 C 
ATOM     13  O   UNL A   1      46.656 -20.795 -41.645  0.00  0.00    -0.251 OA
BRANCH  12  15
ATOM     14  C   UNL A   1      48.209 -23.324 -41.635  0.00  0.00    +0.082 C 
ATOM     15  O   UNL A   1      46.810 -23.030 -41.524  0.00  0.00    -0.468 OA
ENDBRANCH  12  15
ENDBRANCH  11  12
ENDBRANCH  10  11
ENDBRANCH   5  10
ENDBRANCH   1   5
BRANCH   2  16
ATOM     16  C   UNL A   1      43.133 -20.549 -35.735  0.00  0.00    +0.165 C 
BRANCH  16  17
ATOM     17  O   UNL A   1      42.207 -20.282 -34.694  0.00  0.00    -0.483 OA
BRANCH  17  18
ATOM     18  C   UNL A   1      41.277 -21.240 -34.400  0.00  0.00    +0.121 A 
ATOM     19  C   UNL A   1      40.522 -21.668 -35.497  0.00  0.00    -0.019 A 
ATOM     20  C   UNL A   1      39.540 -22.650 -35.348  0.00  0.00    -0.048 A 
ATOM     21  C   UNL A   1      39.319 -23.216 -34.092  0.00  0.00    +0.014 A 
ATOM     22  C   UNL A   1      40.073 -22.804 -32.992  0.00  0.00    -0.048 A 
ATOM     23  C   UNL A   1      41.052 -21.815 -33.148  0.00  0.00    -0.019 A 
BRANCH  21  24
ATOM     24  C   UNL A   1      38.290 -24.261 -33.917  0.00  0.00    +0.150 C 
ATOM     25  O   UNL A   1      37.899 -24.615 -32.812  0.00  0.00    -0.296 OA
ENDBRANCH  21  24
ENDBRANCH  17  18
ENDBRANCH  16  17
ENDBRANCH   2  16
TORSDOF 11
ENDMDL
MODEL 20
REMARK VINA RESULT:    -4.927     16.172     18.002
REMARK INTER + INTRA:          -8.966
REMARK INTER:                  -7.903
REMARK INTRA:                  -1.063
REMARK UNBOUND:                -0.872
REMARK  Name = cpd229.pdb
REMARK  13 active torsions:
REMARK  status: ('A' for Active; 'I' for Inactive)
REMARK    1  A    between atoms: C_1  and  O_2
REMARK    2  A    between atoms: O_2  and  C_3
REMARK    3  A    between atoms: C_3  and  C_5
REMARK    4  A    between atoms: C_5  and  C_6
REMARK    5  A    between atoms: C_6  and  C_7
REMARK    6  A    between atoms: C_7  and  N_8
REMARK    7  A    between atoms: C_7  and  C_21
REMARK    8  A    between atoms: C_9  and  C_11
REMARK    9  A    between atoms: C_11  and  O_12
REMARK   10  A    between atoms: O_12  and  C_13
REMARK   11  A    between atoms: C_16  and  C_17
REMARK   12  A    between atoms: C_21  and  O_23
REMARK   13  A    between atoms: O_23  and  C_24
REMARK                            x       y       z     vdW  Elec       q    Type
REMARK                         _______ _______ _______ _____ _____    ______ ____
ROOT
ATOM      1  N   UNL A   1      41.309 -22.230 -34.936  0.00  0.00    -0.300 N 
ATOM      2  C   UNL A   1      41.063 -22.086 -36.276  0.00  0.00    +0.251 C 
ATOM      3  O   UNL A   1      41.197 -23.069 -37.004  0.00  0.00    -0.272 OA
ATOM      4  H   UNL A   1      41.718 -23.082 -34.660  0.00  0.00    +0.000 HD
ENDROOT
BRANCH   1   5
ATOM      5  C   UNL A   1      41.039 -21.269 -33.862  0.00  0.00    +0.121 C 
BRANCH   5   6
ATOM      6  C   UNL A   1      40.312 -21.994 -32.720  0.00  0.00    +0.327 C 
ATOM      7  O   UNL A   1      39.102 -22.165 -32.650  0.00  0.00    -0.249 OA
BRANCH   6   8
ATOM      8  O   UNL A   1      41.216 -22.423 -31.792  0.00  0.00    -0.467 OA
ATOM      9  C   UNL A   1      41.341 -23.845 -31.718  0.00  0.00    +0.082 C 
ENDBRANCH   6   8
ENDBRANCH   5   6
BRANCH   5  10
ATOM     10  C   UNL A   1      42.356 -20.660 -33.371  0.00  0.00    -0.014 C 
BRANCH  10  11
ATOM     11  C   UNL A   1      42.812 -19.455 -34.204  0.00  0.00    +0.047 C 
BRANCH  11  12
ATOM     12  C   UNL A   1      44.224 -19.034 -33.846  0.00  0.00    +0.307 C 
ATOM     13  O   UNL A   1      44.576 -18.821 -32.692  0.00  0.00    -0.251 OA
BRANCH  12  15
ATOM     14  C   UNL A   1      46.271 -18.078 -34.772  0.00  0.00    +0.082 C 
ATOM     15  O   UNL A   1      45.098 -18.896 -34.873  0.00  0.00    -0.468 OA
ENDBRANCH  12  15
ENDBRANCH  11  12
ENDBRANCH  10  11
ENDBRANCH   5  10
ENDBRANCH   1   5
BRANCH   2  16
ATOM     16  C   UNL A   1      40.629 -20.706 -36.791  0.00  0.00    +0.165 C 
BRANCH  16  17
ATOM     17  O   UNL A   1      40.929 -20.417 -38.146  0.00  0.00    -0.483 OA
BRANCH  17  18
ATOM     18  C   UNL A   1      42.244 -20.311 -38.504  0.00  0.00    +0.121 A 
ATOM     19  C   UNL A   1      42.617 -21.120 -39.582  0.00  0.00    -0.019 A 
ATOM     20  C   UNL A   1      43.928 -21.109 -40.063  0.00  0.00    -0.048 A 
ATOM     21  C   UNL A   1      44.873 -20.273 -39.467  0.00  0.00    +0.014 A 
ATOM     22  C   UNL A   1      44.510 -19.453 -38.396  0.00  0.00    -0.048 A 
ATOM     23  C   UNL A   1      43.194 -19.474 -37.915  0.00  0.00    -0.019 A 
BRANCH  21  24
ATOM     24  C   UNL A   1      46.261 -20.242 -39.967  0.00  0.00    +0.150 C 
ATOM     25  O   UNL A   1      47.130 -20.988 -39.532  0.00  0.00    -0.296 OA
ENDBRANCH  21  24
ENDBRANCH  17  18
ENDBRANCH  16  17
ENDBRANCH   2  16
TORSDOF 11
ENDMDL
