MODEL 1
REMARK VINA RESULT:    -6.722      0.000      0.000
REMARK INTER + INTRA:         -18.555
REMARK INTER:                 -12.616
REMARK INTRA:                  -5.940
REMARK UNBOUND:                -5.940
REMARK  Name = cpd16.pdb
REMARK  17 active torsions:
REMARK  status: ('A' for Active; 'I' for Inactive)
REMARK    1  A    between atoms: C_1  and  C_2
REMARK    2  A    between atoms: C_6  and  N_7
REMARK    3  A    between atoms: N_7  and  C_8
REMARK    4  A    between atoms: C_13  and  C_14
REMARK    5  A    between atoms: N_16  and  C_17
REMARK    6  A    between atoms: C_17  and  C_18
REMARK    7  A    between atoms: C_18  and  C_19
REMARK    8  A    between atoms: N_21  and  C_22
REMARK    9  A    between atoms: C_22  and  C_23
REMARK   10  A    between atoms: C_23  and  C_24
REMARK   11  A    between atoms: C_24  and  C_25
REMARK   12  A    between atoms: C_25  and  C_26
REMARK   13  A    between atoms: C_26  and  C_27
REMARK   14  A    between atoms: C_27  and  C_28
REMARK   15  A    between atoms: C_28  and  N_29
REMARK   16  A    between atoms: N_29  and  C_30
REMARK   17  A    between atoms: C_45  and  C_46
REMARK                            x       y       z     vdW  Elec       q    Type
REMARK                         _______ _______ _______ _____ _____    ______ ____
ROOT
ATOM      1  C   UNL A   1      33.046 -38.061 -32.609  0.00  0.00    +0.215 C 
ATOM      2  O   UNL A   1      32.006 -38.709 -32.678  0.00  0.00    -0.276 OA
ATOM      3  N   UNL A   1      34.279 -38.623 -32.366  0.00  0.00    -0.315 N 
ATOM      4  H   UNL A   1      35.080 -38.051 -32.377  0.00  0.00    +0.000 HD
ENDROOT
BRANCH   1   5
ATOM      5  C   UNL A   1      33.064 -36.568 -32.818  0.00  0.00    +0.039 C 
BRANCH   5   6
ATOM      6  C   UNL A   1      31.679 -36.085 -33.209  0.00  0.00    +0.020 C 
BRANCH   6   9
ATOM      7  C   UNL A   1      30.047 -34.444 -32.368  0.00  0.00    +0.246 C 
ATOM      8  O   UNL A   1      29.091 -35.053 -32.837  0.00  0.00    -0.270 OA
ATOM      9  N   UNL A   1      31.363 -34.818 -32.571  0.00  0.00    -0.311 N 
ATOM     10  H   UNL A   1      32.091 -34.222 -32.281  0.00  0.00    +0.000 HD
BRANCH   7  16
ATOM     11  C   UNL A   1      29.448 -33.469 -30.125  0.00  0.00    +0.044 A 
ATOM     12  C   UNL A   1      29.363 -32.337 -29.297  0.00  0.00    -0.040 A 
ATOM     13  C   UNL A   1      29.550 -31.048 -29.804  0.00  0.00    -0.060 A 
ATOM     14  C   UNL A   1      29.854 -30.864 -31.149  0.00  0.00    -0.061 A 
ATOM     15  C   UNL A   1      30.000 -31.972 -31.982  0.00  0.00    -0.048 A 
ATOM     16  C   UNL A   1      29.831 -33.271 -31.471  0.00  0.00    +0.058 A 
BRANCH  11  17
ATOM     17  N   UNL A   1      29.316 -34.775 -29.579  0.00  0.00    -0.314 N 
ATOM     18  H   UNL A   1      28.447 -35.214 -29.726  0.00  0.00    +0.000 HD
BRANCH  17  24
ATOM     19  C   UNL A   1      31.631 -39.122 -28.720  0.00  0.00    -0.039 C 
ATOM     20  C   UNL A   1      31.363 -37.676 -28.402  0.00  0.00    -0.046 A 
ATOM     21  C   UNL A   1      31.998 -37.103 -27.290  0.00  0.00    -0.058 A 
ATOM     22  C   UNL A   1      31.757 -35.779 -26.940  0.00  0.00    -0.060 A 
ATOM     23  C   UNL A   1      30.885 -35.006 -27.703  0.00  0.00    -0.040 A 
ATOM     24  C   UNL A   1      30.273 -35.531 -28.850  0.00  0.00    +0.035 A 
ATOM     25  C   UNL A   1      30.504 -36.883 -29.200  0.00  0.00    -0.026 A 
ATOM     26  C   UNL A   1      29.789 -37.480 -30.389  0.00  0.00    -0.038 C 
ENDBRANCH  17  24
ENDBRANCH  11  17
ENDBRANCH   7  16
ENDBRANCH   6   9
ENDBRANCH   5   6
ENDBRANCH   1   5
BRANCH   3  27
ATOM     27  C   UNL A   1      34.420 -40.040 -32.095  0.00  0.00    +0.012 C 
BRANCH  27  28
ATOM     28  C   UNL A   1      34.647 -40.305 -30.607  0.00  0.00    -0.037 C 
BRANCH  28  29
ATOM     29  C   UNL A   1      36.134 -40.311 -30.250  0.00  0.00    -0.052 C 
BRANCH  29  30
ATOM     30  C   UNL A   1      36.335 -40.046 -28.755  0.00  0.00    -0.053 C 
BRANCH  30  31
ATOM     31  C   UNL A   1      35.233 -39.178 -28.138  0.00  0.00    -0.052 C 
BRANCH  31  32
ATOM     32  C   UNL A   1      35.740 -37.968 -27.348  0.00  0.00    -0.037 C 
BRANCH  32  33
ATOM     33  C   UNL A   1      35.375 -36.622 -27.972  0.00  0.00    +0.009 C 
BRANCH  33  34
ATOM     34  N   UNL A   1      35.245 -36.705 -29.438  0.00  0.00    -0.343 N 
ATOM     35  H   UNL A   1      34.796 -37.460 -29.884  0.00  0.00    +0.000 HD
BRANCH  34  36
ATOM     36  C   UNL A   1      35.811 -35.623 -30.164  0.00  0.00    +0.041 A 
ATOM     37  C   UNL A   1      35.075 -34.434 -30.365  0.00  0.00    -0.005 A 
ATOM     38  C   UNL A   1      35.718 -33.375 -31.015  0.00  0.00    +0.047 A 
ATOM     39  N   UNL A   1      37.006 -33.425 -31.425  0.00  0.00    -0.251 NA
ATOM     40  C   UNL A   1      37.697 -34.559 -31.259  0.00  0.00    +0.074 A 
ATOM     41  C   UNL A   1      39.001 -34.592 -31.729  0.00  0.00    -0.017 A 
ATOM     42  C   UNL A   1      39.777 -35.743 -31.631  0.00  0.00    +0.043 A 
ATOM     43 CL   UNL A   1      41.390 -35.746 -32.231  0.00  0.00    -0.083 Cl
ATOM     44  C   UNL A   1      39.252 -36.894 -31.063  0.00  0.00    -0.043 A 
ATOM     45  C   UNL A   1      37.945 -36.874 -30.580  0.00  0.00    -0.049 A 
ATOM     46  C   UNL A   1      37.150 -35.703 -30.645  0.00  0.00    +0.022 A 
ATOM     47  C   UNL A   1      35.033 -32.052 -31.255  0.00  0.00    -0.010 C 
ATOM     48  C   UNL A   1      33.514 -32.145 -31.222  0.00  0.00    -0.047 C 
ATOM     49  C   UNL A   1      33.077 -32.888 -29.970  0.00  0.00    -0.049 C 
ATOM     50  C   UNL A   1      33.618 -34.317 -29.980  0.00  0.00    -0.024 C 
ENDBRANCH  34  36
ENDBRANCH  33  34
ENDBRANCH  32  33
ENDBRANCH  31  32
ENDBRANCH  30  31
ENDBRANCH  29  30
ENDBRANCH  28  29
ENDBRANCH  27  28
ENDBRANCH   3  27
TORSDOF 15
ENDMDL
MODEL 2
REMARK VINA RESULT:    -6.668     16.480     21.020
REMARK INTER + INTRA:         -18.456
REMARK INTER:                 -13.190
REMARK INTRA:                  -5.266
REMARK UNBOUND:                -5.940
REMARK  Name = cpd16.pdb
REMARK  17 active torsions:
REMARK  status: ('A' for Active; 'I' for Inactive)
REMARK    1  A    between atoms: C_1  and  C_2
REMARK    2  A    between atoms: C_6  and  N_7
REMARK    3  A    between atoms: N_7  and  C_8
REMARK    4  A    between atoms: C_13  and  C_14
REMARK    5  A    between atoms: N_16  and  C_17
REMARK    6  A    between atoms: C_17  and  C_18
REMARK    7  A    between atoms: C_18  and  C_19
REMARK    8  A    between atoms: N_21  and  C_22
REMARK    9  A    between atoms: C_22  and  C_23
REMARK   10  A    between atoms: C_23  and  C_24
REMARK   11  A    between atoms: C_24  and  C_25
REMARK   12  A    between atoms: C_25  and  C_26
REMARK   13  A    between atoms: C_26  and  C_27
REMARK   14  A    between atoms: C_27  and  C_28
REMARK   15  A    between atoms: C_28  and  N_29
REMARK   16  A    between atoms: N_29  and  C_30
REMARK   17  A    between atoms: C_45  and  C_46
REMARK                            x       y       z     vdW  Elec       q    Type
REMARK                         _______ _______ _______ _____ _____    ______ ____
ROOT
ATOM      1  C   UNL A   1      45.404 -19.499 -34.736  0.00  0.00    +0.215 C 
ATOM      2  O   UNL A   1      45.747 -20.614 -34.355  0.00  0.00    -0.276 OA
ATOM      3  N   UNL A   1      44.094 -19.078 -34.780  0.00  0.00    -0.315 N 
ATOM      4  H   UNL A   1      43.894 -18.152 -35.046  0.00  0.00    +0.000 HD
ENDROOT
BRANCH   1   5
ATOM      5  C   UNL A   1      46.413 -18.466 -35.168  0.00  0.00    +0.039 C 
BRANCH   5   6
ATOM      6  C   UNL A   1      47.511 -19.124 -35.984  0.00  0.00    +0.020 C 
BRANCH   6   9
ATOM      7  C   UNL A   1      46.949 -19.388 -38.367  0.00  0.00    +0.246 C 
ATOM      8  O   UNL A   1      47.245 -18.228 -38.635  0.00  0.00    -0.270 OA
ATOM      9  N   UNL A   1      46.958 -19.900 -37.081  0.00  0.00    -0.311 N 
ATOM     10  H   UNL A   1      46.588 -20.795 -36.909  0.00  0.00    +0.000 HD
BRANCH   7  16
ATOM     11  C   UNL A   1      45.689 -20.004 -40.457  0.00  0.00    +0.044 A 
ATOM     12  C   UNL A   1      45.496 -20.908 -41.516  0.00  0.00    -0.040 A 
ATOM     13  C   UNL A   1      46.123 -22.158 -41.529  0.00  0.00    -0.060 A 
ATOM     14  C   UNL A   1      46.980 -22.520 -40.495  0.00  0.00    -0.061 A 
ATOM     15  C   UNL A   1      47.234 -21.621 -39.461  0.00  0.00    -0.048 A 
ATOM     16  C   UNL A   1      46.619 -20.355 -39.454  0.00  0.00    +0.058 A 
BRANCH  11  17
ATOM     17  N   UNL A   1      45.092 -18.714 -40.492  0.00  0.00    -0.314 N 
ATOM     18  H   UNL A   1      45.570 -18.035 -41.021  0.00  0.00    +0.000 HD
BRANCH  17  24
ATOM     19  C   UNL A   1      41.202 -15.576 -40.335  0.00  0.00    -0.039 C 
ATOM     20  C   UNL A   1      42.024 -16.701 -39.766  0.00  0.00    -0.046 A 
ATOM     21  C   UNL A   1      41.649 -17.248 -38.528  0.00  0.00    -0.058 A 
ATOM     22  C   UNL A   1      42.396 -18.268 -37.948  0.00  0.00    -0.060 A 
ATOM     23  C   UNL A   1      43.522 -18.763 -38.603  0.00  0.00    -0.040 A 
ATOM     24  C   UNL A   1      43.896 -18.275 -39.863  0.00  0.00    +0.035 A 
ATOM     25  C   UNL A   1      43.147 -17.226 -40.448  0.00  0.00    -0.026 A 
ATOM     26  C   UNL A   1      43.586 -16.641 -41.770  0.00  0.00    -0.038 C 
ENDBRANCH  17  24
ENDBRANCH  11  17
ENDBRANCH   7  16
ENDBRANCH   6   9
ENDBRANCH   5   6
ENDBRANCH   1   5
BRANCH   3  27
ATOM     27  C   UNL A   1      43.005 -19.973 -34.444  0.00  0.00    +0.012 C 
BRANCH  27  28
ATOM     28  C   UNL A   1      41.995 -19.299 -33.516  0.00  0.00    -0.037 C 
BRANCH  28  29
ATOM     29  C   UNL A   1      41.887 -17.797 -33.786  0.00  0.00    -0.052 C 
BRANCH  29  30
ATOM     30  C   UNL A   1      41.004 -17.526 -35.008  0.00  0.00    -0.053 C 
BRANCH  30  31
ATOM     31  C   UNL A   1      39.509 -17.471 -34.677  0.00  0.00    -0.052 C 
BRANCH  31  32
ATOM     32  C   UNL A   1      38.582 -17.588 -35.890  0.00  0.00    -0.037 C 
BRANCH  32  33
ATOM     33  C   UNL A   1      37.404 -18.538 -35.681  0.00  0.00    +0.009 C 
BRANCH  33  34
ATOM     34  N   UNL A   1      37.463 -19.704 -36.580  0.00  0.00    -0.343 N 
ATOM     35  H   UNL A   1      36.757 -19.896 -37.240  0.00  0.00    +0.000 HD
BRANCH  34  36
ATOM     36  C   UNL A   1      38.606 -20.534 -36.431  0.00  0.00    +0.041 A 
ATOM     37  C   UNL A   1      38.882 -21.159 -35.194  0.00  0.00    -0.005 A 
ATOM     38  C   UNL A   1      39.975 -22.029 -35.135  0.00  0.00    +0.047 A 
ATOM     39  N   UNL A   1      40.750 -22.324 -36.204  0.00  0.00    -0.251 NA
ATOM     40  C   UNL A   1      40.508 -21.715 -37.370  0.00  0.00    +0.074 A 
ATOM     41  C   UNL A   1      41.348 -22.005 -38.434  0.00  0.00    -0.017 A 
ATOM     42  C   UNL A   1      41.189 -21.388 -39.671  0.00  0.00    +0.043 A 
ATOM     43 CL   UNL A   1      42.256 -21.772 -40.966  0.00  0.00    -0.083 Cl
ATOM     44  C   UNL A   1      40.182 -20.454 -39.862  0.00  0.00    -0.043 A 
ATOM     45  C   UNL A   1      39.326 -20.155 -38.804  0.00  0.00    -0.049 A 
ATOM     46  C   UNL A   1      39.454 -20.795 -37.546  0.00  0.00    +0.022 A 
ATOM     47  C   UNL A   1      40.339 -22.768 -33.871  0.00  0.00    -0.010 C 
ATOM     48  C   UNL A   1      39.788 -22.115 -32.611  0.00  0.00    -0.047 C 
ATOM     49  C   UNL A   1      38.307 -21.826 -32.793  0.00  0.00    -0.049 C 
ATOM     50  C   UNL A   1      38.092 -20.844 -33.944  0.00  0.00    -0.024 C 
ENDBRANCH  34  36
ENDBRANCH  33  34
ENDBRANCH  32  33
ENDBRANCH  31  32
ENDBRANCH  30  31
ENDBRANCH  29  30
ENDBRANCH  28  29
ENDBRANCH  27  28
ENDBRANCH   3  27
TORSDOF 15
ENDMDL
MODEL 3
REMARK VINA RESULT:    -6.643     17.567     21.800
REMARK INTER + INTRA:         -18.408
REMARK INTER:                 -11.596
REMARK INTRA:                  -6.812
REMARK UNBOUND:                -5.940
REMARK  Name = cpd16.pdb
REMARK  17 active torsions:
REMARK  status: ('A' for Active; 'I' for Inactive)
REMARK    1  A    between atoms: C_1  and  C_2
REMARK    2  A    between atoms: C_6  and  N_7
REMARK    3  A    between atoms: N_7  and  C_8
REMARK    4  A    between atoms: C_13  and  C_14
REMARK    5  A    between atoms: N_16  and  C_17
REMARK    6  A    between atoms: C_17  and  C_18
REMARK    7  A    between atoms: C_18  and  C_19
REMARK    8  A    between atoms: N_21  and  C_22
REMARK    9  A    between atoms: C_22  and  C_23
REMARK   10  A    between atoms: C_23  and  C_24
REMARK   11  A    between atoms: C_24  and  C_25
REMARK   12  A    between atoms: C_25  and  C_26
REMARK   13  A    between atoms: C_26  and  C_27
REMARK   14  A    between atoms: C_27  and  C_28
REMARK   15  A    between atoms: C_28  and  N_29
REMARK   16  A    between atoms: N_29  and  C_30
REMARK   17  A    between atoms: C_45  and  C_46
REMARK                            x       y       z     vdW  Elec       q    Type
REMARK                         _______ _______ _______ _____ _____    ______ ____
ROOT
ATOM      1  C   UNL A   1      40.027 -15.883 -39.651  0.00  0.00    +0.215 C 
ATOM      2  O   UNL A   1      39.199 -15.962 -40.553  0.00  0.00    -0.276 OA
ATOM      3  N   UNL A   1      39.903 -16.532 -38.444  0.00  0.00    -0.315 N 
ATOM      4  H   UNL A   1      40.631 -16.468 -37.784  0.00  0.00    +0.000 HD
ENDROOT
BRANCH   1   5
ATOM      5  C   UNL A   1      41.291 -15.076 -39.806  0.00  0.00    +0.039 C 
BRANCH   5   6
ATOM      6  C   UNL A   1      42.455 -15.809 -39.164  0.00  0.00    +0.020 C 
BRANCH   6   9
ATOM      7  C   UNL A   1      44.373 -16.899 -40.257  0.00  0.00    +0.246 C 
ATOM      8  O   UNL A   1      45.172 -16.070 -39.833  0.00  0.00    -0.270 OA
ATOM      9  N   UNL A   1      43.006 -16.811 -40.061  0.00  0.00    -0.311 N 
ATOM     10  H   UNL A   1      42.404 -17.430 -40.532  0.00  0.00    +0.000 HD
BRANCH   7  16
ATOM     11  C   UNL A   1      46.006 -18.798 -40.515  0.00  0.00    +0.044 A 
ATOM     12  C   UNL A   1      46.352 -19.999 -41.158  0.00  0.00    -0.040 A 
ATOM     13  C   UNL A   1      45.646 -20.459 -42.273  0.00  0.00    -0.060 A 
ATOM     14  C   UNL A   1      44.557 -19.739 -42.755  0.00  0.00    -0.061 A 
ATOM     15  C   UNL A   1      44.157 -18.573 -42.105  0.00  0.00    -0.048 A 
ATOM     16  C   UNL A   1      44.854 -18.118 -40.971  0.00  0.00    +0.058 A 
BRANCH  11  17
ATOM     17  N   UNL A   1      46.697 -18.379 -39.346  0.00  0.00    -0.314 N 
ATOM     18  H   UNL A   1      47.340 -17.643 -39.470  0.00  0.00    +0.000 HD
BRANCH  17  24
ATOM     19  C   UNL A   1      47.449 -17.808 -34.436  0.00  0.00    -0.039 C 
ATOM     20  C   UNL A   1      47.003 -18.615 -35.625  0.00  0.00    -0.046 A 
ATOM     21  C   UNL A   1      46.567 -19.933 -35.419  0.00  0.00    -0.058 A 
ATOM     22  C   UNL A   1      46.173 -20.726 -36.491  0.00  0.00    -0.060 A 
ATOM     23  C   UNL A   1      46.201 -20.209 -37.784  0.00  0.00    -0.040 A 
ATOM     24  C   UNL A   1      46.583 -18.881 -38.022  0.00  0.00    +0.035 A 
ATOM     25  C   UNL A   1      46.999 -18.076 -36.934  0.00  0.00    -0.026 A 
ATOM     26  C   UNL A   1      47.484 -16.669 -37.189  0.00  0.00    -0.038 C 
ENDBRANCH  17  24
ENDBRANCH  11  17
ENDBRANCH   7  16
ENDBRANCH   6   9
ENDBRANCH   5   6
ENDBRANCH   1   5
BRANCH   3  27
ATOM     27  C   UNL A   1      38.720 -17.307 -38.124  0.00  0.00    +0.012 C 
BRANCH  27  28
ATOM     28  C   UNL A   1      38.489 -17.378 -36.615  0.00  0.00    -0.037 C 
BRANCH  28  29
ATOM     29  C   UNL A   1      39.517 -18.275 -35.923  0.00  0.00    -0.052 C 
BRANCH  29  30
ATOM     30  C   UNL A   1      38.826 -19.432 -35.196  0.00  0.00    -0.053 C 
BRANCH  30  31
ATOM     31  C   UNL A   1      39.193 -19.521 -33.710  0.00  0.00    -0.052 C 
BRANCH  31  32
ATOM     32  C   UNL A   1      39.901 -20.817 -33.305  0.00  0.00    -0.037 C 
BRANCH  32  33
ATOM     33  C   UNL A   1      40.277 -21.714 -34.483  0.00  0.00    +0.009 C 
BRANCH  33  34
ATOM     34  N   UNL A   1      41.727 -21.716 -34.741  0.00  0.00    -0.343 N 
ATOM     35  H   UNL A   1      42.346 -22.312 -34.258  0.00  0.00    +0.000 HD
BRANCH  34  36
ATOM     36  C   UNL A   1      42.174 -20.801 -35.732  0.00  0.00    +0.041 A 
ATOM     37  C   UNL A   1      42.003 -21.093 -37.104  0.00  0.00    -0.005 A 
ATOM     38  C   UNL A   1      42.387 -20.115 -38.028  0.00  0.00    +0.047 A 
ATOM     39  N   UNL A   1      42.876 -18.905 -37.671  0.00  0.00    -0.251 NA
ATOM     40  C   UNL A   1      43.063 -18.637 -36.375  0.00  0.00    +0.074 A 
ATOM     41  C   UNL A   1      43.607 -17.404 -36.044  0.00  0.00    -0.017 A 
ATOM     42  C   UNL A   1      43.869 -17.059 -34.722  0.00  0.00    +0.043 A 
ATOM     43 CL   UNL A   1      44.549 -15.522 -34.354  0.00  0.00    -0.083 Cl
ATOM     44  C   UNL A   1      43.595 -17.954 -33.699  0.00  0.00    -0.043 A 
ATOM     45  C   UNL A   1      43.043 -19.194 -34.014  0.00  0.00    -0.049 A 
ATOM     46  C   UNL A   1      42.743 -19.552 -35.352  0.00  0.00    +0.022 A 
ATOM     47  C   UNL A   1      42.222 -20.314 -39.514  0.00  0.00    -0.010 C 
ATOM     48  C   UNL A   1      42.118 -21.778 -39.919  0.00  0.00    -0.047 C 
ATOM     49  C   UNL A   1      41.084 -22.474 -39.050  0.00  0.00    -0.049 C 
ATOM     50  C   UNL A   1      41.509 -22.439 -37.582  0.00  0.00    -0.024 C 
ENDBRANCH  34  36
ENDBRANCH  33  34
ENDBRANCH  32  33
ENDBRANCH  31  32
ENDBRANCH  30  31
ENDBRANCH  29  30
ENDBRANCH  28  29
ENDBRANCH  27  28
ENDBRANCH   3  27
TORSDOF 15
ENDMDL
MODEL 4
REMARK VINA RESULT:    -6.540     16.281     20.261
REMARK INTER + INTRA:         -18.215
REMARK INTER:                 -12.587
REMARK INTRA:                  -5.628
REMARK UNBOUND:                -5.940
REMARK  Name = cpd16.pdb
REMARK  17 active torsions:
REMARK  status: ('A' for Active; 'I' for Inactive)
REMARK    1  A    between atoms: C_1  and  C_2
REMARK    2  A    between atoms: C_6  and  N_7
REMARK    3  A    between atoms: N_7  and  C_8
REMARK    4  A    between atoms: C_13  and  C_14
REMARK    5  A    between atoms: N_16  and  C_17
REMARK    6  A    between atoms: C_17  and  C_18
REMARK    7  A    between atoms: C_18  and  C_19
REMARK    8  A    between atoms: N_21  and  C_22
REMARK    9  A    between atoms: C_22  and  C_23
REMARK   10  A    between atoms: C_23  and  C_24
REMARK   11  A    between atoms: C_24  and  C_25
REMARK   12  A    between atoms: C_25  and  C_26
REMARK   13  A    between atoms: C_26  and  C_27
REMARK   14  A    between atoms: C_27  and  C_28
REMARK   15  A    between atoms: C_28  and  N_29
REMARK   16  A    between atoms: N_29  and  C_30
REMARK   17  A    between atoms: C_45  and  C_46
REMARK                            x       y       z     vdW  Elec       q    Type
REMARK                         _______ _______ _______ _____ _____    ______ ____
ROOT
ATOM      1  C   UNL A   1      39.300 -17.222 -33.922  0.00  0.00    +0.215 C 
ATOM      2  O   UNL A   1      40.229 -18.022 -33.868  0.00  0.00    -0.276 OA
ATOM      3  N   UNL A   1      38.863 -16.638 -35.089  0.00  0.00    -0.315 N 
ATOM      4  H   UNL A   1      38.078 -16.046 -35.067  0.00  0.00    +0.000 HD
ENDROOT
BRANCH   1   5
ATOM      5  C   UNL A   1      38.525 -16.826 -32.691  0.00  0.00    +0.039 C 
BRANCH   5   6
ATOM      6  C   UNL A   1      37.197 -17.561 -32.658  0.00  0.00    +0.020 C 
BRANCH   6   9
ATOM      7  C   UNL A   1      37.162 -19.649 -33.962  0.00  0.00    +0.246 C 
ATOM      8  O   UNL A   1      36.653 -19.110 -34.940  0.00  0.00    -0.270 OA
ATOM      9  N   UNL A   1      37.386 -18.998 -32.762  0.00  0.00    -0.311 N 
ATOM     10  H   UNL A   1      37.675 -19.511 -31.974  0.00  0.00    +0.000 HD
BRANCH   7  16
ATOM     11  C   UNL A   1      38.677 -21.408 -34.936  0.00  0.00    +0.044 A 
ATOM     12  C   UNL A   1      39.164 -22.726 -34.893  0.00  0.00    -0.040 A 
ATOM     13  C   UNL A   1      38.582 -23.690 -34.065  0.00  0.00    -0.060 A 
ATOM     14  C   UNL A   1      37.514 -23.350 -33.241  0.00  0.00    -0.061 A 
ATOM     15  C   UNL A   1      37.046 -22.037 -33.222  0.00  0.00    -0.048 A 
ATOM     16  C   UNL A   1      37.642 -21.060 -34.040  0.00  0.00    +0.058 A 
BRANCH  11  17
ATOM     17  N   UNL A   1      39.322 -20.426 -35.738  0.00  0.00    -0.314 N 
ATOM     18  H   UNL A   1      38.838 -19.575 -35.843  0.00  0.00    +0.000 HD
BRANCH  17  24
ATOM     19  C   UNL A   1      41.920 -21.127 -39.952  0.00  0.00    -0.039 C 
ATOM     20  C   UNL A   1      41.836 -20.907 -38.465  0.00  0.00    -0.046 A 
ATOM     21  C   UNL A   1      43.024 -20.896 -37.719  0.00  0.00    -0.058 A 
ATOM     22  C   UNL A   1      42.994 -20.727 -36.339  0.00  0.00    -0.060 A 
ATOM     23  C   UNL A   1      41.775 -20.556 -35.687  0.00  0.00    -0.040 A 
ATOM     24  C   UNL A   1      40.572 -20.511 -36.406  0.00  0.00    +0.035 A 
ATOM     25  C   UNL A   1      40.599 -20.699 -37.809  0.00  0.00    -0.026 A 
ATOM     26  C   UNL A   1      39.302 -20.728 -38.585  0.00  0.00    -0.038 C 
ENDBRANCH  17  24
ENDBRANCH  11  17
ENDBRANCH   7  16
ENDBRANCH   6   9
ENDBRANCH   5   6
ENDBRANCH   1   5
BRANCH   3  27
ATOM     27  C   UNL A   1      39.538 -16.880 -36.349  0.00  0.00    +0.012 C 
BRANCH  27  28
ATOM     28  C   UNL A   1      40.807 -16.037 -36.475  0.00  0.00    -0.037 C 
BRANCH  28  29
ATOM     29  C   UNL A   1      42.044 -16.905 -36.712  0.00  0.00    -0.052 C 
BRANCH  29  30
ATOM     30  C   UNL A   1      42.118 -17.359 -38.174  0.00  0.00    -0.053 C 
BRANCH  30  31
ATOM     31  C   UNL A   1      42.155 -16.195 -39.170  0.00  0.00    -0.052 C 
BRANCH  31  32
ATOM     32  C   UNL A   1      42.958 -16.471 -40.444  0.00  0.00    -0.037 C 
BRANCH  32  33
ATOM     33  C   UNL A   1      43.649 -17.833 -40.459  0.00  0.00    +0.009 C 
BRANCH  33  34
ATOM     34  N   UNL A   1      45.094 -17.728 -40.190  0.00  0.00    -0.343 N 
ATOM     35  H   UNL A   1      45.621 -16.938 -40.453  0.00  0.00    +0.000 HD
BRANCH  34  36
ATOM     36  C   UNL A   1      45.676 -18.841 -39.527  0.00  0.00    +0.041 A 
ATOM     37  C   UNL A   1      45.882 -18.813 -38.129  0.00  0.00    -0.005 A 
ATOM     38  C   UNL A   1      46.380 -19.972 -37.523  0.00  0.00    +0.047 A 
ATOM     39  N   UNL A   1      46.639 -21.113 -38.202  0.00  0.00    -0.251 NA
ATOM     40  C   UNL A   1      46.470 -21.134 -39.528  0.00  0.00    +0.074 A 
ATOM     41  C   UNL A   1      46.786 -22.306 -40.199  0.00  0.00    -0.017 A 
ATOM     42  C   UNL A   1      46.674 -22.401 -41.583  0.00  0.00    +0.043 A 
ATOM     43 CL   UNL A   1      47.080 -23.871 -42.379  0.00  0.00    -0.083 Cl
ATOM     44  C   UNL A   1      46.249 -21.310 -42.326  0.00  0.00    -0.043 A 
ATOM     45  C   UNL A   1      45.922 -20.127 -41.666  0.00  0.00    -0.049 A 
ATOM     46  C   UNL A   1      46.002 -20.021 -40.255  0.00  0.00    +0.022 A 
ATOM     47  C   UNL A   1      46.611 -20.058 -36.035  0.00  0.00    -0.010 C 
ATOM     48  C   UNL A   1      46.761 -18.698 -35.368  0.00  0.00    -0.047 C 
ATOM     49  C   UNL A   1      45.622 -17.790 -35.800  0.00  0.00    -0.049 C 
ATOM     50  C   UNL A   1      45.663 -17.562 -37.311  0.00  0.00    -0.024 C 
ENDBRANCH  34  36
ENDBRANCH  33  34
ENDBRANCH  32  33
ENDBRANCH  31  32
ENDBRANCH  30  31
ENDBRANCH  29  30
ENDBRANCH  28  29
ENDBRANCH  27  28
ENDBRANCH   3  27
TORSDOF 15
ENDMDL
MODEL 5
REMARK VINA RESULT:    -6.384     16.578     21.108
REMARK INTER + INTRA:         -17.922
REMARK INTER:                 -12.188
REMARK INTRA:                  -5.734
REMARK UNBOUND:                -5.940
REMARK  Name = cpd16.pdb
REMARK  17 active torsions:
REMARK  status: ('A' for Active; 'I' for Inactive)
REMARK    1  A    between atoms: C_1  and  C_2
REMARK    2  A    between atoms: C_6  and  N_7
REMARK    3  A    between atoms: N_7  and  C_8
REMARK    4  A    between atoms: C_13  and  C_14
REMARK    5  A    between atoms: N_16  and  C_17
REMARK    6  A    between atoms: C_17  and  C_18
REMARK    7  A    between atoms: C_18  and  C_19
REMARK    8  A    between atoms: N_21  and  C_22
REMARK    9  A    between atoms: C_22  and  C_23
REMARK   10  A    between atoms: C_23  and  C_24
REMARK   11  A    between atoms: C_24  and  C_25
REMARK   12  A    between atoms: C_25  and  C_26
REMARK   13  A    between atoms: C_26  and  C_27
REMARK   14  A    between atoms: C_27  and  C_28
REMARK   15  A    between atoms: C_28  and  N_29
REMARK   16  A    between atoms: N_29  and  C_30
REMARK   17  A    between atoms: C_45  and  C_46
REMARK                            x       y       z     vdW  Elec       q    Type
REMARK                         _______ _______ _______ _____ _____    ______ ____
ROOT
ATOM      1  C   UNL A   1      45.492 -19.029 -34.521  0.00  0.00    +0.215 C 
ATOM      2  O   UNL A   1      45.633 -20.215 -34.237  0.00  0.00    -0.276 OA
ATOM      3  N   UNL A   1      44.267 -18.406 -34.603  0.00  0.00    -0.315 N 
ATOM      4  H   UNL A   1      44.229 -17.439 -34.783  0.00  0.00    +0.000 HD
ENDROOT
BRANCH   1   5
ATOM      5  C   UNL A   1      46.675 -18.131 -34.781  0.00  0.00    +0.039 C 
BRANCH   5   6
ATOM      6  C   UNL A   1      47.615 -18.789 -35.774  0.00  0.00    +0.020 C 
BRANCH   6   9
ATOM      7  C   UNL A   1      46.811 -19.090 -38.082  0.00  0.00    +0.246 C 
ATOM      8  O   UNL A   1      47.209 -17.985 -38.437  0.00  0.00    -0.270 OA
ATOM      9  N   UNL A   1      46.881 -19.543 -36.776  0.00  0.00    -0.311 N 
ATOM     10  H   UNL A   1      46.430 -20.381 -36.525  0.00  0.00    +0.000 HD
BRANCH   7  16
ATOM     11  C   UNL A   1      45.262 -19.661 -39.982  0.00  0.00    +0.044 A 
ATOM     12  C   UNL A   1      44.871 -20.578 -40.973  0.00  0.00    -0.040 A 
ATOM     13  C   UNL A   1      45.391 -21.875 -41.011  0.00  0.00    -0.060 A 
ATOM     14  C   UNL A   1      46.336 -22.276 -40.072  0.00  0.00    -0.061 A 
ATOM     15  C   UNL A   1      46.783 -21.370 -39.112  0.00  0.00    -0.048 A 
ATOM     16  C   UNL A   1      46.276 -20.058 -39.083  0.00  0.00    +0.058 A 
BRANCH  11  17
ATOM     17  N   UNL A   1      44.769 -18.327 -39.997  0.00  0.00    -0.314 N 
ATOM     18  H   UNL A   1      45.350 -17.662 -40.432  0.00  0.00    +0.000 HD
BRANCH  17  24
ATOM     19  C   UNL A   1      40.880 -15.204 -40.333  0.00  0.00    -0.039 C 
ATOM     20  C   UNL A   1      41.676 -16.260 -39.614  0.00  0.00    -0.046 A 
ATOM     21  C   UNL A   1      41.250 -16.674 -38.343  0.00  0.00    -0.058 A 
ATOM     22  C   UNL A   1      41.970 -17.625 -37.628  0.00  0.00    -0.060 A 
ATOM     23  C   UNL A   1      43.122 -18.182 -38.180  0.00  0.00    -0.040 A 
ATOM     24  C   UNL A   1      43.548 -17.829 -39.468  0.00  0.00    +0.035 A 
ATOM     25  C   UNL A   1      42.826 -16.850 -40.191  0.00  0.00    -0.026 A 
ATOM     26  C   UNL A   1      43.320 -16.406 -41.548  0.00  0.00    -0.038 C 
ENDBRANCH  17  24
ENDBRANCH  11  17
ENDBRANCH   7  16
ENDBRANCH   6   9
ENDBRANCH   5   6
ENDBRANCH   1   5
BRANCH   3  27
ATOM     27  C   UNL A   1      43.033 -19.146 -34.428  0.00  0.00    +0.012 C 
BRANCH  27  28
ATOM     28  C   UNL A   1      42.306 -18.728 -33.151  0.00  0.00    -0.037 C 
BRANCH  28  29
ATOM     29  C   UNL A   1      42.158 -17.208 -33.053  0.00  0.00    -0.052 C 
BRANCH  29  30
ATOM     30  C   UNL A   1      41.282 -16.672 -34.189  0.00  0.00    -0.053 C 
BRANCH  30  31
ATOM     31  C   UNL A   1      39.813 -17.092 -34.073  0.00  0.00    -0.052 C 
BRANCH  31  32
ATOM     32  C   UNL A   1      39.193 -17.611 -35.373  0.00  0.00    -0.037 C 
BRANCH  32  33
ATOM     33  C   UNL A   1      37.920 -18.431 -35.170  0.00  0.00    +0.009 C 
BRANCH  33  34
ATOM     34  N   UNL A   1      37.852 -19.589 -36.079  0.00  0.00    -0.343 N 
ATOM     35  H   UNL A   1      37.059 -19.778 -36.631  0.00  0.00    +0.000 HD
BRANCH  34  36
ATOM     36  C   UNL A   1      39.009 -20.414 -36.106  0.00  0.00    +0.041 A 
ATOM     37  C   UNL A   1      39.752 -20.565 -37.298  0.00  0.00    -0.005 A 
ATOM     38  C   UNL A   1      40.927 -21.323 -37.238  0.00  0.00    +0.047 A 
ATOM     39  N   UNL A   1      41.395 -21.881 -36.098  0.00  0.00    -0.251 NA
ATOM     40  C   UNL A   1      40.680 -21.761 -34.974  0.00  0.00    +0.074 A 
ATOM     41  C   UNL A   1      41.166 -22.382 -33.833  0.00  0.00    -0.017 A 
ATOM     42  C   UNL A   1      40.466 -22.338 -32.631  0.00  0.00    +0.043 A 
ATOM     43 CL   UNL A   1      41.100 -23.126 -31.239  0.00  0.00    -0.083 Cl
ATOM     44  C   UNL A   1      39.252 -21.673 -32.554  0.00  0.00    -0.043 A 
ATOM     45  C   UNL A   1      38.754 -21.038 -33.690  0.00  0.00    -0.049 A 
ATOM     46  C   UNL A   1      39.466 -21.048 -34.915  0.00  0.00    +0.022 A 
ATOM     47  C   UNL A   1      41.809 -21.524 -38.445  0.00  0.00    -0.010 C 
ATOM     48  C   UNL A   1      41.082 -21.306 -39.766  0.00  0.00    -0.047 C 
ATOM     49  C   UNL A   1      40.329 -19.987 -39.721  0.00  0.00    -0.049 C 
ATOM     50  C   UNL A   1      39.270 -20.013 -38.619  0.00  0.00    -0.024 C 
ENDBRANCH  34  36
ENDBRANCH  33  34
ENDBRANCH  32  33
ENDBRANCH  31  32
ENDBRANCH  30  31
ENDBRANCH  29  30
ENDBRANCH  28  29
ENDBRANCH  27  28
ENDBRANCH   3  27
TORSDOF 15
ENDMDL
MODEL 6
REMARK VINA RESULT:    -6.357     16.897     21.088
REMARK INTER + INTRA:         -17.870
REMARK INTER:                 -11.408
REMARK INTRA:                  -6.463
REMARK UNBOUND:                -5.940
REMARK  Name = cpd16.pdb
REMARK  17 active torsions:
REMARK  status: ('A' for Active; 'I' for Inactive)
REMARK    1  A    between atoms: C_1  and  C_2
REMARK    2  A    between atoms: C_6  and  N_7
REMARK    3  A    between atoms: N_7  and  C_8
REMARK    4  A    between atoms: C_13  and  C_14
REMARK    5  A    between atoms: N_16  and  C_17
REMARK    6  A    between atoms: C_17  and  C_18
REMARK    7  A    between atoms: C_18  and  C_19
REMARK    8  A    between atoms: N_21  and  C_22
REMARK    9  A    between atoms: C_22  and  C_23
REMARK   10  A    between atoms: C_23  and  C_24
REMARK   11  A    between atoms: C_24  and  C_25
REMARK   12  A    between atoms: C_25  and  C_26
REMARK   13  A    between atoms: C_26  and  C_27
REMARK   14  A    between atoms: C_27  and  C_28
REMARK   15  A    between atoms: C_28  and  N_29
REMARK   16  A    between atoms: N_29  and  C_30
REMARK   17  A    between atoms: C_45  and  C_46
REMARK                            x       y       z     vdW  Elec       q    Type
REMARK                         _______ _______ _______ _____ _____    ______ ____
ROOT
ATOM      1  C   UNL A   1      43.268 -13.516 -33.215  0.00  0.00    +0.215 C 
ATOM      2  O   UNL A   1      43.396 -13.767 -34.409  0.00  0.00    -0.276 OA
ATOM      3  N   UNL A   1      42.160 -12.899 -32.681  0.00  0.00    -0.315 N 
ATOM      4  H   UNL A   1      42.099 -12.775 -31.707  0.00  0.00    +0.000 HD
ENDROOT
BRANCH   1   5
ATOM      5  C   UNL A   1      44.323 -13.897 -32.209  0.00  0.00    +0.039 C 
BRANCH   5   6
ATOM      6  C   UNL A   1      44.116 -15.332 -31.760  0.00  0.00    +0.020 C 
BRANCH   6   9
ATOM      7  C   UNL A   1      44.586 -17.565 -32.685  0.00  0.00    +0.246 C 
ATOM      8  O   UNL A   1      45.031 -17.986 -31.622  0.00  0.00    -0.270 OA
ATOM      9  N   UNL A   1      44.195 -16.252 -32.882  0.00  0.00    -0.311 N 
ATOM     10  H   UNL A   1      43.970 -15.940 -33.787  0.00  0.00    +0.000 HD
BRANCH   7  16
ATOM     11  C   UNL A   1      43.390 -19.501 -33.762  0.00  0.00    +0.044 A 
ATOM     12  C   UNL A   1      43.159 -20.274 -34.913  0.00  0.00    -0.040 A 
ATOM     13  C   UNL A   1      43.940 -20.121 -36.062  0.00  0.00    -0.060 A 
ATOM     14  C   UNL A   1      44.955 -19.170 -36.095  0.00  0.00    -0.061 A 
ATOM     15  C   UNL A   1      45.171 -18.352 -34.988  0.00  0.00    -0.048 A 
ATOM     16  C   UNL A   1      44.374 -18.490 -33.837  0.00  0.00    +0.058 A 
BRANCH  11  17
ATOM     17  N   UNL A   1      42.546 -19.627 -32.625  0.00  0.00    -0.314 N 
ATOM     18  H   UNL A   1      42.994 -19.882 -31.786  0.00  0.00    +0.000 HD
BRANCH  17  24
ATOM     19  C   UNL A   1      37.932 -21.545 -32.440  0.00  0.00    -0.039 C 
ATOM     20  C   UNL A   1      38.884 -20.381 -32.503  0.00  0.00    -0.046 A 
ATOM     21  C   UNL A   1      38.356 -19.083 -32.588  0.00  0.00    -0.058 A 
ATOM     22  C   UNL A   1      39.197 -17.979 -32.678  0.00  0.00    -0.060 A 
ATOM     23  C   UNL A   1      40.578 -18.157 -32.675  0.00  0.00    -0.040 A 
ATOM     24  C   UNL A   1      41.141 -19.434 -32.540  0.00  0.00    +0.035 A 
ATOM     25  C   UNL A   1      40.287 -20.561 -32.464  0.00  0.00    -0.026 A 
ATOM     26  C   UNL A   1      40.884 -21.947 -32.395  0.00  0.00    -0.038 C 
ENDBRANCH  17  24
ENDBRANCH  11  17
ENDBRANCH   7  16
ENDBRANCH   6   9
ENDBRANCH   5   6
ENDBRANCH   1   5
BRANCH   3  27
ATOM     27  C   UNL A   1      41.081 -12.427 -33.526  0.00  0.00    +0.012 C 
BRANCH  27  28
ATOM     28  C   UNL A   1      39.781 -13.181 -33.247  0.00  0.00    -0.037 C 
BRANCH  28  29
ATOM     29  C   UNL A   1      39.839 -14.622 -33.757  0.00  0.00    -0.052 C 
BRANCH  29  30
ATOM     30  C   UNL A   1      40.010 -14.654 -35.278  0.00  0.00    -0.053 C 
BRANCH  30  31
ATOM     31  C   UNL A   1      40.218 -16.066 -35.837  0.00  0.00    -0.052 C 
BRANCH  31  32
ATOM     32  C   UNL A   1      41.666 -16.562 -35.794  0.00  0.00    -0.037 C 
BRANCH  32  33
ATOM     33  C   UNL A   1      42.247 -16.901 -37.165  0.00  0.00    +0.009 C 
BRANCH  33  34
ATOM     34  N   UNL A   1      41.255 -17.539 -38.048  0.00  0.00    -0.343 N 
ATOM     35  H   UNL A   1      40.499 -17.041 -38.436  0.00  0.00    +0.000 HD
BRANCH  34  36
ATOM     36  C   UNL A   1      41.461 -18.922 -38.302  0.00  0.00    +0.041 A 
ATOM     37  C   UNL A   1      40.715 -19.897 -37.602  0.00  0.00    -0.005 A 
ATOM     38  C   UNL A   1      40.904 -21.237 -37.957  0.00  0.00    +0.047 A 
ATOM     39  N   UNL A   1      41.733 -21.634 -38.950  0.00  0.00    -0.251 NA
ATOM     40  C   UNL A   1      42.459 -20.715 -39.597  0.00  0.00    +0.074 A 
ATOM     41  C   UNL A   1      43.331 -21.159 -40.580  0.00  0.00    -0.017 A 
ATOM     42  C   UNL A   1      44.150 -20.274 -41.274  0.00  0.00    +0.043 A 
ATOM     43 CL   UNL A   1      45.222 -20.865 -42.484  0.00  0.00    -0.083 Cl
ATOM     44  C   UNL A   1      44.116 -18.918 -40.987  0.00  0.00    -0.043 A 
ATOM     45  C   UNL A   1      43.240 -18.456 -40.007  0.00  0.00    -0.049 A 
ATOM     46  C   UNL A   1      42.378 -19.338 -39.309  0.00  0.00    +0.022 A 
ATOM     47  C   UNL A   1      40.139 -22.354 -37.293  0.00  0.00    -0.010 C 
ATOM     48  C   UNL A   1      39.585 -21.976 -35.926  0.00  0.00    -0.047 C 
ATOM     49  C   UNL A   1      38.850 -20.650 -36.024  0.00  0.00    -0.049 C 
ATOM     50  C   UNL A   1      39.807 -19.537 -36.449  0.00  0.00    -0.024 C 
ENDBRANCH  34  36
ENDBRANCH  33  34
ENDBRANCH  32  33
ENDBRANCH  31  32
ENDBRANCH  30  31
ENDBRANCH  29  30
ENDBRANCH  28  29
ENDBRANCH  27  28
ENDBRANCH   3  27
TORSDOF 15
ENDMDL
MODEL 7
REMARK VINA RESULT:    -6.340     16.776     20.693
REMARK INTER + INTRA:         -17.840
REMARK INTER:                 -11.129
REMARK INTRA:                  -6.710
REMARK UNBOUND:                -5.940
REMARK  Name = cpd16.pdb
REMARK  17 active torsions:
REMARK  status: ('A' for Active; 'I' for Inactive)
REMARK    1  A    between atoms: C_1  and  C_2
REMARK    2  A    between atoms: C_6  and  N_7
REMARK    3  A    between atoms: N_7  and  C_8
REMARK    4  A    between atoms: C_13  and  C_14
REMARK    5  A    between atoms: N_16  and  C_17
REMARK    6  A    between atoms: C_17  and  C_18
REMARK    7  A    between atoms: C_18  and  C_19
REMARK    8  A    between atoms: N_21  and  C_22
REMARK    9  A    between atoms: C_22  and  C_23
REMARK   10  A    between atoms: C_23  and  C_24
REMARK   11  A    between atoms: C_24  and  C_25
REMARK   12  A    between atoms: C_25  and  C_26
REMARK   13  A    between atoms: C_26  and  C_27
REMARK   14  A    between atoms: C_27  and  C_28
REMARK   15  A    between atoms: C_28  and  N_29
REMARK   16  A    between atoms: N_29  and  C_30
REMARK   17  A    between atoms: C_45  and  C_46
REMARK                            x       y       z     vdW  Elec       q    Type
REMARK                         _______ _______ _______ _____ _____    ______ ____
ROOT
ATOM      1  C   UNL A   1      47.115 -19.015 -36.867  0.00  0.00    +0.215 C 
ATOM      2  O   UNL A   1      46.815 -17.855 -37.132  0.00  0.00    -0.276 OA
ATOM      3  N   UNL A   1      47.282 -19.995 -37.817  0.00  0.00    -0.315 N 
ATOM      4  H   UNL A   1      47.575 -20.893 -37.539  0.00  0.00    +0.000 HD
ENDROOT
BRANCH   1   5
ATOM      5  C   UNL A   1      47.360 -19.463 -35.448  0.00  0.00    +0.039 C 
BRANCH   5   6
ATOM      6  C   UNL A   1      46.141 -20.198 -34.920  0.00  0.00    +0.020 C 
BRANCH   6   9
ATOM      7  C   UNL A   1      44.262 -18.762 -34.236  0.00  0.00    +0.246 C 
ATOM      8  O   UNL A   1      44.563 -18.818 -33.048  0.00  0.00    -0.270 OA
ATOM      9  N   UNL A   1      44.918 -19.475 -35.223  0.00  0.00    -0.311 N 
ATOM     10  H   UNL A   1      44.552 -19.493 -36.137  0.00  0.00    +0.000 HD
BRANCH   7  16
ATOM     11  C   UNL A   1      41.837 -18.096 -34.356  0.00  0.00    +0.044 A 
ATOM     12  C   UNL A   1      40.876 -17.140 -34.727  0.00  0.00    -0.040 A 
ATOM     13  C   UNL A   1      41.217 -16.025 -35.498  0.00  0.00    -0.060 A 
ATOM     14  C   UNL A   1      42.536 -15.826 -35.892  0.00  0.00    -0.061 A 
ATOM     15  C   UNL A   1      43.521 -16.728 -35.492  0.00  0.00    -0.048 A 
ATOM     16  C   UNL A   1      43.183 -17.841 -34.700  0.00  0.00    +0.058 A 
BRANCH  11  17
ATOM     17  N   UNL A   1      41.483 -19.190 -33.520  0.00  0.00    -0.314 N 
ATOM     18  H   UNL A   1      41.790 -19.132 -32.586  0.00  0.00    +0.000 HD
BRANCH  17  24
ATOM     19  C   UNL A   1      37.310 -21.914 -33.114  0.00  0.00    -0.039 C 
ATOM     20  C   UNL A   1      38.717 -21.706 -33.607  0.00  0.00    -0.046 A 
ATOM     21  C   UNL A   1      39.339 -22.742 -34.321  0.00  0.00    -0.058 A 
ATOM     22  C   UNL A   1      40.648 -22.607 -34.770  0.00  0.00    -0.060 A 
ATOM     23  C   UNL A   1      41.350 -21.430 -34.520  0.00  0.00    -0.040 A 
ATOM     24  C   UNL A   1      40.743 -20.356 -33.854  0.00  0.00    +0.035 A 
ATOM     25  C   UNL A   1      39.416 -20.496 -33.382  0.00  0.00    -0.026 A 
ATOM     26  C   UNL A   1      38.778 -19.374 -32.597  0.00  0.00    -0.038 C 
ENDBRANCH  17  24
ENDBRANCH  11  17
ENDBRANCH   7  16
ENDBRANCH   6   9
ENDBRANCH   5   6
ENDBRANCH   1   5
BRANCH   3  27
ATOM     27  C   UNL A   1      47.034 -19.732 -39.221  0.00  0.00    +0.012 C 
BRANCH  27  28
ATOM     28  C   UNL A   1      46.504 -20.974 -39.938  0.00  0.00    -0.037 C 
BRANCH  28  29
ATOM     29  C   UNL A   1      45.923 -20.633 -41.312  0.00  0.00    -0.052 C 
BRANCH  29  30
ATOM     30  C   UNL A   1      44.416 -20.904 -41.347  0.00  0.00    -0.053 C 
BRANCH  30  31
ATOM     31  C   UNL A   1      43.888 -21.567 -40.070  0.00  0.00    -0.052 C 
BRANCH  31  32
ATOM     32  C   UNL A   1      42.396 -21.342 -39.804  0.00  0.00    -0.037 C 
BRANCH  32  33
ATOM     33  C   UNL A   1      42.016 -21.383 -38.325  0.00  0.00    +0.009 C 
BRANCH  33  34
ATOM     34  N   UNL A   1      42.322 -20.116 -37.637  0.00  0.00    -0.343 N 
ATOM     35  H   UNL A   1      42.948 -20.068 -36.878  0.00  0.00    +0.000 HD
BRANCH  34  36
ATOM     36  C   UNL A   1      41.654 -18.969 -38.142  0.00  0.00    +0.041 A 
ATOM     37  C   UNL A   1      42.348 -18.026 -38.934  0.00  0.00    -0.005 A 
ATOM     38  C   UNL A   1      41.615 -16.963 -39.471  0.00  0.00    +0.047 A 
ATOM     39  N   UNL A   1      40.281 -16.817 -39.297  0.00  0.00    -0.251 NA
ATOM     40  C   UNL A   1      39.626 -17.692 -38.527  0.00  0.00    +0.074 A 
ATOM     41  C   UNL A   1      38.267 -17.489 -38.334  0.00  0.00    -0.017 A 
ATOM     42  C   UNL A   1      37.518 -18.331 -37.518  0.00  0.00    +0.043 A 
ATOM     43 CL   UNL A   1      35.836 -18.043 -37.299  0.00  0.00    -0.083 Cl
ATOM     44  C   UNL A   1      38.124 -19.396 -36.869  0.00  0.00    -0.043 A 
ATOM     45  C   UNL A   1      39.487 -19.617 -37.058  0.00  0.00    -0.049 A 
ATOM     46  C   UNL A   1      40.260 -18.788 -37.908  0.00  0.00    +0.022 A 
ATOM     47  C   UNL A   1      42.253 -15.918 -40.351  0.00  0.00    -0.010 C 
ATOM     48  C   UNL A   1      43.761 -15.818 -40.173  0.00  0.00    -0.047 C 
ATOM     49  C   UNL A   1      44.377 -17.205 -40.256  0.00  0.00    -0.049 C 
ATOM     50  C   UNL A   1      43.845 -18.095 -39.133  0.00  0.00    -0.024 C 
ENDBRANCH  34  36
ENDBRANCH  33  34
ENDBRANCH  32  33
ENDBRANCH  31  32
ENDBRANCH  30  31
ENDBRANCH  29  30
ENDBRANCH  28  29
ENDBRANCH  27  28
ENDBRANCH   3  27
TORSDOF 15
ENDMDL
MODEL 8
REMARK VINA RESULT:    -6.334     16.968     20.882
REMARK INTER + INTRA:         -17.828
REMARK INTER:                 -12.035
REMARK INTRA:                  -5.793
REMARK UNBOUND:                -5.940
REMARK  Name = cpd16.pdb
REMARK  17 active torsions:
REMARK  status: ('A' for Active; 'I' for Inactive)
REMARK    1  A    between atoms: C_1  and  C_2
REMARK    2  A    between atoms: C_6  and  N_7
REMARK    3  A    between atoms: N_7  and  C_8
REMARK    4  A    between atoms: C_13  and  C_14
REMARK    5  A    between atoms: N_16  and  C_17
REMARK    6  A    between atoms: C_17  and  C_18
REMARK    7  A    between atoms: C_18  and  C_19
REMARK    8  A    between atoms: N_21  and  C_22
REMARK    9  A    between atoms: C_22  and  C_23
REMARK   10  A    between atoms: C_23  and  C_24
REMARK   11  A    between atoms: C_24  and  C_25
REMARK   12  A    between atoms: C_25  and  C_26
REMARK   13  A    between atoms: C_26  and  C_27
REMARK   14  A    between atoms: C_27  and  C_28
REMARK   15  A    between atoms: C_28  and  N_29
REMARK   16  A    between atoms: N_29  and  C_30
REMARK   17  A    between atoms: C_45  and  C_46
REMARK                            x       y       z     vdW  Elec       q    Type
REMARK                         _______ _______ _______ _____ _____    ______ ____
ROOT
ATOM      1  C   UNL A   1      43.281 -16.541 -37.662  0.00  0.00    +0.215 C 
ATOM      2  O   UNL A   1      42.685 -17.020 -38.622  0.00  0.00    -0.276 OA
ATOM      3  N   UNL A   1      44.647 -16.387 -37.613  0.00  0.00    -0.315 N 
ATOM      4  H   UNL A   1      45.055 -15.947 -36.833  0.00  0.00    +0.000 HD
ENDROOT
BRANCH   1   5
ATOM      5  C   UNL A   1      42.546 -16.044 -36.443  0.00  0.00    +0.039 C 
BRANCH   5   6
ATOM      6  C   UNL A   1      41.061 -16.323 -36.585  0.00  0.00    +0.020 C 
BRANCH   6   9
ATOM      7  C   UNL A   1      40.018 -18.411 -37.369  0.00  0.00    +0.246 C 
ATOM      8  O   UNL A   1      39.425 -17.850 -38.286  0.00  0.00    -0.270 OA
ATOM      9  N   UNL A   1      40.773 -17.738 -36.425  0.00  0.00    -0.311 N 
ATOM     10  H   UNL A   1      41.117 -18.222 -35.640  0.00  0.00    +0.000 HD
BRANCH   7  16
ATOM     11  C   UNL A   1      40.907 -20.671 -38.031  0.00  0.00    +0.044 A 
ATOM     12  C   UNL A   1      40.930 -22.059 -37.811  0.00  0.00    -0.040 A 
ATOM     13  C   UNL A   1      40.030 -22.673 -36.936  0.00  0.00    -0.060 A 
ATOM     14  C   UNL A   1      39.101 -21.907 -36.239  0.00  0.00    -0.061 A 
ATOM     15  C   UNL A   1      39.091 -20.522 -36.395  0.00  0.00    -0.048 A 
ATOM     16  C   UNL A   1      40.009 -19.899 -37.261  0.00  0.00    +0.058 A 
BRANCH  11  17
ATOM     17  N   UNL A   1      41.871 -20.058 -38.877  0.00  0.00    -0.314 N 
ATOM     18  H   UNL A   1      41.819 -19.076 -38.942  0.00  0.00    +0.000 HD
BRANCH  17  24
ATOM     19  C   UNL A   1      46.643 -21.479 -39.332  0.00  0.00    -0.039 C 
ATOM     20  C   UNL A   1      45.248 -21.319 -39.874  0.00  0.00    -0.046 A 
ATOM     21  C   UNL A   1      44.997 -21.690 -41.204  0.00  0.00    -0.058 A 
ATOM     22  C   UNL A   1      43.731 -21.532 -41.758  0.00  0.00    -0.060 A 
ATOM     23  C   UNL A   1      42.696 -21.008 -40.987  0.00  0.00    -0.040 A 
ATOM     24  C   UNL A   1      42.899 -20.673 -39.640  0.00  0.00    +0.035 A 
ATOM     25  C   UNL A   1      44.190 -20.819 -39.078  0.00  0.00    -0.026 A 
ATOM     26  C   UNL A   1      44.437 -20.390 -37.651  0.00  0.00    -0.038 C 
ENDBRANCH  17  24
ENDBRANCH  11  17
ENDBRANCH   7  16
ENDBRANCH   6   9
ENDBRANCH   5   6
ENDBRANCH   1   5
BRANCH   3  27
ATOM     27  C   UNL A   1      45.497 -16.862 -38.687  0.00  0.00    +0.012 C 
BRANCH  27  28
ATOM     28  C   UNL A   1      46.928 -17.098 -38.205  0.00  0.00    -0.037 C 
BRANCH  28  29
ATOM     29  C   UNL A   1      47.005 -17.209 -36.681  0.00  0.00    -0.052 C 
BRANCH  29  30
ATOM     30  C   UNL A   1      47.492 -18.600 -36.262  0.00  0.00    -0.053 C 
BRANCH  30  31
ATOM     31  C   UNL A   1      46.804 -19.129 -34.999  0.00  0.00    -0.052 C 
BRANCH  31  32
ATOM     32  C   UNL A   1      45.370 -18.629 -34.796  0.00  0.00    -0.037 C 
BRANCH  32  33
ATOM     33  C   UNL A   1      44.457 -19.632 -34.093  0.00  0.00    +0.009 C 
BRANCH  33  34
ATOM     34  N   UNL A   1      43.995 -19.139 -32.783  0.00  0.00    -0.343 N 
ATOM     35  H   UNL A   1      44.532 -19.242 -31.963  0.00  0.00    +0.000 HD
BRANCH  34  36
ATOM     36  C   UNL A   1      42.723 -18.506 -32.781  0.00  0.00    +0.041 A 
ATOM     37  C   UNL A   1      42.625 -17.098 -32.851  0.00  0.00    -0.005 A 
ATOM     38  C   UNL A   1      41.344 -16.540 -32.930  0.00  0.00    +0.047 A 
ATOM     39  N   UNL A   1      40.212 -17.280 -32.978  0.00  0.00    -0.251 NA
ATOM     40  C   UNL A   1      40.301 -18.611 -32.886  0.00  0.00    +0.074 A 
ATOM     41  C   UNL A   1      39.120 -19.337 -32.894  0.00  0.00    -0.017 A 
ATOM     42  C   UNL A   1      39.120 -20.723 -32.766  0.00  0.00    +0.043 A 
ATOM     43 CL   UNL A   1      37.632 -21.587 -32.775  0.00  0.00    -0.083 Cl
ATOM     44  C   UNL A   1      40.315 -21.410 -32.617  0.00  0.00    -0.043 A 
ATOM     45  C   UNL A   1      41.511 -20.695 -32.614  0.00  0.00    -0.049 A 
ATOM     46  C   UNL A   1      41.532 -19.287 -32.772  0.00  0.00    +0.022 A 
ATOM     47  C   UNL A   1      41.128 -15.051 -33.036  0.00  0.00    -0.010 C 
ATOM     48  C   UNL A   1      42.310 -14.233 -32.534  0.00  0.00    -0.047 C 
ATOM     49  C   UNL A   1      43.592 -14.752 -33.163  0.00  0.00    -0.049 C 
ATOM     50  C   UNL A   1      43.839 -16.204 -32.754  0.00  0.00    -0.024 C 
ENDBRANCH  34  36
ENDBRANCH  33  34
ENDBRANCH  32  33
ENDBRANCH  31  32
ENDBRANCH  30  31
ENDBRANCH  29  30
ENDBRANCH  28  29
ENDBRANCH  27  28
ENDBRANCH   3  27
TORSDOF 15
ENDMDL
MODEL 9
REMARK VINA RESULT:    -6.307     18.232     22.305
REMARK INTER + INTRA:         -17.778
REMARK INTER:                 -10.985
REMARK INTRA:                  -6.792
REMARK UNBOUND:                -5.940
REMARK  Name = cpd16.pdb
REMARK  17 active torsions:
REMARK  status: ('A' for Active; 'I' for Inactive)
REMARK    1  A    between atoms: C_1  and  C_2
REMARK    2  A    between atoms: C_6  and  N_7
REMARK    3  A    between atoms: N_7  and  C_8
REMARK    4  A    between atoms: C_13  and  C_14
REMARK    5  A    between atoms: N_16  and  C_17
REMARK    6  A    between atoms: C_17  and  C_18
REMARK    7  A    between atoms: C_18  and  C_19
REMARK    8  A    between atoms: N_21  and  C_22
REMARK    9  A    between atoms: C_22  and  C_23
REMARK   10  A    between atoms: C_23  and  C_24
REMARK   11  A    between atoms: C_24  and  C_25
REMARK   12  A    between atoms: C_25  and  C_26
REMARK   13  A    between atoms: C_26  and  C_27
REMARK   14  A    between atoms: C_27  and  C_28
REMARK   15  A    between atoms: C_28  and  N_29
REMARK   16  A    between atoms: N_29  and  C_30
REMARK   17  A    between atoms: C_45  and  C_46
REMARK                            x       y       z     vdW  Elec       q    Type
REMARK                         _______ _______ _______ _____ _____    ______ ____
ROOT
ATOM      1  C   UNL A   1      40.047 -15.559 -38.537  0.00  0.00    +0.215 C 
ATOM      2  O   UNL A   1      39.473 -15.689 -39.614  0.00  0.00    -0.276 OA
ATOM      3  N   UNL A   1      39.957 -16.472 -37.510  0.00  0.00    -0.315 N 
ATOM      4  H   UNL A   1      40.486 -16.332 -36.693  0.00  0.00    +0.000 HD
ENDROOT
BRANCH   1   5
ATOM      5  C   UNL A   1      40.941 -14.379 -38.254  0.00  0.00    +0.039 C 
BRANCH   5   6
ATOM      6  C   UNL A   1      41.588 -13.900 -39.540  0.00  0.00    +0.020 C 
BRANCH   6   9
ATOM      7  C   UNL A   1      43.406 -15.331 -40.383  0.00  0.00    +0.246 C 
ATOM      8  O   UNL A   1      42.633 -16.101 -40.942  0.00  0.00    -0.270 OA
ATOM      9  N   UNL A   1      42.992 -14.272 -39.595  0.00  0.00    -0.311 N 
ATOM     10  H   UNL A   1      43.652 -13.768 -39.067  0.00  0.00    +0.000 HD
BRANCH   7  16
ATOM     11  C   UNL A   1      45.497 -16.727 -40.513  0.00  0.00    +0.044 A 
ATOM     12  C   UNL A   1      46.867 -16.805 -40.818  0.00  0.00    -0.040 A 
ATOM     13  C   UNL A   1      47.620 -15.658 -41.084  0.00  0.00    -0.060 A 
ATOM     14  C   UNL A   1      47.012 -14.406 -41.079  0.00  0.00    -0.061 A 
ATOM     15  C   UNL A   1      45.644 -14.304 -40.835  0.00  0.00    -0.048 A 
ATOM     16  C   UNL A   1      44.879 -15.459 -40.585  0.00  0.00    +0.058 A 
BRANCH  11  17
ATOM     17  N   UNL A   1      44.735 -17.909 -40.306  0.00  0.00    -0.314 N 
ATOM     18  H   UNL A   1      43.779 -17.773 -40.114  0.00  0.00    +0.000 HD
BRANCH  17  24
ATOM     19  C   UNL A   1      45.118 -22.258 -42.744  0.00  0.00    -0.039 C 
ATOM     20  C   UNL A   1      45.307 -21.400 -41.521  0.00  0.00    -0.046 A 
ATOM     21  C   UNL A   1      45.828 -21.990 -40.360  0.00  0.00    -0.058 A 
ATOM     22  C   UNL A   1      45.992 -21.245 -39.197  0.00  0.00    -0.060 A 
ATOM     23  C   UNL A   1      45.647 -19.895 -39.184  0.00  0.00    -0.040 A 
ATOM     24  C   UNL A   1      45.171 -19.261 -40.340  0.00  0.00    +0.035 A 
ATOM     25  C   UNL A   1      44.988 -20.021 -41.520  0.00  0.00    -0.026 A 
ATOM     26  C   UNL A   1      44.405 -19.365 -42.749  0.00  0.00    -0.038 C 
ENDBRANCH  17  24
ENDBRANCH  11  17
ENDBRANCH   7  16
ENDBRANCH   6   9
ENDBRANCH   5   6
ENDBRANCH   1   5
BRANCH   3  27
ATOM     27  C   UNL A   1      39.097 -17.635 -37.611  0.00  0.00    +0.012 C 
BRANCH  27  28
ATOM     28  C   UNL A   1      39.321 -18.598 -36.447  0.00  0.00    -0.037 C 
BRANCH  28  29
ATOM     29  C   UNL A   1      38.764 -19.992 -36.746  0.00  0.00    -0.052 C 
BRANCH  29  30
ATOM     30  C   UNL A   1      38.836 -20.884 -35.503  0.00  0.00    -0.053 C 
BRANCH  30  31
ATOM     31  C   UNL A   1      39.767 -20.337 -34.416  0.00  0.00    -0.052 C 
BRANCH  31  32
ATOM     32  C   UNL A   1      40.862 -21.308 -33.966  0.00  0.00    -0.037 C 
BRANCH  32  33
ATOM     33  C   UNL A   1      42.216 -20.644 -33.717  0.00  0.00    +0.009 C 
BRANCH  33  34
ATOM     34  N   UNL A   1      43.166 -20.889 -34.816  0.00  0.00    -0.343 N 
ATOM     35  H   UNL A   1      43.836 -21.611 -34.781  0.00  0.00    +0.000 HD
BRANCH  34  36
ATOM     36  C   UNL A   1      43.051 -20.016 -35.931  0.00  0.00    +0.041 A 
ATOM     37  C   UNL A   1      42.469 -20.467 -37.137  0.00  0.00    -0.005 A 
ATOM     38  C   UNL A   1      42.308 -19.536 -38.168  0.00  0.00    +0.047 A 
ATOM     39  N   UNL A   1      42.649 -18.231 -38.053  0.00  0.00    -0.251 NA
ATOM     40  C   UNL A   1      43.225 -17.808 -36.922  0.00  0.00    +0.074 A 
ATOM     41  C   UNL A   1      43.602 -16.475 -36.853  0.00  0.00    -0.017 A 
ATOM     42  C   UNL A   1      44.240 -15.961 -35.728  0.00  0.00    +0.043 A 
ATOM     43 CL   UNL A   1      44.698 -14.303 -35.682  0.00  0.00    -0.083 Cl
ATOM     44  C   UNL A   1      44.522 -16.783 -34.647  0.00  0.00    -0.043 A 
ATOM     45  C   UNL A   1      44.142 -18.123 -34.699  0.00  0.00    -0.049 A 
ATOM     46  C   UNL A   1      43.466 -18.657 -35.824  0.00  0.00    +0.022 A 
ATOM     47  C   UNL A   1      41.672 -19.905 -39.485  0.00  0.00    -0.010 C 
ATOM     48  C   UNL A   1      41.716 -21.399 -39.777  0.00  0.00    -0.047 C 
ATOM     49  C   UNL A   1      41.208 -22.169 -38.569  0.00  0.00    -0.049 C 
ATOM     50  C   UNL A   1      42.106 -21.917 -37.359  0.00  0.00    -0.024 C 
ENDBRANCH  34  36
ENDBRANCH  33  34
ENDBRANCH  32  33
ENDBRANCH  31  32
ENDBRANCH  30  31
ENDBRANCH  29  30
ENDBRANCH  28  29
ENDBRANCH  27  28
ENDBRANCH   3  27
TORSDOF 15
ENDMDL
MODEL 10
REMARK VINA RESULT:    -6.307     16.851     21.152
REMARK INTER + INTRA:         -17.777
REMARK INTER:                 -11.461
REMARK INTRA:                  -6.316
REMARK UNBOUND:                -5.940
REMARK  Name = cpd16.pdb
REMARK  17 active torsions:
REMARK  status: ('A' for Active; 'I' for Inactive)
REMARK    1  A    between atoms: C_1  and  C_2
REMARK    2  A    between atoms: C_6  and  N_7
REMARK    3  A    between atoms: N_7  and  C_8
REMARK    4  A    between atoms: C_13  and  C_14
REMARK    5  A    between atoms: N_16  and  C_17
REMARK    6  A    between atoms: C_17  and  C_18
REMARK    7  A    between atoms: C_18  and  C_19
REMARK    8  A    between atoms: N_21  and  C_22
REMARK    9  A    between atoms: C_22  and  C_23
REMARK   10  A    between atoms: C_23  and  C_24
REMARK   11  A    between atoms: C_24  and  C_25
REMARK   12  A    between atoms: C_25  and  C_26
REMARK   13  A    between atoms: C_26  and  C_27
REMARK   14  A    between atoms: C_27  and  C_28
REMARK   15  A    between atoms: C_28  and  N_29
REMARK   16  A    between atoms: N_29  and  C_30
REMARK   17  A    between atoms: C_45  and  C_46
REMARK                            x       y       z     vdW  Elec       q    Type
REMARK                         _______ _______ _______ _____ _____    ______ ____
ROOT
ATOM      1  C   UNL A   1      43.246 -13.495 -33.144  0.00  0.00    +0.215 C 
ATOM      2  O   UNL A   1      43.447 -13.761 -34.325  0.00  0.00    -0.276 OA
ATOM      3  N   UNL A   1      42.087 -12.915 -32.680  0.00  0.00    -0.315 N 
ATOM      4  H   UNL A   1      41.970 -12.777 -31.713  0.00  0.00    +0.000 HD
ENDROOT
BRANCH   1   5
ATOM      5  C   UNL A   1      44.261 -13.815 -32.077  0.00  0.00    +0.039 C 
BRANCH   5   6
ATOM      6  C   UNL A   1      44.120 -15.264 -31.647  0.00  0.00    +0.020 C 
BRANCH   6   9
ATOM      7  C   UNL A   1      44.685 -17.465 -32.596  0.00  0.00    +0.246 C 
ATOM      8  O   UNL A   1      45.132 -17.884 -31.533  0.00  0.00    -0.270 OA
ATOM      9  N   UNL A   1      44.248 -16.165 -32.780  0.00  0.00    -0.311 N 
ATOM     10  H   UNL A   1      44.023 -15.849 -33.684  0.00  0.00    +0.000 HD
BRANCH   7  16
ATOM     11  C   UNL A   1      43.566 -19.420 -33.719  0.00  0.00    +0.044 A 
ATOM     12  C   UNL A   1      43.379 -20.185 -34.884  0.00  0.00    -0.040 A 
ATOM     13  C   UNL A   1      44.179 -19.996 -36.015  0.00  0.00    -0.060 A 
ATOM     14  C   UNL A   1      45.168 -19.018 -36.015  0.00  0.00    -0.061 A 
ATOM     15  C   UNL A   1      45.339 -18.207 -34.895  0.00  0.00    -0.048 A 
ATOM     16  C   UNL A   1      44.523 -18.381 -33.762  0.00  0.00    +0.058 A 
BRANCH  11  17
ATOM     17  N   UNL A   1      42.702 -19.583 -32.602  0.00  0.00    -0.314 N 
ATOM     18  H   UNL A   1      43.136 -19.864 -31.764  0.00  0.00    +0.000 HD
BRANCH  17  24
ATOM     19  C   UNL A   1      38.088 -21.508 -32.625  0.00  0.00    -0.039 C 
ATOM     20  C   UNL A   1      39.040 -20.342 -32.600  0.00  0.00    -0.046 A 
ATOM     21  C   UNL A   1      38.512 -19.042 -32.621  0.00  0.00    -0.058 A 
ATOM     22  C   UNL A   1      39.353 -17.935 -32.629  0.00  0.00    -0.060 A 
ATOM     23  C   UNL A   1      40.735 -18.112 -32.607  0.00  0.00    -0.040 A 
ATOM     24  C   UNL A   1      41.296 -19.395 -32.535  0.00  0.00    +0.035 A 
ATOM     25  C   UNL A   1      40.442 -20.525 -32.542  0.00  0.00    -0.026 A 
ATOM     26  C   UNL A   1      41.038 -21.913 -32.542  0.00  0.00    -0.038 C 
ENDBRANCH  17  24
ENDBRANCH  11  17
ENDBRANCH   7  16
ENDBRANCH   6   9
ENDBRANCH   5   6
ENDBRANCH   1   5
BRANCH   3  27
ATOM     27  C   UNL A   1      41.036 -12.503 -33.590  0.00  0.00    +0.012 C 
BRANCH  27  28
ATOM     28  C   UNL A   1      39.739 -13.268 -33.329  0.00  0.00    -0.037 C 
BRANCH  28  29
ATOM     29  C   UNL A   1      39.800 -14.694 -33.879  0.00  0.00    -0.052 C 
BRANCH  29  30
ATOM     30  C   UNL A   1      39.952 -14.684 -35.403  0.00  0.00    -0.053 C 
BRANCH  30  31
ATOM     31  C   UNL A   1      40.126 -16.082 -36.006  0.00  0.00    -0.052 C 
BRANCH  31  32
ATOM     32  C   UNL A   1      41.520 -16.688 -35.820  0.00  0.00    -0.037 C 
BRANCH  32  33
ATOM     33  C   UNL A   1      42.245 -16.992 -37.130  0.00  0.00    +0.009 C 
BRANCH  33  34
ATOM     34  N   UNL A   1      41.353 -17.609 -38.128  0.00  0.00    -0.343 N 
ATOM     35  H   UNL A   1      40.640 -17.103 -38.580  0.00  0.00    +0.000 HD
BRANCH  34  36
ATOM     36  C   UNL A   1      41.591 -18.984 -38.394  0.00  0.00    +0.041 A 
ATOM     37  C   UNL A   1      42.583 -19.373 -39.323  0.00  0.00    -0.005 A 
ATOM     38  C   UNL A   1      42.827 -20.741 -39.478  0.00  0.00    +0.047 A 
ATOM     39  N   UNL A   1      42.189 -21.696 -38.763  0.00  0.00    -0.251 NA
ATOM     40  C   UNL A   1      41.232 -21.334 -37.902  0.00  0.00    +0.074 A 
ATOM     41  C   UNL A   1      40.567 -22.340 -37.217  0.00  0.00    -0.017 A 
ATOM     42  C   UNL A   1      39.534 -22.052 -36.331  0.00  0.00    +0.043 A 
ATOM     43 CL   UNL A   1      38.730 -23.329 -35.504  0.00  0.00    -0.083 Cl
ATOM     44  C   UNL A   1      39.139 -20.739 -36.120  0.00  0.00    -0.043 A 
ATOM     45  C   UNL A   1      39.802 -19.717 -36.796  0.00  0.00    -0.049 A 
ATOM     46  C   UNL A   1      40.876 -19.989 -37.680  0.00  0.00    +0.022 A 
ATOM     47  C   UNL A   1      43.882 -21.261 -40.422  0.00  0.00    -0.010 C 
ATOM     48  C   UNL A   1      44.255 -20.270 -41.515  0.00  0.00    -0.047 C 
ATOM     49  C   UNL A   1      44.546 -18.914 -40.895  0.00  0.00    -0.049 C 
ATOM     50  C   UNL A   1      43.304 -18.368 -40.193  0.00  0.00    -0.024 C 
ENDBRANCH  34  36
ENDBRANCH  33  34
ENDBRANCH  32  33
ENDBRANCH  31  32
ENDBRANCH  30  31
ENDBRANCH  29  30
ENDBRANCH  28  29
ENDBRANCH  27  28
ENDBRANCH   3  27
TORSDOF 15
ENDMDL
MODEL 11
REMARK VINA RESULT:    -6.262     16.575     20.807
REMARK INTER + INTRA:         -17.693
REMARK INTER:                 -12.302
REMARK INTRA:                  -5.391
REMARK UNBOUND:                -5.940
REMARK  Name = cpd16.pdb
REMARK  17 active torsions:
REMARK  status: ('A' for Active; 'I' for Inactive)
REMARK    1  A    between atoms: C_1  and  C_2
REMARK    2  A    between atoms: C_6  and  N_7
REMARK    3  A    between atoms: N_7  and  C_8
REMARK    4  A    between atoms: C_13  and  C_14
REMARK    5  A    between atoms: N_16  and  C_17
REMARK    6  A    between atoms: C_17  and  C_18
REMARK    7  A    between atoms: C_18  and  C_19
REMARK    8  A    between atoms: N_21  and  C_22
REMARK    9  A    between atoms: C_22  and  C_23
REMARK   10  A    between atoms: C_23  and  C_24
REMARK   11  A    between atoms: C_24  and  C_25
REMARK   12  A    between atoms: C_25  and  C_26
REMARK   13  A    between atoms: C_26  and  C_27
REMARK   14  A    between atoms: C_27  and  C_28
REMARK   15  A    between atoms: C_28  and  N_29
REMARK   16  A    between atoms: N_29  and  C_30
REMARK   17  A    between atoms: C_45  and  C_46
REMARK                            x       y       z     vdW  Elec       q    Type
REMARK                         _______ _______ _______ _____ _____    ______ ____
ROOT
ATOM      1  C   UNL A   1      41.082 -22.002 -36.613  0.00  0.00    +0.215 C 
ATOM      2  O   UNL A   1      41.965 -21.150 -36.627  0.00  0.00    -0.276 OA
ATOM      3  N   UNL A   1      40.539 -22.518 -35.458  0.00  0.00    -0.315 N 
ATOM      4  H   UNL A   1      39.796 -23.160 -35.520  0.00  0.00    +0.000 HD
ENDROOT
BRANCH   1   5
ATOM      5  C   UNL A   1      40.485 -22.543 -37.887  0.00  0.00    +0.039 C 
BRANCH   5   6
ATOM      6  C   UNL A   1      40.893 -21.672 -39.060  0.00  0.00    +0.020 C 
BRANCH   6   9
ATOM      7  C   UNL A   1      43.153 -20.889 -39.648  0.00  0.00    +0.246 C 
ATOM      8  O   UNL A   1      42.817 -19.709 -39.649  0.00  0.00    -0.270 OA
ATOM      9  N   UNL A   1      42.265 -21.934 -39.460  0.00  0.00    -0.311 N 
ATOM     10  H   UNL A   1      42.566 -22.861 -39.598  0.00  0.00    +0.000 HD
BRANCH   7  16
ATOM     11  C   UNL A   1      45.518 -20.903 -38.786  0.00  0.00    +0.044 A 
ATOM     12  C   UNL A   1      46.835 -21.377 -38.913  0.00  0.00    -0.040 A 
ATOM     13  C   UNL A   1      47.244 -22.099 -40.037  0.00  0.00    -0.060 A 
ATOM     14  C   UNL A   1      46.335 -22.387 -41.051  0.00  0.00    -0.061 A 
ATOM     15  C   UNL A   1      45.008 -21.978 -40.926  0.00  0.00    -0.048 A 
ATOM     16  C   UNL A   1      44.589 -21.267 -39.786  0.00  0.00    +0.058 A 
BRANCH  11  17
ATOM     17  N   UNL A   1      45.105 -20.224 -37.606  0.00  0.00    -0.314 N 
ATOM     18  H   UNL A   1      44.176 -20.387 -37.323  0.00  0.00    +0.000 HD
BRANCH  17  24
ATOM     19  C   UNL A   1      47.322 -15.795 -36.930  0.00  0.00    -0.039 C 
ATOM     20  C   UNL A   1      46.983 -17.191 -36.483  0.00  0.00    -0.046 A 
ATOM     21  C   UNL A   1      47.517 -17.658 -35.272  0.00  0.00    -0.058 A 
ATOM     22  C   UNL A   1      47.255 -18.951 -34.833  0.00  0.00    -0.060 A 
ATOM     23  C   UNL A   1      46.447 -19.793 -35.594  0.00  0.00    -0.040 A 
ATOM     24  C   UNL A   1      45.856 -19.343 -36.784  0.00  0.00    +0.035 A 
ATOM     25  C   UNL A   1      46.133 -18.032 -37.241  0.00  0.00    -0.026 A 
ATOM     26  C   UNL A   1      45.563 -17.564 -38.559  0.00  0.00    -0.038 C 
ENDBRANCH  17  24
ENDBRANCH  11  17
ENDBRANCH   7  16
ENDBRANCH   6   9
ENDBRANCH   5   6
ENDBRANCH   1   5
BRANCH   3  27
ATOM     27  C   UNL A   1      41.042 -22.134 -34.153  0.00  0.00    +0.012 C 
BRANCH  27  28
ATOM     28  C   UNL A   1      39.950 -22.217 -33.088  0.00  0.00    -0.037 C 
BRANCH  28  29
ATOM     29  C   UNL A   1      38.553 -22.293 -33.708  0.00  0.00    -0.052 C 
BRANCH  29  30
ATOM     30  C   UNL A   1      37.537 -21.527 -32.855  0.00  0.00    -0.053 C 
BRANCH  30  31
ATOM     31  C   UNL A   1      37.796 -20.017 -32.810  0.00  0.00    -0.052 C 
BRANCH  31  32
ATOM     32  C   UNL A   1      37.624 -19.300 -34.152  0.00  0.00    -0.037 C 
BRANCH  32  33
ATOM     33  C   UNL A   1      38.780 -18.367 -34.510  0.00  0.00    +0.009 C 
BRANCH  33  34
ATOM     34  N   UNL A   1      39.794 -19.034 -35.347  0.00  0.00    -0.343 N 
ATOM     35  H   UNL A   1      39.707 -19.973 -35.630  0.00  0.00    +0.000 HD
BRANCH  34  36
ATOM     36  C   UNL A   1      40.904 -18.230 -35.719  0.00  0.00    +0.041 A 
ATOM     37  C   UNL A   1      40.933 -17.586 -36.977  0.00  0.00    -0.005 A 
ATOM     38  C   UNL A   1      42.014 -16.742 -37.250  0.00  0.00    +0.047 A 
ATOM     39  N   UNL A   1      43.004 -16.490 -36.363  0.00  0.00    -0.251 NA
ATOM     40  C   UNL A   1      42.993 -17.118 -35.182  0.00  0.00    +0.074 A 
ATOM     41  C   UNL A   1      44.045 -16.871 -34.312  0.00  0.00    -0.017 A 
ATOM     42  C   UNL A   1      44.131 -17.510 -33.079  0.00  0.00    +0.043 A 
ATOM     43 CL   UNL A   1      45.455 -17.181 -32.030  0.00  0.00    -0.083 Cl
ATOM     44  C   UNL A   1      43.159 -18.423 -32.696  0.00  0.00    -0.043 A 
ATOM     45  C   UNL A   1      42.093 -18.677 -33.557  0.00  0.00    -0.049 A 
ATOM     46  C   UNL A   1      41.974 -18.014 -34.803  0.00  0.00    +0.022 A 
ATOM     47  C   UNL A   1      42.127 -15.986 -38.550  0.00  0.00    -0.010 C 
ATOM     48  C   UNL A   1      41.307 -16.597 -39.677  0.00  0.00    -0.047 C 
ATOM     49  C   UNL A   1      39.889 -16.853 -39.193  0.00  0.00    -0.049 C 
ATOM     50  C   UNL A   1      39.890 -17.854 -38.038  0.00  0.00    -0.024 C 
ENDBRANCH  34  36
ENDBRANCH  33  34
ENDBRANCH  32  33
ENDBRANCH  31  32
ENDBRANCH  30  31
ENDBRANCH  29  30
ENDBRANCH  28  29
ENDBRANCH  27  28
ENDBRANCH   3  27
TORSDOF 15
ENDMDL
MODEL 12
REMARK VINA RESULT:    -6.193     16.919     20.905
REMARK INTER + INTRA:         -17.564
REMARK INTER:                 -12.031
REMARK INTRA:                  -5.532
REMARK UNBOUND:                -5.940
REMARK  Name = cpd16.pdb
REMARK  17 active torsions:
REMARK  status: ('A' for Active; 'I' for Inactive)
REMARK    1  A    between atoms: C_1  and  C_2
REMARK    2  A    between atoms: C_6  and  N_7
REMARK    3  A    between atoms: N_7  and  C_8
REMARK    4  A    between atoms: C_13  and  C_14
REMARK    5  A    between atoms: N_16  and  C_17
REMARK    6  A    between atoms: C_17  and  C_18
REMARK    7  A    between atoms: C_18  and  C_19
REMARK    8  A    between atoms: N_21  and  C_22
REMARK    9  A    between atoms: C_22  and  C_23
REMARK   10  A    between atoms: C_23  and  C_24
REMARK   11  A    between atoms: C_24  and  C_25
REMARK   12  A    between atoms: C_25  and  C_26
REMARK   13  A    between atoms: C_26  and  C_27
REMARK   14  A    between atoms: C_27  and  C_28
REMARK   15  A    between atoms: C_28  and  N_29
REMARK   16  A    between atoms: N_29  and  C_30
REMARK   17  A    between atoms: C_45  and  C_46
REMARK                            x       y       z     vdW  Elec       q    Type
REMARK                         _______ _______ _______ _____ _____    ______ ____
ROOT
ATOM      1  C   UNL A   1      39.358 -16.962 -33.863  0.00  0.00    +0.215 C 
ATOM      2  O   UNL A   1      40.316 -17.724 -33.778  0.00  0.00    -0.276 OA
ATOM      3  N   UNL A   1      38.956 -16.371 -35.038  0.00  0.00    -0.315 N 
ATOM      4  H   UNL A   1      38.146 -15.812 -35.045  0.00  0.00    +0.000 HD
ENDROOT
BRANCH   1   5
ATOM      5  C   UNL A   1      38.506 -16.628 -32.665  0.00  0.00    +0.039 C 
BRANCH   5   6
ATOM      6  C   UNL A   1      37.220 -17.434 -32.704  0.00  0.00    +0.020 C 
BRANCH   6   9
ATOM      7  C   UNL A   1      37.311 -19.493 -34.051  0.00  0.00    +0.246 C 
ATOM      8  O   UNL A   1      36.776 -18.963 -35.020  0.00  0.00    -0.270 OA
ATOM      9  N   UNL A   1      37.493 -18.855 -32.837  0.00  0.00    -0.311 N 
ATOM     10  H   UNL A   1      37.808 -19.367 -32.058  0.00  0.00    +0.000 HD
BRANCH   7  16
ATOM     11  C   UNL A   1      38.993 -21.119 -34.981  0.00  0.00    +0.044 A 
ATOM     12  C   UNL A   1      39.546 -22.411 -34.960  0.00  0.00    -0.040 A 
ATOM     13  C   UNL A   1      38.955 -23.445 -34.230  0.00  0.00    -0.060 A 
ATOM     14  C   UNL A   1      37.807 -23.203 -33.480  0.00  0.00    -0.061 A 
ATOM     15  C   UNL A   1      37.268 -21.919 -33.438  0.00  0.00    -0.048 A 
ATOM     16  C   UNL A   1      37.873 -20.871 -34.157  0.00  0.00    +0.058 A 
BRANCH  11  17
ATOM     17  N   UNL A   1      39.644 -20.066 -35.680  0.00  0.00    -0.314 N 
ATOM     18  H   UNL A   1      39.188 -19.193 -35.659  0.00  0.00    +0.000 HD
BRANCH  17  24
ATOM     19  C   UNL A   1      42.096 -20.876 -39.961  0.00  0.00    -0.039 C 
ATOM     20  C   UNL A   1      42.062 -20.555 -38.491  0.00  0.00    -0.046 A 
ATOM     21  C   UNL A   1      43.279 -20.402 -37.808  0.00  0.00    -0.058 A 
ATOM     22  C   UNL A   1      43.297 -20.136 -36.443  0.00  0.00    -0.060 A 
ATOM     23  C   UNL A   1      42.099 -20.009 -35.744  0.00  0.00    -0.040 A 
ATOM     24  C   UNL A   1      40.866 -20.106 -36.403  0.00  0.00    +0.035 A 
ATOM     25  C   UNL A   1      40.844 -20.392 -37.789  0.00  0.00    -0.026 A 
ATOM     26  C   UNL A   1      39.520 -20.574 -38.494  0.00  0.00    -0.038 C 
ENDBRANCH  17  24
ENDBRANCH  11  17
ENDBRANCH   7  16
ENDBRANCH   6   9
ENDBRANCH   5   6
ENDBRANCH   1   5
BRANCH   3  27
ATOM     27  C   UNL A   1      39.702 -16.555 -36.267  0.00  0.00    +0.012 C 
BRANCH  27  28
ATOM     28  C   UNL A   1      40.931 -15.648 -36.316  0.00  0.00    -0.037 C 
BRANCH  28  29
ATOM     29  C   UNL A   1      42.191 -16.419 -36.715  0.00  0.00    -0.052 C 
BRANCH  29  30
ATOM     30  C   UNL A   1      42.254 -16.610 -38.234  0.00  0.00    -0.053 C 
BRANCH  30  31
ATOM     31  C   UNL A   1      42.141 -15.297 -39.016  0.00  0.00    -0.052 C 
BRANCH  31  32
ATOM     32  C   UNL A   1      42.762 -15.333 -40.416  0.00  0.00    -0.037 C 
BRANCH  32  33
ATOM     33  C   UNL A   1      43.224 -16.722 -40.854  0.00  0.00    +0.009 C 
BRANCH  33  34
ATOM     34  N   UNL A   1      44.692 -16.817 -40.944  0.00  0.00    -0.343 N 
ATOM     35  H   UNL A   1      45.240 -16.108 -41.353  0.00  0.00    +0.000 HD
BRANCH  34  36
ATOM     36  C   UNL A   1      45.263 -18.000 -40.402  0.00  0.00    +0.041 A 
ATOM     37  C   UNL A   1      45.233 -19.209 -41.133  0.00  0.00    -0.005 A 
ATOM     38  C   UNL A   1      45.886 -20.317 -40.582  0.00  0.00    +0.047 A 
ATOM     39  N   UNL A   1      46.565 -20.274 -39.413  0.00  0.00    -0.251 NA
ATOM     40  C   UNL A   1      46.573 -19.139 -38.706  0.00  0.00    +0.074 A 
ATOM     41  C   UNL A   1      47.241 -19.141 -37.491  0.00  0.00    -0.017 A 
ATOM     42  C   UNL A   1      47.266 -18.014 -36.676  0.00  0.00    +0.043 A 
ATOM     43 CL   UNL A   1      48.102 -18.059 -35.173  0.00  0.00    -0.083 Cl
ATOM     44  C   UNL A   1      46.610 -16.856 -37.065  0.00  0.00    -0.043 A 
ATOM     45  C   UNL A   1      45.939 -16.835 -38.287  0.00  0.00    -0.049 A 
ATOM     46  C   UNL A   1      45.927 -17.965 -39.142  0.00  0.00    +0.022 A 
ATOM     47  C   UNL A   1      45.938 -21.646 -41.292  0.00  0.00    -0.010 C 
ATOM     48  C   UNL A   1      44.836 -21.821 -42.327  0.00  0.00    -0.047 C 
ATOM     49  C   UNL A   1      44.788 -20.601 -43.232  0.00  0.00    -0.049 C 
ATOM     50  C   UNL A   1      44.456 -19.348 -42.422  0.00  0.00    -0.024 C 
ENDBRANCH  34  36
ENDBRANCH  33  34
ENDBRANCH  32  33
ENDBRANCH  31  32
ENDBRANCH  30  31
ENDBRANCH  29  30
ENDBRANCH  28  29
ENDBRANCH  27  28
ENDBRANCH   3  27
TORSDOF 15
ENDMDL
MODEL 13
REMARK VINA RESULT:    -6.112     17.042     20.882
REMARK INTER + INTRA:         -17.411
REMARK INTER:                 -12.903
REMARK INTRA:                  -4.508
REMARK UNBOUND:                -5.940
REMARK  Name = cpd16.pdb
REMARK  17 active torsions:
REMARK  status: ('A' for Active; 'I' for Inactive)
REMARK    1  A    between atoms: C_1  and  C_2
REMARK    2  A    between atoms: C_6  and  N_7
REMARK    3  A    between atoms: N_7  and  C_8
REMARK    4  A    between atoms: C_13  and  C_14
REMARK    5  A    between atoms: N_16  and  C_17
REMARK    6  A    between atoms: C_17  and  C_18
REMARK    7  A    between atoms: C_18  and  C_19
REMARK    8  A    between atoms: N_21  and  C_22
REMARK    9  A    between atoms: C_22  and  C_23
REMARK   10  A    between atoms: C_23  and  C_24
REMARK   11  A    between atoms: C_24  and  C_25
REMARK   12  A    between atoms: C_25  and  C_26
REMARK   13  A    between atoms: C_26  and  C_27
REMARK   14  A    between atoms: C_27  and  C_28
REMARK   15  A    between atoms: C_28  and  N_29
REMARK   16  A    between atoms: N_29  and  C_30
REMARK   17  A    between atoms: C_45  and  C_46
REMARK                            x       y       z     vdW  Elec       q    Type
REMARK                         _______ _______ _______ _____ _____    ______ ____
ROOT
ATOM      1  C   UNL A   1      41.893 -21.194 -39.968  0.00  0.00    +0.215 C 
ATOM      2  O   UNL A   1      42.578 -21.507 -40.937  0.00  0.00    -0.276 OA
ATOM      3  N   UNL A   1      42.129 -20.080 -39.196  0.00  0.00    -0.315 N 
ATOM      4  H   UNL A   1      41.507 -19.860 -38.465  0.00  0.00    +0.000 HD
ENDROOT
BRANCH   1   5
ATOM      5  C   UNL A   1      40.692 -22.006 -39.554  0.00  0.00    +0.039 C 
BRANCH   5   6
ATOM      6  C   UNL A   1      39.659 -21.106 -38.901  0.00  0.00    +0.020 C 
BRANCH   6   9
ATOM      7  C   UNL A   1      40.040 -21.293 -36.476  0.00  0.00    +0.246 C 
ATOM      8  O   UNL A   1      41.132 -20.737 -36.535  0.00  0.00    -0.270 OA
ATOM      9  N   UNL A   1      39.280 -21.603 -37.589  0.00  0.00    -0.311 N 
ATOM     10  H   UNL A   1      38.477 -22.164 -37.493  0.00  0.00    +0.000 HD
BRANCH   7  16
ATOM     11  C   UNL A   1      39.400 -20.643 -34.129  0.00  0.00    +0.044 A 
ATOM     12  C   UNL A   1      38.715 -20.962 -32.944  0.00  0.00    -0.040 A 
ATOM     13  C   UNL A   1      38.163 -22.230 -32.740  0.00  0.00    -0.060 A 
ATOM     14  C   UNL A   1      38.261 -23.201 -33.731  0.00  0.00    -0.061 A 
ATOM     15  C   UNL A   1      38.886 -22.896 -34.939  0.00  0.00    -0.048 A 
ATOM     16  C   UNL A   1      39.426 -21.615 -35.154  0.00  0.00    +0.058 A 
BRANCH  11  17
ATOM     17  N   UNL A   1      39.900 -19.330 -34.344  0.00  0.00    -0.314 N 
ATOM     18  H   UNL A   1      39.363 -18.760 -34.940  0.00  0.00    +0.000 HD
BRANCH  17  24
ATOM     19  C   UNL A   1      42.722 -15.266 -33.619  0.00  0.00    -0.039 C 
ATOM     20  C   UNL A   1      42.473 -16.746 -33.507  0.00  0.00    -0.046 A 
ATOM     21  C   UNL A   1      43.478 -17.558 -32.960  0.00  0.00    -0.058 A 
ATOM     22  C   UNL A   1      43.305 -18.934 -32.864  0.00  0.00    -0.060 A 
ATOM     23  C   UNL A   1      42.119 -19.517 -33.305  0.00  0.00    -0.040 A 
ATOM     24  C   UNL A   1      41.074 -18.732 -33.811  0.00  0.00    +0.035 A 
ATOM     25  C   UNL A   1      41.253 -17.332 -33.924  0.00  0.00    -0.026 A 
ATOM     26  C   UNL A   1      40.163 -16.486 -34.538  0.00  0.00    -0.038 C 
ENDBRANCH  17  24
ENDBRANCH  11  17
ENDBRANCH   7  16
ENDBRANCH   6   9
ENDBRANCH   5   6
ENDBRANCH   1   5
BRANCH   3  27
ATOM     27  C   UNL A   1      43.275 -19.226 -39.437  0.00  0.00    +0.012 C 
BRANCH  27  28
ATOM     28  C   UNL A   1      43.064 -17.830 -38.853  0.00  0.00    -0.037 C 
BRANCH  28  29
ATOM     29  C   UNL A   1      42.405 -16.885 -39.860  0.00  0.00    -0.052 C 
BRANCH  29  30
ATOM     30  C   UNL A   1      42.866 -15.442 -39.635  0.00  0.00    -0.053 C 
BRANCH  30  31
ATOM     31  C   UNL A   1      44.337 -15.332 -39.218  0.00  0.00    -0.052 C 
BRANCH  31  32
ATOM     32  C   UNL A   1      45.328 -15.284 -40.384  0.00  0.00    -0.037 C 
BRANCH  32  33
ATOM     33  C   UNL A   1      45.874 -16.651 -40.792  0.00  0.00    +0.009 C 
BRANCH  33  34
ATOM     34  N   UNL A   1      47.028 -17.057 -39.971  0.00  0.00    -0.343 N 
ATOM     35  H   UNL A   1      47.847 -16.512 -39.909  0.00  0.00    +0.000 HD
BRANCH  34  36
ATOM     36  C   UNL A   1      46.882 -18.287 -39.275  0.00  0.00    +0.041 A 
ATOM     37  C   UNL A   1      46.609 -18.296 -37.888  0.00  0.00    -0.005 A 
ATOM     38  C   UNL A   1      46.392 -19.535 -37.277  0.00  0.00    +0.047 A 
ATOM     39  N   UNL A   1      46.398 -20.708 -37.952  0.00  0.00    -0.251 NA
ATOM     40  C   UNL A   1      46.681 -20.705 -39.259  0.00  0.00    +0.074 A 
ATOM     41  C   UNL A   1      46.722 -21.928 -39.911  0.00  0.00    -0.017 A 
ATOM     42  C   UNL A   1      47.045 -22.017 -41.262  0.00  0.00    +0.043 A 
ATOM     43 CL   UNL A   1      47.091 -23.555 -42.035  0.00  0.00    -0.083 Cl
ATOM     44  C   UNL A   1      47.345 -20.874 -41.986  0.00  0.00    -0.043 A 
ATOM     45  C   UNL A   1      47.302 -19.637 -41.346  0.00  0.00    -0.049 A 
ATOM     46  C   UNL A   1      46.946 -19.523 -39.979  0.00  0.00    +0.022 A 
ATOM     47  C   UNL A   1      46.066 -19.655 -35.809  0.00  0.00    -0.010 C 
ATOM     48  C   UNL A   1      46.501 -18.445 -34.994  0.00  0.00    -0.047 C 
ATOM     49  C   UNL A   1      46.011 -17.175 -35.669  0.00  0.00    -0.049 C 
ATOM     50  C   UNL A   1      46.633 -17.033 -37.058  0.00  0.00    -0.024 C 
ENDBRANCH  34  36
ENDBRANCH  33  34
ENDBRANCH  32  33
ENDBRANCH  31  32
ENDBRANCH  30  31
ENDBRANCH  29  30
ENDBRANCH  28  29
ENDBRANCH  27  28
ENDBRANCH   3  27
TORSDOF 15
ENDMDL
MODEL 14
REMARK VINA RESULT:    -6.094     16.092     20.319
REMARK INTER + INTRA:         -17.378
REMARK INTER:                 -12.599
REMARK INTRA:                  -4.779
REMARK UNBOUND:                -5.940
REMARK  Name = cpd16.pdb
REMARK  17 active torsions:
REMARK  status: ('A' for Active; 'I' for Inactive)
REMARK    1  A    between atoms: C_1  and  C_2
REMARK    2  A    between atoms: C_6  and  N_7
REMARK    3  A    between atoms: N_7  and  C_8
REMARK    4  A    between atoms: C_13  and  C_14
REMARK    5  A    between atoms: N_16  and  C_17
REMARK    6  A    between atoms: C_17  and  C_18
REMARK    7  A    between atoms: C_18  and  C_19
REMARK    8  A    between atoms: N_21  and  C_22
REMARK    9  A    between atoms: C_22  and  C_23
REMARK   10  A    between atoms: C_23  and  C_24
REMARK   11  A    between atoms: C_24  and  C_25
REMARK   12  A    between atoms: C_25  and  C_26
REMARK   13  A    between atoms: C_26  and  C_27
REMARK   14  A    between atoms: C_27  and  C_28
REMARK   15  A    between atoms: C_28  and  N_29
REMARK   16  A    between atoms: N_29  and  C_30
REMARK   17  A    between atoms: C_45  and  C_46
REMARK                            x       y       z     vdW  Elec       q    Type
REMARK                         _______ _______ _______ _____ _____    ______ ____
ROOT
ATOM      1  C   UNL A   1      43.650 -16.284 -38.637  0.00  0.00    +0.215 C 
ATOM      2  O   UNL A   1      43.596 -16.962 -39.658  0.00  0.00    -0.276 OA
ATOM      3  N   UNL A   1      44.786 -16.145 -37.873  0.00  0.00    -0.315 N 
ATOM      4  H   UNL A   1      44.773 -15.543 -37.095  0.00  0.00    +0.000 HD
ENDROOT
BRANCH   1   5
ATOM      5  C   UNL A   1      42.457 -15.507 -38.140  0.00  0.00    +0.039 C 
BRANCH   5   6
ATOM      6  C   UNL A   1      41.178 -16.121 -38.680  0.00  0.00    +0.020 C 
BRANCH   6   9
ATOM      7  C   UNL A   1      40.075 -18.321 -38.766  0.00  0.00    +0.246 C 
ATOM      8  O   UNL A   1      39.290 -17.968 -39.641  0.00  0.00    -0.270 OA
ATOM      9  N   UNL A   1      40.980 -17.465 -38.164  0.00  0.00    -0.311 N 
ATOM     10  H   UNL A   1      41.493 -17.768 -37.380  0.00  0.00    +0.000 HD
BRANCH   7  16
ATOM     11  C   UNL A   1      41.241 -20.551 -38.723  0.00  0.00    +0.044 A 
ATOM     12  C   UNL A   1      41.308 -21.857 -38.206  0.00  0.00    -0.040 A 
ATOM     13  C   UNL A   1      40.277 -22.384 -37.423  0.00  0.00    -0.060 A 
ATOM     14  C   UNL A   1      39.165 -21.605 -37.116  0.00  0.00    -0.061 A 
ATOM     15  C   UNL A   1      39.098 -20.288 -37.568  0.00  0.00    -0.048 A 
ATOM     16  C   UNL A   1      40.143 -19.749 -38.341  0.00  0.00    +0.058 A 
BRANCH  11  17
ATOM     17  N   UNL A   1      42.327 -20.012 -39.465  0.00  0.00    -0.314 N 
ATOM     18  H   UNL A   1      42.110 -19.248 -40.046  0.00  0.00    +0.000 HD
BRANCH  17  24
ATOM     19  C   UNL A   1      46.072 -22.431 -41.728  0.00  0.00    -0.039 C 
ATOM     20  C   UNL A   1      45.497 -21.661 -40.569  0.00  0.00    -0.046 A 
ATOM     21  C   UNL A   1      46.299 -21.453 -39.436  0.00  0.00    -0.058 A 
ATOM     22  C   UNL A   1      45.801 -20.774 -38.330  0.00  0.00    -0.060 A 
ATOM     23  C   UNL A   1      44.496 -20.285 -38.345  0.00  0.00    -0.040 A 
ATOM     24  C   UNL A   1      43.684 -20.430 -39.478  0.00  0.00    +0.035 A 
ATOM     25  C   UNL A   1      44.184 -21.135 -40.600  0.00  0.00    -0.026 A 
ATOM     26  C   UNL A   1      43.291 -21.363 -41.798  0.00  0.00    -0.038 C 
ENDBRANCH  17  24
ENDBRANCH  11  17
ENDBRANCH   7  16
ENDBRANCH   6   9
ENDBRANCH   5   6
ENDBRANCH   1   5
BRANCH   3  27
ATOM     27  C   UNL A   1      46.001 -16.869 -38.192  0.00  0.00    +0.012 C 
BRANCH  27  28
ATOM     28  C   UNL A   1      46.791 -17.219 -36.932  0.00  0.00    -0.037 C 
BRANCH  28  29
ATOM     29  C   UNL A   1      45.894 -17.274 -35.695  0.00  0.00    -0.052 C 
BRANCH  29  30
ATOM     30  C   UNL A   1      45.744 -18.714 -35.196  0.00  0.00    -0.053 C 
BRANCH  30  31
ATOM     31  C   UNL A   1      44.494 -18.932 -34.335  0.00  0.00    -0.052 C 
BRANCH  31  32
ATOM     32  C   UNL A   1      43.265 -18.137 -34.783  0.00  0.00    -0.037 C 
BRANCH  32  33
ATOM     33  C   UNL A   1      41.962 -18.933 -34.742  0.00  0.00    +0.009 C 
BRANCH  33  34
ATOM     34  N   UNL A   1      41.542 -19.242 -33.363  0.00  0.00    -0.343 N 
ATOM     35  H   UNL A   1      42.180 -19.272 -32.614  0.00  0.00    +0.000 HD
BRANCH  34  36
ATOM     36  C   UNL A   1      40.154 -19.492 -33.187  0.00  0.00    +0.041 A 
ATOM     37  C   UNL A   1      39.271 -18.435 -32.873  0.00  0.00    -0.005 A 
ATOM     38  C   UNL A   1      37.906 -18.731 -32.796  0.00  0.00    +0.047 A 
ATOM     39  N   UNL A   1      37.396 -19.961 -33.039  0.00  0.00    -0.251 NA
ATOM     40  C   UNL A   1      38.232 -20.968 -33.311  0.00  0.00    +0.074 A 
ATOM     41  C   UNL A   1      37.682 -22.225 -33.513  0.00  0.00    -0.017 A 
ATOM     42  C   UNL A   1      38.483 -23.335 -33.765  0.00  0.00    +0.043 A 
ATOM     43 CL   UNL A   1      37.761 -24.879 -34.004  0.00  0.00    -0.083 Cl
ATOM     44  C   UNL A   1      39.862 -23.205 -33.810  0.00  0.00    -0.043 A 
ATOM     45  C   UNL A   1      40.431 -21.947 -33.616  0.00  0.00    -0.049 A 
ATOM     46  C   UNL A   1      39.630 -20.801 -33.388  0.00  0.00    +0.022 A 
ATOM     47  C   UNL A   1      36.875 -17.672 -32.494  0.00  0.00    -0.010 C 
ATOM     48  C   UNL A   1      37.454 -16.451 -31.791  0.00  0.00    -0.047 C 
ATOM     49  C   UNL A   1      38.685 -15.968 -32.540  0.00  0.00    -0.049 C 
ATOM     50  C   UNL A   1      39.767 -17.047 -32.540  0.00  0.00    -0.024 C 
ENDBRANCH  34  36
ENDBRANCH  33  34
ENDBRANCH  32  33
ENDBRANCH  31  32
ENDBRANCH  30  31
ENDBRANCH  29  30
ENDBRANCH  28  29
ENDBRANCH  27  28
ENDBRANCH   3  27
TORSDOF 15
ENDMDL
MODEL 15
REMARK VINA RESULT:    -6.019     16.386     21.039
REMARK INTER + INTRA:         -17.237
REMARK INTER:                 -12.887
REMARK INTRA:                  -4.350
REMARK UNBOUND:                -5.940
REMARK  Name = cpd16.pdb
REMARK  17 active torsions:
REMARK  status: ('A' for Active; 'I' for Inactive)
REMARK    1  A    between atoms: C_1  and  C_2
REMARK    2  A    between atoms: C_6  and  N_7
REMARK    3  A    between atoms: N_7  and  C_8
REMARK    4  A    between atoms: C_13  and  C_14
REMARK    5  A    between atoms: N_16  and  C_17
REMARK    6  A    between atoms: C_17  and  C_18
REMARK    7  A    between atoms: C_18  and  C_19
REMARK    8  A    between atoms: N_21  and  C_22
REMARK    9  A    between atoms: C_22  and  C_23
REMARK   10  A    between atoms: C_23  and  C_24
REMARK   11  A    between atoms: C_24  and  C_25
REMARK   12  A    between atoms: C_25  and  C_26
REMARK   13  A    between atoms: C_26  and  C_27
REMARK   14  A    between atoms: C_27  and  C_28
REMARK   15  A    between atoms: C_28  and  N_29
REMARK   16  A    between atoms: N_29  and  C_30
REMARK   17  A    between atoms: C_45  and  C_46
REMARK                            x       y       z     vdW  Elec       q    Type
REMARK                         _______ _______ _______ _____ _____    ______ ____
ROOT
ATOM      1  C   UNL A   1      45.895 -18.709 -34.752  0.00  0.00    +0.215 C 
ATOM      2  O   UNL A   1      46.197 -18.026 -33.778  0.00  0.00    -0.276 OA
ATOM      3  N   UNL A   1      44.673 -18.642 -35.381  0.00  0.00    -0.315 N 
ATOM      4  H   UNL A   1      44.516 -19.180 -36.190  0.00  0.00    +0.000 HD
ENDROOT
BRANCH   1   5
ATOM      5  C   UNL A   1      46.870 -19.677 -35.372  0.00  0.00    +0.039 C 
BRANCH   5   6
ATOM      6  C   UNL A   1      47.239 -19.216 -36.770  0.00  0.00    +0.020 C 
BRANCH   6   9
ATOM      7  C   UNL A   1      47.026 -19.981 -39.101  0.00  0.00    +0.246 C 
ATOM      8  O   UNL A   1      47.058 -18.839 -39.550  0.00  0.00    -0.270 OA
ATOM      9  N   UNL A   1      47.017 -20.268 -37.748  0.00  0.00    -0.311 N 
ATOM     10  H   UNL A   1      46.859 -21.191 -37.445  0.00  0.00    +0.000 HD
BRANCH   7  16
ATOM     11  C   UNL A   1      45.981 -21.410 -40.890  0.00  0.00    +0.044 A 
ATOM     12  C   UNL A   1      46.114 -22.466 -41.808  0.00  0.00    -0.040 A 
ATOM     13  C   UNL A   1      47.235 -23.302 -41.799  0.00  0.00    -0.060 A 
ATOM     14  C   UNL A   1      48.261 -23.084 -40.885  0.00  0.00    -0.061 A 
ATOM     15  C   UNL A   1      48.181 -22.011 -40.000  0.00  0.00    -0.048 A 
ATOM     16  C   UNL A   1      47.064 -21.156 -40.020  0.00  0.00    +0.058 A 
BRANCH  11  17
ATOM     17  N   UNL A   1      44.864 -20.533 -40.956  0.00  0.00    -0.314 N 
ATOM     18  H   UNL A   1      44.743 -20.058 -41.809  0.00  0.00    +0.000 HD
BRANCH  17  24
ATOM     19  C   UNL A   1      41.935 -17.245 -38.588  0.00  0.00    -0.039 C 
ATOM     20  C   UNL A   1      42.507 -18.625 -38.765  0.00  0.00    -0.046 A 
ATOM     21  C   UNL A   1      42.154 -19.623 -37.844  0.00  0.00    -0.058 A 
ATOM     22  C   UNL A   1      42.682 -20.906 -37.949  0.00  0.00    -0.060 A 
ATOM     23  C   UNL A   1      43.563 -21.211 -38.985  0.00  0.00    -0.040 A 
ATOM     24  C   UNL A   1      43.899 -20.253 -39.952  0.00  0.00    +0.035 A 
ATOM     25  C   UNL A   1      43.375 -18.942 -39.838  0.00  0.00    -0.026 A 
ATOM     26  C   UNL A   1      43.790 -17.882 -40.831  0.00  0.00    -0.038 C 
ENDBRANCH  17  24
ENDBRANCH  11  17
ENDBRANCH   7  16
ENDBRANCH   6   9
ENDBRANCH   5   6
ENDBRANCH   1   5
BRANCH   3  27
ATOM     27  C   UNL A   1      43.612 -17.794 -34.874  0.00  0.00    +0.012 C 
BRANCH  27  28
ATOM     28  C   UNL A   1      42.707 -18.551 -33.903  0.00  0.00    -0.037 C 
BRANCH  28  29
ATOM     29  C   UNL A   1      41.293 -18.725 -34.461  0.00  0.00    -0.052 C 
BRANCH  29  30
ATOM     30  C   UNL A   1      40.554 -17.383 -34.497  0.00  0.00    -0.053 C 
BRANCH  30  31
ATOM     31  C   UNL A   1      39.741 -17.102 -33.229  0.00  0.00    -0.052 C 
BRANCH  31  32
ATOM     32  C   UNL A   1      38.886 -18.277 -32.747  0.00  0.00    -0.037 C 
BRANCH  32  33
ATOM     33  C   UNL A   1      37.412 -18.171 -33.134  0.00  0.00    +0.009 C 
BRANCH  33  34
ATOM     34  N   UNL A   1      36.928 -19.383 -33.819  0.00  0.00    -0.343 N 
ATOM     35  H   UNL A   1      36.081 -19.823 -33.574  0.00  0.00    +0.000 HD
BRANCH  34  36
ATOM     36  C   UNL A   1      37.765 -19.875 -34.855  0.00  0.00    +0.041 A 
ATOM     37  C   UNL A   1      38.488 -21.077 -34.682  0.00  0.00    -0.005 A 
ATOM     38  C   UNL A   1      39.228 -21.553 -35.770  0.00  0.00    +0.047 A 
ATOM     39  N   UNL A   1      39.256 -20.940 -36.976  0.00  0.00    -0.251 NA
ATOM     40  C   UNL A   1      38.594 -19.789 -37.135  0.00  0.00    +0.074 A 
ATOM     41  C   UNL A   1      38.678 -19.163 -38.370  0.00  0.00    -0.017 A 
ATOM     42  C   UNL A   1      38.050 -17.944 -38.609  0.00  0.00    +0.043 A 
ATOM     43 CL   UNL A   1      38.183 -17.198 -40.154  0.00  0.00    -0.083 Cl
ATOM     44  C   UNL A   1      37.328 -17.321 -37.602  0.00  0.00    -0.043 A 
ATOM     45  C   UNL A   1      37.229 -17.940 -36.357  0.00  0.00    -0.049 A 
ATOM     46  C   UNL A   1      37.837 -19.195 -36.105  0.00  0.00    +0.022 A 
ATOM     47  C   UNL A   1      40.013 -22.839 -35.700  0.00  0.00    -0.010 C 
ATOM     48  C   UNL A   1      40.350 -23.263 -34.277  0.00  0.00    -0.047 C 
ATOM     49  C   UNL A   1      39.095 -23.218 -33.422  0.00  0.00    -0.049 C 
ATOM     50  C   UNL A   1      38.546 -21.793 -33.352  0.00  0.00    -0.024 C 
ENDBRANCH  34  36
ENDBRANCH  33  34
ENDBRANCH  32  33
ENDBRANCH  31  32
ENDBRANCH  30  31
ENDBRANCH  29  30
ENDBRANCH  28  29
ENDBRANCH  27  28
ENDBRANCH   3  27
TORSDOF 15
ENDMDL
MODEL 16
REMARK VINA RESULT:    -5.982     17.357     21.412
REMARK INTER + INTRA:         -17.168
REMARK INTER:                 -12.473
REMARK INTRA:                  -4.694
REMARK UNBOUND:                -5.940
REMARK  Name = cpd16.pdb
REMARK  17 active torsions:
REMARK  status: ('A' for Active; 'I' for Inactive)
REMARK    1  A    between atoms: C_1  and  C_2
REMARK    2  A    between atoms: C_6  and  N_7
REMARK    3  A    between atoms: N_7  and  C_8
REMARK    4  A    between atoms: C_13  and  C_14
REMARK    5  A    between atoms: N_16  and  C_17
REMARK    6  A    between atoms: C_17  and  C_18
REMARK    7  A    between atoms: C_18  and  C_19
REMARK    8  A    between atoms: N_21  and  C_22
REMARK    9  A    between atoms: C_22  and  C_23
REMARK   10  A    between atoms: C_23  and  C_24
REMARK   11  A    between atoms: C_24  and  C_25
REMARK   12  A    between atoms: C_25  and  C_26
REMARK   13  A    between atoms: C_26  and  C_27
REMARK   14  A    between atoms: C_27  and  C_28
REMARK   15  A    between atoms: C_28  and  N_29
REMARK   16  A    between atoms: N_29  and  C_30
REMARK   17  A    between atoms: C_45  and  C_46
REMARK                            x       y       z     vdW  Elec       q    Type
REMARK                         _______ _______ _______ _____ _____    ______ ____
ROOT
ATOM      1  C   UNL A   1      40.118 -17.783 -38.623  0.00  0.00    +0.215 C 
ATOM      2  O   UNL A   1      39.263 -17.598 -37.762  0.00  0.00    -0.276 OA
ATOM      3  N   UNL A   1      40.511 -16.821 -39.526  0.00  0.00    -0.315 N 
ATOM      4  H   UNL A   1      41.241 -17.021 -40.155  0.00  0.00    +0.000 HD
ENDROOT
BRANCH   1   5
ATOM      5  C   UNL A   1      40.845 -19.098 -38.746  0.00  0.00    +0.039 C 
BRANCH   5   6
ATOM      6  C   UNL A   1      39.844 -20.233 -38.864  0.00  0.00    +0.020 C 
BRANCH   6   9
ATOM      7  C   UNL A   1      40.304 -21.967 -37.177  0.00  0.00    +0.246 C 
ATOM      8  O   UNL A   1      41.053 -22.590 -37.922  0.00  0.00    -0.270 OA
ATOM      9  N   UNL A   1      39.591 -20.849 -37.572  0.00  0.00    -0.311 N 
ATOM     10  H   UNL A   1      38.907 -20.469 -36.975  0.00  0.00    +0.000 HD
BRANCH   7  16
ATOM     11  C   UNL A   1      41.159 -21.977 -34.809  0.00  0.00    +0.044 A 
ATOM     12  C   UNL A   1      40.929 -22.275 -33.455  0.00  0.00    -0.040 A 
ATOM     13  C   UNL A   1      39.811 -23.010 -33.051  0.00  0.00    -0.060 A 
ATOM     14  C   UNL A   1      38.881 -23.441 -33.992  0.00  0.00    -0.061 A 
ATOM     15  C   UNL A   1      39.054 -23.112 -35.336  0.00  0.00    -0.048 A 
ATOM     16  C   UNL A   1      40.169 -22.356 -35.743  0.00  0.00    +0.058 A 
BRANCH  11  17
ATOM     17  N   UNL A   1      42.269 -21.176 -35.194  0.00  0.00    -0.314 N 
ATOM     18  H   UNL A   1      42.967 -21.635 -35.716  0.00  0.00    +0.000 HD
BRANCH  17  24
ATOM     19  C   UNL A   1      45.230 -17.582 -33.375  0.00  0.00    -0.039 C 
ATOM     20  C   UNL A   1      43.938 -18.055 -33.985  0.00  0.00    -0.046 A 
ATOM     21  C   UNL A   1      42.909 -17.123 -34.187  0.00  0.00    -0.058 A 
ATOM     22  C   UNL A   1      41.687 -17.519 -34.720  0.00  0.00    -0.060 A 
ATOM     23  C   UNL A   1      41.481 -18.853 -35.067  0.00  0.00    -0.040 A 
ATOM     24  C   UNL A   1      42.504 -19.801 -34.925  0.00  0.00    +0.035 A 
ATOM     25  C   UNL A   1      43.743 -19.403 -34.369  0.00  0.00    -0.026 A 
ATOM     26  C   UNL A   1      44.826 -20.432 -34.142  0.00  0.00    -0.038 C 
ENDBRANCH  17  24
ENDBRANCH  11  17
ENDBRANCH   7  16
ENDBRANCH   6   9
ENDBRANCH   5   6
ENDBRANCH   1   5
BRANCH   3  27
ATOM     27  C   UNL A   1      39.871 -15.521 -39.567  0.00  0.00    +0.012 C 
BRANCH  27  28
ATOM     28  C   UNL A   1      40.671 -14.479 -38.787  0.00  0.00    -0.037 C 
BRANCH  28  29
ATOM     29  C   UNL A   1      42.153 -14.850 -38.698  0.00  0.00    -0.052 C 
BRANCH  29  30
ATOM     30  C   UNL A   1      42.919 -14.325 -39.916  0.00  0.00    -0.053 C 
BRANCH  30  31
ATOM     31  C   UNL A   1      44.431 -14.559 -39.830  0.00  0.00    -0.052 C 
BRANCH  31  32
ATOM     32  C   UNL A   1      44.999 -15.469 -40.924  0.00  0.00    -0.037 C 
BRANCH  32  33
ATOM     33  C   UNL A   1      44.034 -16.559 -41.386  0.00  0.00    +0.009 C 
BRANCH  33  34
ATOM     34  N   UNL A   1      43.736 -17.528 -40.317  0.00  0.00    -0.343 N 
ATOM     35  H   UNL A   1      42.886 -17.517 -39.820  0.00  0.00    +0.000 HD
BRANCH  34  36
ATOM     36  C   UNL A   1      44.756 -18.481 -40.052  0.00  0.00    +0.041 A 
ATOM     37  C   UNL A   1      45.021 -19.521 -40.971  0.00  0.00    -0.005 A 
ATOM     38  C   UNL A   1      46.093 -20.375 -40.694  0.00  0.00    +0.047 A 
ATOM     39  N   UNL A   1      46.899 -20.232 -39.616  0.00  0.00    -0.251 NA
ATOM     40  C   UNL A   1      46.635 -19.265 -38.731  0.00  0.00    +0.074 A 
ATOM     41  C   UNL A   1      47.453 -19.173 -37.615  0.00  0.00    -0.017 A 
ATOM     42  C   UNL A   1      47.225 -18.220 -36.627  0.00  0.00    +0.043 A 
ATOM     43 CL   UNL A   1      48.261 -18.141 -35.254  0.00  0.00    -0.083 Cl
ATOM     44  C   UNL A   1      46.159 -17.340 -36.737  0.00  0.00    -0.043 A 
ATOM     45  C   UNL A   1      45.332 -17.416 -37.856  0.00  0.00    -0.049 A 
ATOM     46  C   UNL A   1      45.565 -18.361 -38.885  0.00  0.00    +0.022 A 
ATOM     47  C   UNL A   1      46.479 -21.499 -41.622  0.00  0.00    -0.010 C 
ATOM     48  C   UNL A   1      45.348 -21.934 -42.544  0.00  0.00    -0.047 C 
ATOM     49  C   UNL A   1      44.740 -20.714 -43.215  0.00  0.00    -0.049 C 
ATOM     50  C   UNL A   1      44.138 -19.774 -42.172  0.00  0.00    -0.024 C 
ENDBRANCH  34  36
ENDBRANCH  33  34
ENDBRANCH  32  33
ENDBRANCH  31  32
ENDBRANCH  30  31
ENDBRANCH  29  30
ENDBRANCH  28  29
ENDBRANCH  27  28
ENDBRANCH   3  27
TORSDOF 15
ENDMDL
MODEL 17
REMARK VINA RESULT:    -5.972     16.197     20.090
REMARK INTER + INTRA:         -17.149
REMARK INTER:                 -12.100
REMARK INTRA:                  -5.049
REMARK UNBOUND:                -5.940
REMARK  Name = cpd16.pdb
REMARK  17 active torsions:
REMARK  status: ('A' for Active; 'I' for Inactive)
REMARK    1  A    between atoms: C_1  and  C_2
REMARK    2  A    between atoms: C_6  and  N_7
REMARK    3  A    between atoms: N_7  and  C_8
REMARK    4  A    between atoms: C_13  and  C_14
REMARK    5  A    between atoms: N_16  and  C_17
REMARK    6  A    between atoms: C_17  and  C_18
REMARK    7  A    between atoms: C_18  and  C_19
REMARK    8  A    between atoms: N_21  and  C_22
REMARK    9  A    between atoms: C_22  and  C_23
REMARK   10  A    between atoms: C_23  and  C_24
REMARK   11  A    between atoms: C_24  and  C_25
REMARK   12  A    between atoms: C_25  and  C_26
REMARK   13  A    between atoms: C_26  and  C_27
REMARK   14  A    between atoms: C_27  and  C_28
REMARK   15  A    between atoms: C_28  and  N_29
REMARK   16  A    between atoms: N_29  and  C_30
REMARK   17  A    between atoms: C_45  and  C_46
REMARK                            x       y       z     vdW  Elec       q    Type
REMARK                         _______ _______ _______ _____ _____    ______ ____
ROOT
ATOM      1  C   UNL A   1      44.230 -18.205 -34.016  0.00  0.00    +0.215 C 
ATOM      2  O   UNL A   1      44.410 -18.973 -33.076  0.00  0.00    -0.276 OA
ATOM      3  N   UNL A   1      44.752 -18.404 -35.274  0.00  0.00    -0.315 N 
ATOM      4  H   UNL A   1      44.523 -17.776 -35.996  0.00  0.00    +0.000 HD
ENDROOT
BRANCH   1   5
ATOM      5  C   UNL A   1      43.379 -16.969 -33.876  0.00  0.00    +0.039 C 
BRANCH   5   6
ATOM      6  C   UNL A   1      41.913 -17.329 -34.038  0.00  0.00    +0.020 C 
BRANCH   6   9
ATOM      7  C   UNL A   1      40.886 -19.150 -32.737  0.00  0.00    +0.246 C 
ATOM      8  O   UNL A   1      40.460 -18.386 -31.877  0.00  0.00    -0.270 OA
ATOM      9  N   UNL A   1      41.687 -18.742 -33.790  0.00  0.00    -0.311 N 
ATOM     10  H   UNL A   1      42.106 -19.415 -34.373  0.00  0.00    +0.000 HD
BRANCH   7  16
ATOM     11  C   UNL A   1      39.132 -20.955 -32.717  0.00  0.00    +0.044 A 
ATOM     12  C   UNL A   1      38.820 -22.322 -32.821  0.00  0.00    -0.040 A 
ATOM     13  C   UNL A   1      39.820 -23.298 -32.835  0.00  0.00    -0.060 A 
ATOM     14  C   UNL A   1      41.160 -22.926 -32.772  0.00  0.00    -0.061 A 
ATOM     15  C   UNL A   1      41.501 -21.576 -32.725  0.00  0.00    -0.048 A 
ATOM     16  C   UNL A   1      40.496 -20.590 -32.730  0.00  0.00    +0.058 A 
BRANCH  11  17
ATOM     17  N   UNL A   1      38.104 -19.974 -32.768  0.00  0.00    -0.314 N 
ATOM     18  H   UNL A   1      37.685 -19.750 -31.905  0.00  0.00    +0.000 HD
BRANCH  17  24
ATOM     19  C   UNL A   1      35.589 -16.095 -34.671  0.00  0.00    -0.039 C 
ATOM     20  C   UNL A   1      36.325 -17.400 -34.817  0.00  0.00    -0.046 A 
ATOM     21  C   UNL A   1      36.416 -17.982 -36.090  0.00  0.00    -0.058 A 
ATOM     22  C   UNL A   1      37.061 -19.202 -36.268  0.00  0.00    -0.060 A 
ATOM     23  C   UNL A   1      37.631 -19.851 -35.175  0.00  0.00    -0.040 A 
ATOM     24  C   UNL A   1      37.602 -19.275 -33.898  0.00  0.00    +0.035 A 
ATOM     25  C   UNL A   1      36.934 -18.041 -33.711  0.00  0.00    -0.026 A 
ATOM     26  C   UNL A   1      36.831 -17.448 -32.326  0.00  0.00    -0.038 C 
ENDBRANCH  17  24
ENDBRANCH  11  17
ENDBRANCH   7  16
ENDBRANCH   6   9
ENDBRANCH   5   6
ENDBRANCH   1   5
BRANCH   3  27
ATOM     27  C   UNL A   1      45.631 -19.522 -35.555  0.00  0.00    +0.012 C 
BRANCH  27  28
ATOM     28  C   UNL A   1      46.344 -19.349 -36.896  0.00  0.00    -0.037 C 
BRANCH  28  29
ATOM     29  C   UNL A   1      46.248 -20.610 -37.758  0.00  0.00    -0.052 C 
BRANCH  29  30
ATOM     30  C   UNL A   1      47.137 -20.488 -38.999  0.00  0.00    -0.053 C 
BRANCH  30  31
ATOM     31  C   UNL A   1      47.112 -21.736 -39.889  0.00  0.00    -0.052 C 
BRANCH  31  32
ATOM     32  C   UNL A   1      45.787 -21.974 -40.617  0.00  0.00    -0.037 C 
BRANCH  32  33
ATOM     33  C   UNL A   1      45.448 -20.906 -41.655  0.00  0.00    +0.009 C 
BRANCH  33  34
ATOM     34  N   UNL A   1      44.058 -20.432 -41.534  0.00  0.00    -0.343 N 
ATOM     35  H   UNL A   1      43.400 -20.543 -42.258  0.00  0.00    +0.000 HD
BRANCH  34  36
ATOM     36  C   UNL A   1      43.731 -19.806 -40.301  0.00  0.00    +0.041 A 
ATOM     37  C   UNL A   1      44.217 -18.513 -40.004  0.00  0.00    -0.005 A 
ATOM     38  C   UNL A   1      43.791 -17.917 -38.812  0.00  0.00    +0.047 A 
ATOM     39  N   UNL A   1      42.919 -18.501 -37.959  0.00  0.00    -0.251 NA
ATOM     40  C   UNL A   1      42.477 -19.735 -38.225  0.00  0.00    +0.074 A 
ATOM     41  C   UNL A   1      41.618 -20.322 -37.308  0.00  0.00    -0.017 A 
ATOM     42  C   UNL A   1      41.141 -21.617 -37.489  0.00  0.00    +0.043 A 
ATOM     43 CL   UNL A   1      40.081 -22.313 -36.325  0.00  0.00    -0.083 Cl
ATOM     44  C   UNL A   1      41.527 -22.355 -38.597  0.00  0.00    -0.043 A 
ATOM     45  C   UNL A   1      42.385 -21.777 -39.531  0.00  0.00    -0.049 A 
ATOM     46  C   UNL A   1      42.857 -20.449 -39.378  0.00  0.00    +0.022 A 
ATOM     47  C   UNL A   1      44.228 -16.529 -38.413  0.00  0.00    -0.010 C 
ATOM     48  C   UNL A   1      45.511 -16.081 -39.099  0.00  0.00    -0.047 C 
ATOM     49  C   UNL A   1      45.402 -16.325 -40.595  0.00  0.00    -0.049 C 
ATOM     50  C   UNL A   1      45.231 -17.816 -40.882  0.00  0.00    -0.024 C 
ENDBRANCH  34  36
ENDBRANCH  33  34
ENDBRANCH  32  33
ENDBRANCH  31  32
ENDBRANCH  30  31
ENDBRANCH  29  30
ENDBRANCH  28  29
ENDBRANCH  27  28
ENDBRANCH   3  27
TORSDOF 15
ENDMDL
MODEL 18
REMARK VINA RESULT:    -5.924     18.161     22.446
REMARK INTER + INTRA:         -17.059
REMARK INTER:                 -11.140
REMARK INTRA:                  -5.918
REMARK UNBOUND:                -5.940
REMARK  Name = cpd16.pdb
REMARK  17 active torsions:
REMARK  status: ('A' for Active; 'I' for Inactive)
REMARK    1  A    between atoms: C_1  and  C_2
REMARK    2  A    between atoms: C_6  and  N_7
REMARK    3  A    between atoms: N_7  and  C_8
REMARK    4  A    between atoms: C_13  and  C_14
REMARK    5  A    between atoms: N_16  and  C_17
REMARK    6  A    between atoms: C_17  and  C_18
REMARK    7  A    between atoms: C_18  and  C_19
REMARK    8  A    between atoms: N_21  and  C_22
REMARK    9  A    between atoms: C_22  and  C_23
REMARK   10  A    between atoms: C_23  and  C_24
REMARK   11  A    between atoms: C_24  and  C_25
REMARK   12  A    between atoms: C_25  and  C_26
REMARK   13  A    between atoms: C_26  and  C_27
REMARK   14  A    between atoms: C_27  and  C_28
REMARK   15  A    between atoms: C_28  and  N_29
REMARK   16  A    between atoms: N_29  and  C_30
REMARK   17  A    between atoms: C_45  and  C_46
REMARK                            x       y       z     vdW  Elec       q    Type
REMARK                         _______ _______ _______ _____ _____    ______ ____
ROOT
ATOM      1  C   UNL A   1      44.872 -15.725 -40.342  0.00  0.00    +0.215 C 
ATOM      2  O   UNL A   1      45.525 -16.764 -40.357  0.00  0.00    -0.276 OA
ATOM      3  N   UNL A   1      45.197 -14.631 -39.572  0.00  0.00    -0.315 N 
ATOM      4  H   UNL A   1      44.659 -13.810 -39.649  0.00  0.00    +0.000 HD
ENDROOT
BRANCH   1   5
ATOM      5  C   UNL A   1      43.651 -15.545 -41.208  0.00  0.00    +0.039 C 
BRANCH   5   6
ATOM      6  C   UNL A   1      42.396 -15.789 -40.390  0.00  0.00    +0.020 C 
BRANCH   6   9
ATOM      7  C   UNL A   1      42.630 -17.339 -38.492  0.00  0.00    +0.246 C 
ATOM      8  O   UNL A   1      43.027 -16.460 -37.734  0.00  0.00    -0.270 OA
ATOM      9  N   UNL A   1      42.379 -17.132 -39.837  0.00  0.00    -0.311 N 
ATOM     10  H   UNL A   1      42.189 -17.900 -40.422  0.00  0.00    +0.000 HD
BRANCH   7  16
ATOM     11  C   UNL A   1      43.280 -19.737 -38.083  0.00  0.00    +0.044 A 
ATOM     12  C   UNL A   1      42.981 -20.972 -37.481  0.00  0.00    -0.040 A 
ATOM     13  C   UNL A   1      41.742 -21.208 -36.880  0.00  0.00    -0.060 A 
ATOM     14  C   UNL A   1      40.780 -20.203 -36.843  0.00  0.00    -0.061 A 
ATOM     15  C   UNL A   1      41.069 -18.950 -37.383  0.00  0.00    -0.048 A 
ATOM     16  C   UNL A   1      42.323 -18.704 -37.972  0.00  0.00    +0.058 A 
BRANCH  11  17
ATOM     17  N   UNL A   1      44.567 -19.495 -38.634  0.00  0.00    -0.314 N 
ATOM     18  H   UNL A   1      44.954 -18.609 -38.445  0.00  0.00    +0.000 HD
BRANCH  17  24
ATOM     19  C   UNL A   1      45.266 -22.073 -42.860  0.00  0.00    -0.039 C 
ATOM     20  C   UNL A   1      45.678 -21.663 -41.473  0.00  0.00    -0.046 A 
ATOM     21  C   UNL A   1      46.828 -22.241 -40.914  0.00  0.00    -0.058 A 
ATOM     22  C   UNL A   1      47.231 -21.916 -39.624  0.00  0.00    -0.060 A 
ATOM     23  C   UNL A   1      46.495 -20.998 -38.877  0.00  0.00    -0.040 A 
ATOM     24  C   UNL A   1      45.370 -20.363 -39.422  0.00  0.00    +0.035 A 
ATOM     25  C   UNL A   1      44.949 -20.704 -40.729  0.00  0.00    -0.026 A 
ATOM     26  C   UNL A   1      43.695 -20.082 -41.297  0.00  0.00    -0.038 C 
ENDBRANCH  17  24
ENDBRANCH  11  17
ENDBRANCH   7  16
ENDBRANCH   6   9
ENDBRANCH   5   6
ENDBRANCH   1   5
BRANCH   3  27
ATOM     27  C   UNL A   1      46.314 -14.666 -38.650  0.00  0.00    +0.012 C 
BRANCH  27  28
ATOM     28  C   UNL A   1      45.870 -14.359 -37.221  0.00  0.00    -0.037 C 
BRANCH  28  29
ATOM     29  C   UNL A   1      45.451 -12.896 -37.057  0.00  0.00    -0.052 C 
BRANCH  29  30
ATOM     30  C   UNL A   1      44.988 -12.620 -35.624  0.00  0.00    -0.053 C 
BRANCH  30  31
ATOM     31  C   UNL A   1      43.915 -13.599 -35.133  0.00  0.00    -0.052 C 
BRANCH  31  32
ATOM     32  C   UNL A   1      44.230 -14.272 -33.794  0.00  0.00    -0.037 C 
BRANCH  32  33
ATOM     33  C   UNL A   1      43.405 -15.528 -33.522  0.00  0.00    +0.009 C 
BRANCH  33  34
ATOM     34  N   UNL A   1      43.227 -16.350 -34.733  0.00  0.00    -0.343 N 
ATOM     35  H   UNL A   1      42.914 -15.969 -35.585  0.00  0.00    +0.000 HD
BRANCH  34  36
ATOM     36  C   UNL A   1      43.536 -17.729 -34.587  0.00  0.00    +0.041 A 
ATOM     37  C   UNL A   1      44.818 -18.215 -34.930  0.00  0.00    -0.005 A 
ATOM     38  C   UNL A   1      45.087 -19.565 -34.685  0.00  0.00    +0.047 A 
ATOM     39  N   UNL A   1      44.199 -20.409 -34.110  0.00  0.00    -0.251 NA
ATOM     40  C   UNL A   1      42.976 -19.958 -33.809  0.00  0.00    +0.074 A 
ATOM     41  C   UNL A   1      42.075 -20.859 -33.261  0.00  0.00    -0.017 A 
ATOM     42  C   UNL A   1      40.772 -20.482 -32.953  0.00  0.00    +0.043 A 
ATOM     43 CL   UNL A   1      39.682 -21.631 -32.279  0.00  0.00    -0.083 Cl
ATOM     44  C   UNL A   1      40.342 -19.187 -33.198  0.00  0.00    -0.043 A 
ATOM     45  C   UNL A   1      41.237 -18.268 -33.742  0.00  0.00    -0.049 A 
ATOM     46  C   UNL A   1      42.577 -18.626 -34.035  0.00  0.00    +0.022 A 
ATOM     47  C   UNL A   1      46.431 -20.179 -34.988  0.00  0.00    -0.010 C 
ATOM     48  C   UNL A   1      47.235 -19.393 -36.015  0.00  0.00    -0.047 C 
ATOM     49  C   UNL A   1      47.261 -17.925 -35.626  0.00  0.00    -0.049 C 
ATOM     50  C   UNL A   1      45.846 -17.348 -35.619  0.00  0.00    -0.024 C 
ENDBRANCH  34  36
ENDBRANCH  33  34
ENDBRANCH  32  33
ENDBRANCH  31  32
ENDBRANCH  30  31
ENDBRANCH  29  30
ENDBRANCH  28  29
ENDBRANCH  27  28
ENDBRANCH   3  27
TORSDOF 15
ENDMDL
MODEL 19
REMARK VINA RESULT:    -5.811     16.754     20.904
REMARK INTER + INTRA:         -16.846
REMARK INTER:                 -11.266
REMARK INTRA:                  -5.580
REMARK UNBOUND:                -5.940
REMARK  Name = cpd16.pdb
REMARK  17 active torsions:
REMARK  status: ('A' for Active; 'I' for Inactive)
REMARK    1  A    between atoms: C_1  and  C_2
REMARK    2  A    between atoms: C_6  and  N_7
REMARK    3  A    between atoms: N_7  and  C_8
REMARK    4  A    between atoms: C_13  and  C_14
REMARK    5  A    between atoms: N_16  and  C_17
REMARK    6  A    between atoms: C_17  and  C_18
REMARK    7  A    between atoms: C_18  and  C_19
REMARK    8  A    between atoms: N_21  and  C_22
REMARK    9  A    between atoms: C_22  and  C_23
REMARK   10  A    between atoms: C_23  and  C_24
REMARK   11  A    between atoms: C_24  and  C_25
REMARK   12  A    between atoms: C_25  and  C_26
REMARK   13  A    between atoms: C_26  and  C_27
REMARK   14  A    between atoms: C_27  and  C_28
REMARK   15  A    between atoms: C_28  and  N_29
REMARK   16  A    between atoms: N_29  and  C_30
REMARK   17  A    between atoms: C_45  and  C_46
REMARK                            x       y       z     vdW  Elec       q    Type
REMARK                         _______ _______ _______ _____ _____    ______ ____
ROOT
ATOM      1  C   UNL A   1      40.499 -16.402 -38.909  0.00  0.00    +0.215 C 
ATOM      2  O   UNL A   1      40.854 -17.444 -39.452  0.00  0.00    -0.276 OA
ATOM      3  N   UNL A   1      40.036 -16.337 -37.614  0.00  0.00    -0.315 N 
ATOM      4  H   UNL A   1      39.819 -15.460 -37.223  0.00  0.00    +0.000 HD
ENDROOT
BRANCH   1   5
ATOM      5  C   UNL A   1      40.570 -15.075 -39.620  0.00  0.00    +0.039 C 
BRANCH   5   6
ATOM      6  C   UNL A   1      41.984 -14.829 -40.115  0.00  0.00    +0.020 C 
BRANCH   6   9
ATOM      7  C   UNL A   1      44.100 -16.047 -39.798  0.00  0.00    +0.246 C 
ATOM      8  O   UNL A   1      44.278 -16.189 -41.004  0.00  0.00    -0.270 OA
ATOM      9  N   UNL A   1      42.963 -15.474 -39.257  0.00  0.00    -0.311 N 
ATOM     10  H   UNL A   1      42.816 -15.505 -38.284  0.00  0.00    +0.000 HD
BRANCH   7  16
ATOM     11  C   UNL A   1      45.690 -17.747 -38.839  0.00  0.00    +0.044 A 
ATOM     12  C   UNL A   1      46.763 -18.028 -37.976  0.00  0.00    -0.040 A 
ATOM     13  C   UNL A   1      47.231 -17.079 -37.062  0.00  0.00    -0.060 A 
ATOM     14  C   UNL A   1      46.651 -15.815 -37.010  0.00  0.00    -0.061 A 
ATOM     15  C   UNL A   1      45.623 -15.489 -37.892  0.00  0.00    -0.048 A 
ATOM     16  C   UNL A   1      45.163 -16.436 -38.826  0.00  0.00    +0.058 A 
BRANCH  11  17
ATOM     17  N   UNL A   1      45.270 -18.703 -39.804  0.00  0.00    -0.314 N 
ATOM     18  H   UNL A   1      45.702 -18.638 -40.686  0.00  0.00    +0.000 HD
BRANCH  17  24
ATOM     19  C   UNL A   1      42.055 -21.917 -41.885  0.00  0.00    -0.039 C 
ATOM     20  C   UNL A   1      42.700 -21.273 -40.688  0.00  0.00    -0.046 A 
ATOM     21  C   UNL A   1      42.255 -21.636 -39.407  0.00  0.00    -0.058 A 
ATOM     22  C   UNL A   1      42.800 -21.045 -38.272  0.00  0.00    -0.060 A 
ATOM     23  C   UNL A   1      43.805 -20.089 -38.402  0.00  0.00    -0.040 A 
ATOM     24  C   UNL A   1      44.309 -19.739 -39.662  0.00  0.00    +0.035 A 
ATOM     25  C   UNL A   1      43.745 -20.328 -40.820  0.00  0.00    -0.026 A 
ATOM     26  C   UNL A   1      44.229 -19.901 -42.186  0.00  0.00    -0.038 C 
ENDBRANCH  17  24
ENDBRANCH  11  17
ENDBRANCH   7  16
ENDBRANCH   6   9
ENDBRANCH   5   6
ENDBRANCH   1   5
BRANCH   3  27
ATOM     27  C   UNL A   1      39.864 -17.534 -36.816  0.00  0.00    +0.012 C 
BRANCH  27  28
ATOM     28  C   UNL A   1      38.385 -17.838 -36.576  0.00  0.00    -0.037 C 
BRANCH  28  29
ATOM     29  C   UNL A   1      38.061 -19.313 -36.818  0.00  0.00    -0.052 C 
BRANCH  29  30
ATOM     30  C   UNL A   1      39.306 -20.074 -37.285  0.00  0.00    -0.053 C 
BRANCH  30  31
ATOM     31  C   UNL A   1      39.049 -21.564 -37.535  0.00  0.00    -0.052 C 
BRANCH  31  32
ATOM     32  C   UNL A   1      39.912 -22.510 -36.696  0.00  0.00    -0.037 C 
BRANCH  32  33
ATOM     33  C   UNL A   1      39.228 -23.009 -35.424  0.00  0.00    +0.009 C 
BRANCH  33  34
ATOM     34  N   UNL A   1      39.937 -22.579 -34.206  0.00  0.00    -0.343 N 
ATOM     35  H   UNL A   1      40.408 -23.216 -33.619  0.00  0.00    +0.000 HD
BRANCH  34  36
ATOM     36  C   UNL A   1      39.898 -21.186 -33.934  0.00  0.00    +0.041 A 
ATOM     37  C   UNL A   1      38.702 -20.576 -33.491  0.00  0.00    -0.005 A 
ATOM     38  C   UNL A   1      38.750 -19.218 -33.160  0.00  0.00    +0.047 A 
ATOM     39  N   UNL A   1      39.882 -18.479 -33.212  0.00  0.00    -0.251 NA
ATOM     40  C   UNL A   1      41.009 -19.046 -33.656  0.00  0.00    +0.074 A 
ATOM     41  C   UNL A   1      42.141 -18.250 -33.738  0.00  0.00    -0.017 A 
ATOM     42  C   UNL A   1      43.345 -18.751 -34.224  0.00  0.00    +0.043 A 
ATOM     43 CL   UNL A   1      44.727 -17.728 -34.315  0.00  0.00    -0.083 Cl
ATOM     44  C   UNL A   1      43.434 -20.068 -34.647  0.00  0.00    -0.043 A 
ATOM     45  C   UNL A   1      42.306 -20.883 -34.565  0.00  0.00    -0.049 A 
ATOM     46  C   UNL A   1      41.080 -20.398 -34.046  0.00  0.00    +0.022 A 
ATOM     47  C   UNL A   1      37.538 -18.478 -32.651  0.00  0.00    -0.010 C 
ATOM     48  C   UNL A   1      36.223 -19.149 -33.020  0.00  0.00    -0.047 C 
ATOM     49  C   UNL A   1      36.285 -20.624 -32.659  0.00  0.00    -0.049 C 
ATOM     50  C   UNL A   1      37.389 -21.323 -33.452  0.00  0.00    -0.024 C 
ENDBRANCH  34  36
ENDBRANCH  33  34
ENDBRANCH  32  33
ENDBRANCH  31  32
ENDBRANCH  30  31
ENDBRANCH  29  30
ENDBRANCH  28  29
ENDBRANCH  27  28
ENDBRANCH   3  27
TORSDOF 15
ENDMDL
MODEL 20
REMARK VINA RESULT:    -5.717     17.283     21.054
REMARK INTER + INTRA:         -16.669
REMARK INTER:                  -8.638
REMARK INTRA:                  -8.031
REMARK UNBOUND:                -5.940
REMARK  Name = cpd16.pdb
REMARK  17 active torsions:
REMARK  status: ('A' for Active; 'I' for Inactive)
REMARK    1  A    between atoms: C_1  and  C_2
REMARK    2  A    between atoms: C_6  and  N_7
REMARK    3  A    between atoms: N_7  and  C_8
REMARK    4  A    between atoms: C_13  and  C_14
REMARK    5  A    between atoms: N_16  and  C_17
REMARK    6  A    between atoms: C_17  and  C_18
REMARK    7  A    between atoms: C_18  and  C_19
REMARK    8  A    between atoms: N_21  and  C_22
REMARK    9  A    between atoms: C_22  and  C_23
REMARK   10  A    between atoms: C_23  and  C_24
REMARK   11  A    between atoms: C_24  and  C_25
REMARK   12  A    between atoms: C_25  and  C_26
REMARK   13  A    between atoms: C_26  and  C_27
REMARK   14  A    between atoms: C_27  and  C_28
REMARK   15  A    between atoms: C_28  and  N_29
REMARK   16  A    between atoms: N_29  and  C_30
REMARK   17  A    between atoms: C_45  and  C_46
REMARK                            x       y       z     vdW  Elec       q    Type
REMARK                         _______ _______ _______ _____ _____    ______ ____
ROOT
ATOM      1  C   UNL A   1      41.927 -14.205 -34.770  0.00  0.00    +0.215 C 
ATOM      2  O   UNL A   1      41.851 -13.381 -35.676  0.00  0.00    -0.276 OA
ATOM      3  N   UNL A   1      43.052 -14.956 -34.515  0.00  0.00    -0.315 N 
ATOM      4  H   UNL A   1      43.063 -15.561 -33.739  0.00  0.00    +0.000 HD
ENDROOT
BRANCH   1   5
ATOM      5  C   UNL A   1      40.780 -14.447 -33.822  0.00  0.00    +0.039 C 
BRANCH   5   6
ATOM      6  C   UNL A   1      39.461 -14.325 -34.564  0.00  0.00    +0.020 C 
BRANCH   6   9
ATOM      7  C   UNL A   1      38.533 -15.882 -36.231  0.00  0.00    +0.246 C 
ATOM      8  O   UNL A   1      37.661 -16.285 -35.468  0.00  0.00    -0.270 OA
ATOM      9  N   UNL A   1      39.520 -14.988 -35.855  0.00  0.00    -0.311 N 
ATOM     10  H   UNL A   1      40.268 -14.801 -36.467  0.00  0.00    +0.000 HD
BRANCH   7  16
ATOM     11  C   UNL A   1      38.415 -17.659 -38.009  0.00  0.00    +0.044 A 
ATOM     12  C   UNL A   1      38.313 -17.982 -39.374  0.00  0.00    -0.040 A 
ATOM     13  C   UNL A   1      38.427 -17.002 -40.364  0.00  0.00    -0.060 A 
ATOM     14  C   UNL A   1      38.619 -15.670 -40.010  0.00  0.00    -0.061 A 
ATOM     15  C   UNL A   1      38.668 -15.313 -38.664  0.00  0.00    -0.048 A 
ATOM     16  C   UNL A   1      38.534 -16.295 -37.664  0.00  0.00    +0.058 A 
BRANCH  11  17
ATOM     17  N   UNL A   1      38.234 -18.659 -37.015  0.00  0.00    -0.314 N 
ATOM     18  H   UNL A   1      37.510 -18.494 -36.369  0.00  0.00    +0.000 HD
BRANCH  17  24
ATOM     19  C   UNL A   1      39.456 -22.563 -34.139  0.00  0.00    -0.039 C 
ATOM     20  C   UNL A   1      39.593 -21.745 -35.396  0.00  0.00    -0.046 A 
ATOM     21  C   UNL A   1      40.543 -22.135 -36.352  0.00  0.00    -0.058 A 
ATOM     22  C   UNL A   1      40.727 -21.393 -37.514  0.00  0.00    -0.060 A 
ATOM     23  C   UNL A   1      39.955 -20.256 -37.741  0.00  0.00    -0.040 A 
ATOM     24  C   UNL A   1      38.961 -19.866 -36.831  0.00  0.00    +0.035 A 
ATOM     25  C   UNL A   1      38.783 -20.610 -35.640  0.00  0.00    -0.026 A 
ATOM     26  C   UNL A   1      37.768 -20.154 -34.618  0.00  0.00    -0.038 C 
ENDBRANCH  17  24
ENDBRANCH  11  17
ENDBRANCH   7  16
ENDBRANCH   6   9
ENDBRANCH   5   6
ENDBRANCH   1   5
BRANCH   3  27
ATOM     27  C   UNL A   1      44.221 -14.874 -35.369  0.00  0.00    +0.012 C 
BRANCH  27  28
ATOM     28  C   UNL A   1      45.028 -16.171 -35.339  0.00  0.00    -0.037 C 
BRANCH  28  29
ATOM     29  C   UNL A   1      46.109 -16.193 -36.422  0.00  0.00    -0.052 C 
BRANCH  29  30
ATOM     30  C   UNL A   1      47.079 -17.358 -36.197  0.00  0.00    -0.053 C 
BRANCH  30  31
ATOM     31  C   UNL A   1      47.136 -18.336 -37.375  0.00  0.00    -0.052 C 
BRANCH  31  32
ATOM     32  C   UNL A   1      46.833 -19.792 -37.009  0.00  0.00    -0.037 C 
BRANCH  32  33
ATOM     33  C   UNL A   1      45.775 -19.951 -35.919  0.00  0.00    +0.009 C 
BRANCH  33  34
ATOM     34  N   UNL A   1      44.469 -20.359 -36.467  0.00  0.00    -0.343 N 
ATOM     35  H   UNL A   1      44.318 -21.250 -36.859  0.00  0.00    +0.000 HD
BRANCH  34  36
ATOM     36  C   UNL A   1      43.441 -19.380 -36.392  0.00  0.00    +0.041 A 
ATOM     37  C   UNL A   1      42.683 -19.227 -35.210  0.00  0.00    -0.005 A 
ATOM     38  C   UNL A   1      41.745 -18.191 -35.170  0.00  0.00    +0.047 A 
ATOM     39  N   UNL A   1      41.556 -17.319 -36.186  0.00  0.00    -0.251 NA
ATOM     40  C   UNL A   1      42.253 -17.477 -37.317  0.00  0.00    +0.074 A 
ATOM     41  C   UNL A   1      42.005 -16.592 -38.356  0.00  0.00    -0.017 A 
ATOM     42  C   UNL A   1      42.659 -16.709 -39.578  0.00  0.00    +0.043 A 
ATOM     43 CL   UNL A   1      42.319 -15.594 -40.844  0.00  0.00    -0.083 Cl
ATOM     44  C   UNL A   1      43.576 -17.728 -39.785  0.00  0.00    -0.043 A 
ATOM     45  C   UNL A   1      43.842 -18.621 -38.749  0.00  0.00    -0.049 A 
ATOM     46  C   UNL A   1      43.206 -18.501 -37.488  0.00  0.00    +0.022 A 
ATOM     47  C   UNL A   1      40.903 -17.923 -33.947  0.00  0.00    -0.010 C 
ATOM     48  C   UNL A   1      40.781 -19.127 -33.023  0.00  0.00    -0.047 C 
ATOM     49  C   UNL A   1      42.161 -19.703 -32.752  0.00  0.00    -0.049 C 
ATOM     50  C   UNL A   1      42.802 -20.190 -34.051  0.00  0.00    -0.024 C 
ENDBRANCH  34  36
ENDBRANCH  33  34
ENDBRANCH  32  33
ENDBRANCH  31  32
ENDBRANCH  30  31
ENDBRANCH  29  30
ENDBRANCH  28  29
ENDBRANCH  27  28
ENDBRANCH   3  27
TORSDOF 15
ENDMDL
