REMARK  Name = cpd16.pdb
REMARK  17 active torsions:
REMARK  status: ('A' for Active; 'I' for Inactive)
REMARK    1  A    between atoms: C_1  and  C_2
REMARK    2  A    between atoms: C_6  and  N_7
REMARK    3  A    between atoms: N_7  and  C_8
REMARK    4  A    between atoms: C_13  and  C_14
REMARK    5  A    between atoms: N_16  and  C_17
REMARK    6  A    between atoms: C_17  and  C_18
REMARK    7  A    between atoms: C_18  and  C_19
REMARK    8  A    between atoms: N_21  and  C_22
REMARK    9  A    between atoms: C_22  and  C_23
REMARK   10  A    between atoms: C_23  and  C_24
REMARK   11  A    between atoms: C_24  and  C_25
REMARK   12  A    between atoms: C_25  and  C_26
REMARK   13  A    between atoms: C_26  and  C_27
REMARK   14  A    between atoms: C_27  and  C_28
REMARK   15  A    between atoms: C_28  and  N_29
REMARK   16  A    between atoms: N_29  and  C_30
REMARK   17  A    between atoms: C_45  and  C_46
REMARK                            x       y       z     vdW  Elec       q    Type
REMARK                         _______ _______ _______ _____ _____    ______ ____
ROOT
ATOM      1  C   UNL A   1      -5.977  -3.698   0.927  0.00  0.00    +0.215 C 
ATOM      2  O   UNL A   1      -6.278  -3.554   2.108  0.00  0.00    -0.276 OA
ATOM      3  N   UNL A   1      -6.775  -3.292  -0.118  0.00  0.00    -0.315 N 
ATOM      4  H   UNL A   1      -6.448  -3.390  -1.041  0.00  0.00    +0.000 HD
ENDROOT
BRANCH   1   5
ATOM      5  C   UNL A   1      -4.666  -4.318   0.515  0.00  0.00    +0.039 C 
BRANCH   5   6
ATOM      6  C   UNL A   1      -3.612  -3.238   0.351  0.00  0.00    +0.020 C 
BRANCH   6   9
ATOM      7  C   UNL A   1      -1.272  -3.075  -0.398  0.00  0.00    +0.246 C 
ATOM      8  O   UNL A   1      -1.448  -1.985  -0.933  0.00  0.00    -0.270 OA
ATOM      9  N   UNL A   1      -2.289  -3.814   0.180  0.00  0.00    -0.311 N 
ATOM     10  H   UNL A   1      -2.115  -4.736   0.477  0.00  0.00    +0.000 HD
BRANCH   7  16
ATOM     11  C   UNL A   1       1.216  -2.791  -0.139  0.00  0.00    +0.044 A 
ATOM     12  C   UNL A   1       2.472  -3.384   0.076  0.00  0.00    -0.040 A 
ATOM     13  C   UNL A   1       2.636  -4.772   0.052  0.00  0.00    -0.060 A 
ATOM     14  C   UNL A   1       1.539  -5.601  -0.162  0.00  0.00    -0.061 A 
ATOM     15  C   UNL A   1       0.272  -5.043  -0.323  0.00  0.00    -0.048 A 
ATOM     16  C   UNL A   1       0.101  -3.647  -0.280  0.00  0.00    +0.058 A 
BRANCH  11  17
ATOM     17  N   UNL A   1       1.058  -1.381  -0.049  0.00  0.00    -0.314 N 
ATOM     18  H   UNL A   1       0.184  -1.069   0.280  0.00  0.00    +0.000 HD
BRANCH  17  24
ATOM     19  C   UNL A   1       2.713   3.300   0.540  0.00  0.00    -0.039 C 
ATOM     20  C   UNL A   1       2.766   1.946  -0.115  0.00  0.00    -0.046 A 
ATOM     21  C   UNL A   1       3.697   1.732  -1.143  0.00  0.00    -0.058 A 
ATOM     22  C   UNL A   1       3.762   0.507  -1.798  0.00  0.00    -0.060 A 
ATOM     23  C   UNL A   1       2.903  -0.525  -1.427  0.00  0.00    -0.040 A 
ATOM     24  C   UNL A   1       1.995  -0.363  -0.371  0.00  0.00    +0.035 A 
ATOM     25  C   UNL A   1       1.916   0.888   0.287  0.00  0.00    -0.026 A 
ATOM     26  C   UNL A   1       0.889   1.097   1.375  0.00  0.00    -0.038 C 
ENDBRANCH  17  24
ENDBRANCH  11  17
ENDBRANCH   7  16
ENDBRANCH   6   9
ENDBRANCH   5   6
ENDBRANCH   1   5
BRANCH   3  27
ATOM     27  C   UNL A   1      -8.088  -2.723   0.115  0.00  0.00    +0.012 C 
BRANCH  27  28
ATOM     28  C   UNL A   1      -9.124  -3.808   0.405  0.00  0.00    -0.037 C 
BRANCH  28  29
ATOM     29  C   UNL A   1     -10.481  -3.212   0.785  0.00  0.00    -0.052 C 
BRANCH  29  30
ATOM     30  C   UNL A   1     -11.477  -4.317   1.150  0.00  0.00    -0.053 C 
BRANCH  30  31
ATOM     31  C   UNL A   1     -12.818  -3.781   1.663  0.00  0.00    -0.052 C 
BRANCH  31  32
ATOM     32  C   UNL A   1     -13.940  -3.767   0.621  0.00  0.00    -0.037 C 
BRANCH  32  33
ATOM     33  C   UNL A   1     -13.736  -2.746  -0.497  0.00  0.00    +0.009 C 
BRANCH  33  34
ATOM     34  N   UNL A   1     -14.865  -2.725  -1.444  0.00  0.00    -0.343 N 
ATOM     35  H   UNL A   1     -14.814  -3.148  -2.332  0.00  0.00    +0.000 HD
BRANCH  34  36
ATOM     36  C   UNL A   1     -16.032  -2.054  -0.990  0.00  0.00    +0.041 A 
ATOM     37  C   UNL A   1     -17.174  -2.789  -0.599  0.00  0.00    -0.005 A 
ATOM     38  C   UNL A   1     -18.260  -2.075  -0.082  0.00  0.00    +0.047 A 
ATOM     39  N   UNL A   1     -18.254  -0.733   0.090  0.00  0.00    -0.251 NA
ATOM     40  C   UNL A   1     -17.185  -0.032  -0.303  0.00  0.00    +0.074 A 
ATOM     41  C   UNL A   1     -17.228   1.346  -0.153  0.00  0.00    -0.017 A 
ATOM     42  C   UNL A   1     -16.174   2.153  -0.570  0.00  0.00    +0.043 A 
ATOM     43 CL   UNL A   1     -16.268   3.860  -0.371  0.00  0.00    -0.083 Cl
ATOM     44  C   UNL A   1     -15.052   1.589  -1.158  0.00  0.00    -0.043 A 
ATOM     45  C   UNL A   1     -14.991   0.205  -1.310  0.00  0.00    -0.049 A 
ATOM     46  C   UNL A   1     -16.042  -0.635  -0.865  0.00  0.00    +0.022 A 
ATOM     47  C   UNL A   1     -19.516  -2.764   0.390  0.00  0.00    -0.010 C 
ATOM     48  C   UNL A   1     -19.703  -4.152  -0.207  0.00  0.00    -0.047 C 
ATOM     49  C   UNL A   1     -18.421  -4.952  -0.047  0.00  0.00    -0.049 C 
ATOM     50  C   UNL A   1     -17.275  -4.283  -0.805  0.00  0.00    -0.024 C 
ENDBRANCH  34  36
ENDBRANCH  33  34
ENDBRANCH  32  33
ENDBRANCH  31  32
ENDBRANCH  30  31
ENDBRANCH  29  30
ENDBRANCH  28  29
ENDBRANCH  27  28
ENDBRANCH   3  27
TORSDOF 15
