MODEL 1
REMARK VINA RESULT:    -5.426      0.000      0.000
REMARK INTER + INTRA:         -13.320
REMARK INTER:                  -9.391
REMARK INTRA:                  -3.929
REMARK UNBOUND:                -3.929
REMARK  Name = cpd304.pdb
REMARK  17 active torsions:
REMARK  status: ('A' for Active; 'I' for Inactive)
REMARK    1  A    between atoms: C_1  and  C_2
REMARK    2  A    between atoms: C_2  and  C_3
REMARK    3  A    between atoms: C_2  and  C_20
REMARK    4  A    between atoms: C_3  and  C_4
REMARK    5  A    between atoms: C_4  and  C_5
REMARK    6  A    between atoms: C_6  and  C_7
REMARK    7  A    between atoms: C_7  and  O_8
REMARK    8  A    between atoms: C_12  and  C_13
REMARK    9  A    between atoms: C_12  and  C_14
REMARK   10  A    between atoms: C_18  and  C_19
REMARK   11  A    between atoms: C_20  and  C_21
REMARK   12  A    between atoms: C_21  and  O_23
REMARK   13  A    between atoms: O_23  and  C_24
REMARK   14  A    between atoms: C_24  and  C_25
REMARK   15  A    between atoms: C_25  and  C_26
REMARK   16  A    between atoms: C_26  and  C_27
REMARK   17  A    between atoms: C_27  and  N_28
REMARK                            x       y       z     vdW  Elec       q    Type
REMARK                         _______ _______ _______ _____ _____    ______ ____
ROOT
ATOM      1  C   UNL     1      43.118 -21.522 -39.383  0.00  0.00    -0.049 C 
ENDROOT
BRANCH   1   3
ATOM      2  C   UNL     1      41.623 -21.912 -41.361  0.00  0.00    -0.062 C 
ATOM      3  C   UNL     1      41.655 -21.723 -39.841  0.00  0.00    -0.034 C 
BRANCH   3   4
ATOM      4  C   UNL     1      40.714 -20.575 -39.434  0.00  0.00    +0.048 C 
BRANCH   4   5
ATOM      5  C   UNL     1      39.997 -20.885 -38.141  0.00  0.00    +0.307 C 
ATOM      6  O   UNL     1      39.222 -21.819 -37.991  0.00  0.00    -0.251 OA
BRANCH   5   7
ATOM      7  O   UNL     1      40.310 -19.959 -37.191  0.00  0.00    -0.465 OA
BRANCH   7   8
ATOM      8  C   UNL     1      40.540 -20.510 -35.886  0.00  0.00    +0.092 C 
BRANCH   8   9
ATOM      9  C   UNL     1      41.962 -21.064 -35.821  0.00  0.00    -0.017 C 
BRANCH   9  10
ATOM     10  C   UNL     1      43.065 -20.005 -35.946  0.00  0.00    -0.037 C 
BRANCH  10  11
ATOM     11  C   UNL     1      43.936 -19.848 -34.694  0.00  0.00    -0.001 C 
BRANCH  11  12
ATOM     12  N   UNL     1      45.263 -19.292 -35.023  0.00  0.00    -0.302 N 
ATOM     13  C   UNL     1      45.223 -17.826 -35.173  0.00  0.00    -0.001 C 
ATOM     14  C   UNL     1      46.615 -17.256 -35.458  0.00  0.00    -0.040 C 
ATOM     15  C   UNL     1      47.243 -17.904 -36.685  0.00  0.00    -0.051 C 
ATOM     16  C   UNL     1      47.204 -19.421 -36.560  0.00  0.00    -0.040 C 
ATOM     17  C   UNL     1      45.792 -19.919 -36.245  0.00  0.00    -0.001 C 
ATOM     18  H   UNL     1      45.886 -19.503 -34.243  0.00  0.00    +0.000 HD
ENDBRANCH  11  12
ENDBRANCH  10  11
ENDBRANCH   9  10
ENDBRANCH   8   9
ENDBRANCH   7   8
ENDBRANCH   5   7
ENDBRANCH   4   5
ENDBRANCH   3   4
ENDBRANCH   1   3
BRANCH   1  19
ATOM     19  C   UNL     1      44.044 -20.940 -40.466  0.00  0.00    -0.046 C 
BRANCH  19  20
ATOM     20  C   UNL     1      45.077 -19.866 -39.879  0.00  0.00    -0.012 C 
ATOM     21  C   UNL     1      46.489 -20.366 -40.224  0.00  0.00    -0.045 C 
ATOM     22  C   UNL     1      47.276 -19.500 -40.865  0.00  0.00    -0.082 C 
ATOM     23  C   UNL     1      46.793 -18.101 -40.985  0.00  0.00    -0.031 C 
ATOM     24  C   UNL     1      45.649 -17.753 -39.873  0.00  0.00    -0.027 C 
ATOM     25  C   UNL     1      45.871 -16.065 -39.732  0.00  0.00    -0.031 C 
ATOM     26  C   UNL     1      45.491 -15.319 -41.037  0.00  0.00    -0.060 C 
ATOM     27  C   UNL     1      47.330 -15.664 -39.370  0.00  0.00    -0.060 C 
ATOM     28  C   UNL     1      45.023 -15.486 -38.570  0.00  0.00    -0.048 C 
ATOM     29  C   UNL     1      43.670 -16.133 -38.526  0.00  0.00    -0.052 C 
ATOM     30  C   UNL     1      43.920 -17.624 -38.663  0.00  0.00    -0.047 C 
ATOM     31  C   UNL     1      44.756 -18.024 -40.234  0.00  0.00    -0.022 C 
ATOM     32  C   UNL     1      43.864 -18.294 -40.594  0.00  0.00    -0.059 C 
BRANCH  21  33
ATOM     33  C   UNL     1      46.931 -21.723 -39.730  0.00  0.00    +0.066 C 
BRANCH  33  34
ATOM     34  O   UNL     1      48.232 -22.057 -40.195  0.00  0.00    -0.391 OA
ATOM     35  H   UNL     1      48.390 -21.625 -41.049  0.00  0.00    +0.000 HD
ENDBRANCH  33  34
ENDBRANCH  21  33
ENDBRANCH  19  20
ENDBRANCH   1  19
TORSDOF 13
ENDMDL
MODEL 2
REMARK VINA RESULT:    -5.379      2.612      4.304
REMARK INTER + INTRA:         -13.238
REMARK INTER:                 -10.627
REMARK INTRA:                  -2.612
REMARK UNBOUND:                -3.929
REMARK  Name = cpd304.pdb
REMARK  17 active torsions:
REMARK  status: ('A' for Active; 'I' for Inactive)
REMARK    1  A    between atoms: C_1  and  C_2
REMARK    2  A    between atoms: C_2  and  C_3
REMARK    3  A    between atoms: C_2  and  C_20
REMARK    4  A    between atoms: C_3  and  C_4
REMARK    5  A    between atoms: C_4  and  C_5
REMARK    6  A    between atoms: C_6  and  C_7
REMARK    7  A    between atoms: C_7  and  O_8
REMARK    8  A    between atoms: C_12  and  C_13
REMARK    9  A    between atoms: C_12  and  C_14
REMARK   10  A    between atoms: C_18  and  C_19
REMARK   11  A    between atoms: C_20  and  C_21
REMARK   12  A    between atoms: C_21  and  O_23
REMARK   13  A    between atoms: O_23  and  C_24
REMARK   14  A    between atoms: C_24  and  C_25
REMARK   15  A    between atoms: C_25  and  C_26
REMARK   16  A    between atoms: C_26  and  C_27
REMARK   17  A    between atoms: C_27  and  N_28
REMARK                            x       y       z     vdW  Elec       q    Type
REMARK                         _______ _______ _______ _____ _____    ______ ____
ROOT
ATOM      1  C   UNL     1      41.480 -19.761 -38.580  0.00  0.00    -0.049 C 
ENDROOT
BRANCH   1   3
ATOM      2  C   UNL     1      43.209 -18.599 -37.179  0.00  0.00    -0.062 C 
ATOM      3  C   UNL     1      42.057 -19.610 -37.154  0.00  0.00    -0.034 C 
BRANCH   3   4
ATOM      4  C   UNL     1      42.535 -20.936 -36.535  0.00  0.00    +0.048 C 
BRANCH   4   5
ATOM      5  C   UNL     1      41.401 -21.927 -36.417  0.00  0.00    +0.307 C 
ATOM      6  O   UNL     1      41.355 -22.994 -37.014  0.00  0.00    -0.251 OA
BRANCH   5   7
ATOM      7  O   UNL     1      40.436 -21.446 -35.585  0.00  0.00    -0.465 OA
BRANCH   7   8
ATOM      8  C   UNL     1      40.486 -21.980 -34.254  0.00  0.00    +0.092 C 
BRANCH   8   9
ATOM      9  C   UNL     1      39.807 -21.001 -33.297  0.00  0.00    -0.017 C 
BRANCH   9  10
ATOM     10  C   UNL     1      40.732 -19.910 -32.741  0.00  0.00    -0.037 C 
BRANCH  10  11
ATOM     11  C   UNL     1      42.227 -20.234 -32.847  0.00  0.00    -0.001 C 
BRANCH  11  12
ATOM     12  N   UNL     1      43.049 -19.008 -32.852  0.00  0.00    -0.302 N 
ATOM     13  C   UNL     1      42.299 -17.845 -33.359  0.00  0.00    -0.001 C 
ATOM     14  C   UNL     1      43.144 -16.569 -33.305  0.00  0.00    -0.040 C 
ATOM     15  C   UNL     1      44.453 -16.735 -34.065  0.00  0.00    -0.051 C 
ATOM     16  C   UNL     1      45.183 -17.987 -33.594  0.00  0.00    -0.040 C 
ATOM     17  C   UNL     1      44.272 -19.216 -33.645  0.00  0.00    -0.001 C 
ATOM     18  H   UNL     1      43.307 -18.808 -31.886  0.00  0.00    +0.000 HD
ENDBRANCH  11  12
ENDBRANCH  10  11
ENDBRANCH   9  10
ENDBRANCH   8   9
ENDBRANCH   7   8
ENDBRANCH   5   7
ENDBRANCH   4   5
ENDBRANCH   3   4
ENDBRANCH   1   3
BRANCH   1  19
ATOM     19  C   UNL     1      42.485 -19.452 -39.704  0.00  0.00    -0.046 C 
BRANCH  19  20
ATOM     20  C   UNL     1      43.366 -20.729 -40.107  0.00  0.00    -0.012 C 
ATOM     21  C   UNL     1      42.592 -21.480 -41.203  0.00  0.00    -0.045 C 
ATOM     22  C   UNL     1      43.265 -21.731 -42.327  0.00  0.00    -0.082 C 
ATOM     23  C   UNL     1      44.724 -21.458 -42.322  0.00  0.00    -0.031 C 
ATOM     24  C   UNL     1      45.329 -21.398 -40.807  0.00  0.00    -0.027 C 
ATOM     25  C   UNL     1      46.948 -21.851 -41.111  0.00  0.00    -0.031 C 
ATOM     26  C   UNL     1      47.700 -20.787 -41.952  0.00  0.00    -0.060 C 
ATOM     27  C   UNL     1      47.077 -23.212 -41.853  0.00  0.00    -0.060 C 
ATOM     28  C   UNL     1      47.725 -22.069 -39.787  0.00  0.00    -0.048 C 
ATOM     29  C   UNL     1      47.349 -21.029 -38.773  0.00  0.00    -0.052 C 
ATOM     30  C   UNL     1      45.834 -20.948 -38.803  0.00  0.00    -0.047 C 
ATOM     31  C   UNL     1      45.219 -20.469 -40.452  0.00  0.00    -0.022 C 
ATOM     32  C   UNL     1      45.110 -19.541 -40.098  0.00  0.00    -0.059 C 
BRANCH  21  33
ATOM     33  C   UNL     1      41.196 -21.978 -40.909  0.00  0.00    +0.066 C 
BRANCH  33  34
ATOM     34  O   UNL     1      41.191 -22.961 -39.883  0.00  0.00    -0.391 OA
ATOM     35  H   UNL     1      41.075 -23.840 -40.278  0.00  0.00    +0.000 HD
ENDBRANCH  33  34
ENDBRANCH  21  33
ENDBRANCH  19  20
ENDBRANCH   1  19
TORSDOF 13
ENDMDL
MODEL 3
REMARK VINA RESULT:    -5.284      2.725      5.880
REMARK INTER + INTRA:         -13.074
REMARK INTER:                 -10.042
REMARK INTRA:                  -3.032
REMARK UNBOUND:                -3.929
REMARK  Name = cpd304.pdb
REMARK  17 active torsions:
REMARK  status: ('A' for Active; 'I' for Inactive)
REMARK    1  A    between atoms: C_1  and  C_2
REMARK    2  A    between atoms: C_2  and  C_3
REMARK    3  A    between atoms: C_2  and  C_20
REMARK    4  A    between atoms: C_3  and  C_4
REMARK    5  A    between atoms: C_4  and  C_5
REMARK    6  A    between atoms: C_6  and  C_7
REMARK    7  A    between atoms: C_7  and  O_8
REMARK    8  A    between atoms: C_12  and  C_13
REMARK    9  A    between atoms: C_12  and  C_14
REMARK   10  A    between atoms: C_18  and  C_19
REMARK   11  A    between atoms: C_20  and  C_21
REMARK   12  A    between atoms: C_21  and  O_23
REMARK   13  A    between atoms: O_23  and  C_24
REMARK   14  A    between atoms: C_24  and  C_25
REMARK   15  A    between atoms: C_25  and  C_26
REMARK   16  A    between atoms: C_26  and  C_27
REMARK   17  A    between atoms: C_27  and  N_28
REMARK                            x       y       z     vdW  Elec       q    Type
REMARK                         _______ _______ _______ _____ _____    ______ ____
ROOT
ATOM      1  C   UNL     1      42.782 -21.067 -36.819  0.00  0.00    -0.049 C 
ENDROOT
BRANCH   1   3
ATOM      2  C   UNL     1      41.516 -19.825 -35.042  0.00  0.00    -0.062 C 
ATOM      3  C   UNL     1      42.872 -20.437 -35.411  0.00  0.00    -0.034 C 
BRANCH   3   4
ATOM      4  C   UNL     1      43.981 -19.378 -35.276  0.00  0.00    +0.048 C 
BRANCH   4   5
ATOM      5  C   UNL     1      45.323 -20.018 -35.008  0.00  0.00    +0.307 C 
ATOM      6  O   UNL     1      45.573 -20.709 -34.031  0.00  0.00    -0.251 OA
BRANCH   5   7
ATOM      7  O   UNL     1      46.210 -19.685 -35.987  0.00  0.00    -0.465 OA
BRANCH   7   8
ATOM      8  C   UNL     1      46.021 -18.371 -36.532  0.00  0.00    +0.092 C 
BRANCH   8   9
ATOM      9  C   UNL     1      47.118 -18.092 -37.558  0.00  0.00    -0.017 C 
BRANCH   9  10
ATOM     10  C   UNL     1      46.704 -18.338 -39.014  0.00  0.00    -0.037 C 
BRANCH  10  11
ATOM     11  C   UNL     1      46.811 -19.800 -39.464  0.00  0.00    -0.001 C 
BRANCH  11  12
ATOM     12  N   UNL     1      46.058 -20.041 -40.710  0.00  0.00    -0.302 N 
ATOM     13  C   UNL     1      45.133 -18.935 -41.017  0.00  0.00    -0.001 C 
ATOM     14  C   UNL     1      44.400 -19.171 -42.341  0.00  0.00    -0.040 C 
ATOM     15  C   UNL     1      43.662 -20.502 -42.340  0.00  0.00    -0.051 C 
ATOM     16  C   UNL     1      44.604 -21.629 -41.940  0.00  0.00    -0.040 C 
ATOM     17  C   UNL     1      45.324 -21.315 -40.626  0.00  0.00    -0.001 C 
ATOM     18  H   UNL     1      46.734 -20.095 -41.472  0.00  0.00    +0.000 HD
ENDBRANCH  11  12
ENDBRANCH  10  11
ENDBRANCH   9  10
ENDBRANCH   8   9
ENDBRANCH   7   8
ENDBRANCH   5   7
ENDBRANCH   4   5
ENDBRANCH   3   4
ENDBRANCH   1   3
BRANCH   1  19
ATOM     19  C   UNL     1      43.237 -20.136 -37.958  0.00  0.00    -0.046 C 
BRANCH  19  20
ATOM     20  C   UNL     1      42.024 -19.679 -38.899  0.00  0.00    -0.012 C 
ATOM     21  C   UNL     1      41.098 -20.895 -39.061  0.00  0.00    -0.045 C 
ATOM     22  C   UNL     1      39.814 -20.697 -38.760  0.00  0.00    -0.082 C 
ATOM     23  C   UNL     1      39.380 -19.298 -38.514  0.00  0.00    -0.031 C 
ATOM     24  C   UNL     1      40.417 -18.215 -39.159  0.00  0.00    -0.027 C 
ATOM     25  C   UNL     1      39.358 -16.899 -39.413  0.00  0.00    -0.031 C 
ATOM     26  C   UNL     1      38.840 -16.305 -38.078  0.00  0.00    -0.060 C 
ATOM     27  C   UNL     1      38.116 -17.266 -40.276  0.00  0.00    -0.060 C 
ATOM     28  C   UNL     1      40.052 -15.770 -40.216  0.00  0.00    -0.048 C 
ATOM     29  C   UNL     1      41.473 -15.594 -39.765  0.00  0.00    -0.052 C 
ATOM     30  C   UNL     1      42.059 -16.992 -39.686  0.00  0.00    -0.047 C 
ATOM     31  C   UNL     1      41.148 -18.036 -38.501  0.00  0.00    -0.022 C 
ATOM     32  C   UNL     1      41.879 -17.857 -37.842  0.00  0.00    -0.059 C 
BRANCH  21  33
ATOM     33  C   UNL     1      41.655 -22.173 -39.644  0.00  0.00    +0.066 C 
BRANCH  33  34
ATOM     34  O   UNL     1      40.947 -23.316 -39.184  0.00  0.00    -0.391 OA
ATOM     35  H   UNL     1      41.514 -24.099 -39.259  0.00  0.00    +0.000 HD
ENDBRANCH  33  34
ENDBRANCH  21  33
ENDBRANCH  19  20
ENDBRANCH   1  19
TORSDOF 13
ENDMDL
MODEL 4
REMARK VINA RESULT:    -5.270      1.901      3.771
REMARK INTER + INTRA:         -13.049
REMARK INTER:                 -10.122
REMARK INTRA:                  -2.927
REMARK UNBOUND:                -3.929
REMARK  Name = cpd304.pdb
REMARK  17 active torsions:
REMARK  status: ('A' for Active; 'I' for Inactive)
REMARK    1  A    between atoms: C_1  and  C_2
REMARK    2  A    between atoms: C_2  and  C_3
REMARK    3  A    between atoms: C_2  and  C_20
REMARK    4  A    between atoms: C_3  and  C_4
REMARK    5  A    between atoms: C_4  and  C_5
REMARK    6  A    between atoms: C_6  and  C_7
REMARK    7  A    between atoms: C_7  and  O_8
REMARK    8  A    between atoms: C_12  and  C_13
REMARK    9  A    between atoms: C_12  and  C_14
REMARK   10  A    between atoms: C_18  and  C_19
REMARK   11  A    between atoms: C_20  and  C_21
REMARK   12  A    between atoms: C_21  and  O_23
REMARK   13  A    between atoms: O_23  and  C_24
REMARK   14  A    between atoms: C_24  and  C_25
REMARK   15  A    between atoms: C_25  and  C_26
REMARK   16  A    between atoms: C_26  and  C_27
REMARK   17  A    between atoms: C_27  and  N_28
REMARK                            x       y       z     vdW  Elec       q    Type
REMARK                         _______ _______ _______ _____ _____    ______ ____
ROOT
ATOM      1  C   UNL     1      42.089 -20.159 -39.687  0.00  0.00    -0.049 C 
ENDROOT
BRANCH   1   3
ATOM      2  C   UNL     1      41.429 -22.228 -40.946  0.00  0.00    -0.062 C 
ATOM      3  C   UNL     1      41.684 -21.644 -39.552  0.00  0.00    -0.034 C 
BRANCH   3   4
ATOM      4  C   UNL     1      40.455 -21.873 -38.654  0.00  0.00    +0.048 C 
BRANCH   4   5
ATOM      5  C   UNL     1      40.860 -22.099 -37.216  0.00  0.00    +0.307 C 
ATOM      6  O   UNL     1      41.230 -23.175 -36.767  0.00  0.00    -0.251 OA
BRANCH   5   7
ATOM      7  O   UNL     1      40.720 -20.950 -36.498  0.00  0.00    -0.465 OA
BRANCH   7   8
ATOM      8  C   UNL     1      40.681 -21.145 -35.077  0.00  0.00    +0.092 C 
BRANCH   8   9
ATOM      9  C   UNL     1      41.219 -19.893 -34.385  0.00  0.00    -0.017 C 
BRANCH   9  10
ATOM     10  C   UNL     1      42.239 -19.099 -35.211  0.00  0.00    -0.037 C 
BRANCH  10  11
ATOM     11  C   UNL     1      43.513 -18.719 -34.447  0.00  0.00    -0.001 C 
BRANCH  11  12
ATOM     12  N   UNL     1      44.701 -18.750 -35.322  0.00  0.00    -0.302 N 
ATOM     13  C   UNL     1      45.197 -20.123 -35.527  0.00  0.00    -0.001 C 
ATOM     14  C   UNL     1      46.394 -20.147 -36.482  0.00  0.00    -0.040 C 
ATOM     15  C   UNL     1      47.516 -19.239 -35.994  0.00  0.00    -0.051 C 
ATOM     16  C   UNL     1      46.977 -17.844 -35.703  0.00  0.00    -0.040 C 
ATOM     17  C   UNL     1      45.766 -17.897 -34.769  0.00  0.00    -0.001 C 
ATOM     18  H   UNL     1      44.421 -18.386 -36.232  0.00  0.00    +0.000 HD
ENDBRANCH  11  12
ENDBRANCH  10  11
ENDBRANCH   9  10
ENDBRANCH   8   9
ENDBRANCH   7   8
ENDBRANCH   5   7
ENDBRANCH   4   5
ENDBRANCH   3   4
ENDBRANCH   1   3
BRANCH   1  19
ATOM     19  C   UNL     1      43.450 -19.816 -39.054  0.00  0.00    -0.046 C 
BRANCH  19  20
ATOM     20  C   UNL     1      44.610 -19.648 -40.146  0.00  0.00    -0.012 C 
ATOM     21  C   UNL     1      45.120 -18.202 -40.041  0.00  0.00    -0.045 C 
ATOM     22  C   UNL     1      46.435 -18.055 -39.872  0.00  0.00    -0.082 C 
ATOM     23  C   UNL     1      47.279 -19.269 -40.017  0.00  0.00    -0.031 C 
ATOM     24  C   UNL     1      46.521 -20.442 -40.861  0.00  0.00    -0.027 C 
ATOM     25  C   UNL     1      47.870 -21.272 -41.501  0.00  0.00    -0.031 C 
ATOM     26  C   UNL     1      48.704 -21.965 -40.393  0.00  0.00    -0.060 C 
ATOM     27  C   UNL     1      48.832 -20.353 -42.308  0.00  0.00    -0.060 C 
ATOM     28  C   UNL     1      47.429 -22.347 -42.527  0.00  0.00    -0.048 C 
ATOM     29  C   UNL     1      46.190 -23.052 -42.059  0.00  0.00    -0.052 C 
ATOM     30  C   UNL     1      45.243 -21.961 -41.592  0.00  0.00    -0.047 C 
ATOM     31  C   UNL     1      45.964 -20.984 -40.231  0.00  0.00    -0.022 C 
ATOM     32  C   UNL     1      45.406 -21.525 -39.601  0.00  0.00    -0.059 C 
BRANCH  21  33
ATOM     33  C   UNL     1      44.150 -17.062 -40.246  0.00  0.00    +0.066 C 
BRANCH  33  34
ATOM     34  O   UNL     1      44.683 -16.062 -41.103  0.00  0.00    -0.391 OA
ATOM     35  H   UNL     1      44.883 -16.452 -41.969  0.00  0.00    +0.000 HD
ENDBRANCH  33  34
ENDBRANCH  21  33
ENDBRANCH  19  20
ENDBRANCH   1  19
TORSDOF 13
ENDMDL
MODEL 5
REMARK VINA RESULT:    -5.189      2.746      7.476
REMARK INTER + INTRA:         -12.909
REMARK INTER:                 -10.534
REMARK INTRA:                  -2.376
REMARK UNBOUND:                -3.929
REMARK  Name = cpd304.pdb
REMARK  17 active torsions:
REMARK  status: ('A' for Active; 'I' for Inactive)
REMARK    1  A    between atoms: C_1  and  C_2
REMARK    2  A    between atoms: C_2  and  C_3
REMARK    3  A    between atoms: C_2  and  C_20
REMARK    4  A    between atoms: C_3  and  C_4
REMARK    5  A    between atoms: C_4  and  C_5
REMARK    6  A    between atoms: C_6  and  C_7
REMARK    7  A    between atoms: C_7  and  O_8
REMARK    8  A    between atoms: C_12  and  C_13
REMARK    9  A    between atoms: C_12  and  C_14
REMARK   10  A    between atoms: C_18  and  C_19
REMARK   11  A    between atoms: C_20  and  C_21
REMARK   12  A    between atoms: C_21  and  O_23
REMARK   13  A    between atoms: O_23  and  C_24
REMARK   14  A    between atoms: C_24  and  C_25
REMARK   15  A    between atoms: C_25  and  C_26
REMARK   16  A    between atoms: C_26  and  C_27
REMARK   17  A    between atoms: C_27  and  N_28
REMARK                            x       y       z     vdW  Elec       q    Type
REMARK                         _______ _______ _______ _____ _____    ______ ____
ROOT
ATOM      1  C   UNL     1      42.325 -20.103 -38.125  0.00  0.00    -0.049 C 
ENDROOT
BRANCH   1   3
ATOM      2  C   UNL     1      43.534 -20.481 -35.957  0.00  0.00    -0.062 C 
ATOM      3  C   UNL     1      43.470 -19.605 -37.213  0.00  0.00    -0.034 C 
BRANCH   3   4
ATOM      4  C   UNL     1      43.347 -18.124 -36.815  0.00  0.00    +0.048 C 
BRANCH   4   5
ATOM      5  C   UNL     1      44.514 -17.316 -37.333  0.00  0.00    +0.307 C 
ATOM      6  O   UNL     1      44.436 -16.495 -38.236  0.00  0.00    -0.251 OA
BRANCH   5   7
ATOM      7  O   UNL     1      45.658 -17.661 -36.677  0.00  0.00    -0.465 OA
BRANCH   7   8
ATOM      8  C   UNL     1      46.790 -17.864 -37.534  0.00  0.00    +0.092 C 
BRANCH   8   9
ATOM      9  C   UNL     1      47.134 -19.353 -37.564  0.00  0.00    -0.017 C 
BRANCH   9  10
ATOM     10  C   UNL     1      47.115 -19.982 -38.963  0.00  0.00    -0.037 C 
BRANCH  10  11
ATOM     11  C   UNL     1      46.178 -21.189 -39.100  0.00  0.00    -0.001 C 
BRANCH  11  12
ATOM     12  N   UNL     1      45.319 -21.076 -40.295  0.00  0.00    -0.302 N 
ATOM     13  C   UNL     1      45.864 -21.832 -41.437  0.00  0.00    -0.001 C 
ATOM     14  C   UNL     1      44.935 -21.753 -42.652  0.00  0.00    -0.040 C 
ATOM     15  C   UNL     1      44.657 -20.309 -43.049  0.00  0.00    -0.051 C 
ATOM     16  C   UNL     1      44.175 -19.513 -41.843  0.00  0.00    -0.040 C 
ATOM     17  C   UNL     1      45.132 -19.661 -40.658  0.00  0.00    -0.001 C 
ATOM     18  H   UNL     1      44.414 -21.484 -40.062  0.00  0.00    +0.000 HD
ENDBRANCH  11  12
ENDBRANCH  10  11
ENDBRANCH   9  10
ENDBRANCH   8   9
ENDBRANCH   7   8
ENDBRANCH   5   7
ENDBRANCH   4   5
ENDBRANCH   3   4
ENDBRANCH   1   3
BRANCH   1  19
ATOM     19  C   UNL     1      40.937 -19.551 -37.751  0.00  0.00    -0.046 C 
BRANCH  19  20
ATOM     20  C   UNL     1      39.996 -20.661 -37.080  0.00  0.00    -0.012 C 
ATOM     21  C   UNL     1      40.501 -22.030 -37.564  0.00  0.00    -0.045 C 
ATOM     22  C   UNL     1      40.780 -22.921 -36.612  0.00  0.00    -0.082 C 
ATOM     23  C   UNL     1      40.378 -22.582 -35.224  0.00  0.00    -0.031 C 
ATOM     24  C   UNL     1      39.216 -21.436 -35.188  0.00  0.00    -0.027 C 
ATOM     25  C   UNL     1      38.465 -21.816 -33.701  0.00  0.00    -0.031 C 
ATOM     26  C   UNL     1      39.404 -21.560 -32.494  0.00  0.00    -0.060 C 
ATOM     27  C   UNL     1      37.981 -23.292 -33.615  0.00  0.00    -0.060 C 
ATOM     28  C   UNL     1      37.171 -20.985 -33.500  0.00  0.00    -0.048 C 
ATOM     29  C   UNL     1      37.367 -19.574 -33.974  0.00  0.00    -0.052 C 
ATOM     30  C   UNL     1      38.043 -19.682 -35.329  0.00  0.00    -0.047 C 
ATOM     31  C   UNL     1      39.650 -20.536 -35.213  0.00  0.00    -0.022 C 
ATOM     32  C   UNL     1      40.085 -19.635 -35.238  0.00  0.00    -0.059 C 
BRANCH  21  33
ATOM     33  C   UNL     1      40.540 -22.319 -39.047  0.00  0.00    +0.066 C 
BRANCH  33  34
ATOM     34  O   UNL     1      40.409 -23.708 -39.318  0.00  0.00    -0.391 OA
ATOM     35  H   UNL     1      40.986 -24.209 -38.721  0.00  0.00    +0.000 HD
ENDBRANCH  33  34
ENDBRANCH  21  33
ENDBRANCH  19  20
ENDBRANCH   1  19
TORSDOF 13
ENDMDL
MODEL 6
REMARK VINA RESULT:    -5.186      2.998      6.322
REMARK INTER + INTRA:         -12.905
REMARK INTER:                 -10.520
REMARK INTRA:                  -2.385
REMARK UNBOUND:                -3.929
REMARK  Name = cpd304.pdb
REMARK  17 active torsions:
REMARK  status: ('A' for Active; 'I' for Inactive)
REMARK    1  A    between atoms: C_1  and  C_2
REMARK    2  A    between atoms: C_2  and  C_3
REMARK    3  A    between atoms: C_2  and  C_20
REMARK    4  A    between atoms: C_3  and  C_4
REMARK    5  A    between atoms: C_4  and  C_5
REMARK    6  A    between atoms: C_6  and  C_7
REMARK    7  A    between atoms: C_7  and  O_8
REMARK    8  A    between atoms: C_12  and  C_13
REMARK    9  A    between atoms: C_12  and  C_14
REMARK   10  A    between atoms: C_18  and  C_19
REMARK   11  A    between atoms: C_20  and  C_21
REMARK   12  A    between atoms: C_21  and  O_23
REMARK   13  A    between atoms: O_23  and  C_24
REMARK   14  A    between atoms: C_24  and  C_25
REMARK   15  A    between atoms: C_25  and  C_26
REMARK   16  A    between atoms: C_26  and  C_27
REMARK   17  A    between atoms: C_27  and  N_28
REMARK                            x       y       z     vdW  Elec       q    Type
REMARK                         _______ _______ _______ _____ _____    ______ ____
ROOT
ATOM      1  C   UNL     1      40.880 -19.705 -33.616  0.00  0.00    -0.049 C 
ENDROOT
BRANCH   1   3
ATOM      2  C   UNL     1      41.152 -22.064 -32.802  0.00  0.00    -0.062 C 
ATOM      3  C   UNL     1      40.688 -21.195 -33.977  0.00  0.00    -0.034 C 
BRANCH   3   4
ATOM      4  C   UNL     1      41.418 -21.620 -35.264  0.00  0.00    +0.048 C 
BRANCH   4   5
ATOM      5  C   UNL     1      40.457 -22.207 -36.272  0.00  0.00    +0.307 C 
ATOM      6  O   UNL     1      40.256 -23.404 -36.415  0.00  0.00    -0.251 OA
BRANCH   5   7
ATOM      7  O   UNL     1      39.882 -21.216 -37.011  0.00  0.00    -0.465 OA
BRANCH   7   8
ATOM      8  C   UNL     1      40.817 -20.404 -37.735  0.00  0.00    +0.092 C 
BRANCH   8   9
ATOM      9  C   UNL     1      41.212 -21.123 -39.024  0.00  0.00    -0.017 C 
BRANCH   9  10
ATOM     10  C   UNL     1      42.721 -21.157 -39.297  0.00  0.00    -0.037 C 
BRANCH  10  11
ATOM     11  C   UNL     1      43.106 -20.869 -40.753  0.00  0.00    -0.001 C 
BRANCH  11  12
ATOM     12  N   UNL     1      44.535 -21.144 -41.002  0.00  0.00    -0.302 N 
ATOM     13  C   UNL     1      44.746 -21.835 -42.286  0.00  0.00    -0.001 C 
ATOM     14  C   UNL     1      46.236 -22.064 -42.558  0.00  0.00    -0.040 C 
ATOM     15  C   UNL     1      46.899 -22.831 -41.422  0.00  0.00    -0.051 C 
ATOM     16  C   UNL     1      46.604 -22.158 -40.087  0.00  0.00    -0.040 C 
ATOM     17  C   UNL     1      45.103 -21.933 -39.896  0.00  0.00    -0.001 C 
ATOM     18  H   UNL     1      45.016 -20.247 -41.054  0.00  0.00    +0.000 HD
ENDBRANCH  11  12
ENDBRANCH  10  11
ENDBRANCH   9  10
ENDBRANCH   8   9
ENDBRANCH   7   8
ENDBRANCH   5   7
ENDBRANCH   4   5
ENDBRANCH   3   4
ENDBRANCH   1   3
BRANCH   1  19
ATOM     19  C   UNL     1      42.225 -19.387 -32.937  0.00  0.00    -0.046 C 
BRANCH  19  20
ATOM     20  C   UNL     1      43.153 -18.434 -33.830  0.00  0.00    -0.012 C 
ATOM     21  C   UNL     1      43.246 -17.085 -33.099  0.00  0.00    -0.045 C 
ATOM     22  C   UNL     1      44.478 -16.632 -32.863  0.00  0.00    -0.082 C 
ATOM     23  C   UNL     1      45.604 -17.353 -33.508  0.00  0.00    -0.031 C 
ATOM     24  C   UNL     1      45.110 -18.234 -34.790  0.00  0.00    -0.027 C 
ATOM     25  C   UNL     1      46.551 -18.266 -35.707  0.00  0.00    -0.031 C 
ATOM     26  C   UNL     1      47.672 -19.069 -34.998  0.00  0.00    -0.060 C 
ATOM     27  C   UNL     1      47.114 -16.849 -36.019  0.00  0.00    -0.060 C 
ATOM     28  C   UNL     1      46.309 -18.890 -37.105  0.00  0.00    -0.048 C 
ATOM     29  C   UNL     1      45.382 -20.066 -37.009  0.00  0.00    -0.052 C 
ATOM     30  C   UNL     1      44.231 -19.615 -36.128  0.00  0.00    -0.047 C 
ATOM     31  C   UNL     1      44.806 -19.130 -34.467  0.00  0.00    -0.022 C 
ATOM     32  C   UNL     1      44.502 -20.027 -34.144  0.00  0.00    -0.059 C 
BRANCH  21  33
ATOM     33  C   UNL     1      41.979 -16.319 -32.801  0.00  0.00    +0.066 C 
BRANCH  33  34
ATOM     34  O   UNL     1      42.251 -14.986 -32.390  0.00  0.00    -0.391 OA
ATOM     35  H   UNL     1      41.435 -14.576 -32.062  0.00  0.00    +0.000 HD
ENDBRANCH  33  34
ENDBRANCH  21  33
ENDBRANCH  19  20
ENDBRANCH   1  19
TORSDOF 13
ENDMDL
MODEL 7
REMARK VINA RESULT:    -5.116      3.053      5.458
REMARK INTER + INTRA:         -12.784
REMARK INTER:                  -9.745
REMARK INTRA:                  -3.039
REMARK UNBOUND:                -3.929
REMARK  Name = cpd304.pdb
REMARK  17 active torsions:
REMARK  status: ('A' for Active; 'I' for Inactive)
REMARK    1  A    between atoms: C_1  and  C_2
REMARK    2  A    between atoms: C_2  and  C_3
REMARK    3  A    between atoms: C_2  and  C_20
REMARK    4  A    between atoms: C_3  and  C_4
REMARK    5  A    between atoms: C_4  and  C_5
REMARK    6  A    between atoms: C_6  and  C_7
REMARK    7  A    between atoms: C_7  and  O_8
REMARK    8  A    between atoms: C_12  and  C_13
REMARK    9  A    between atoms: C_12  and  C_14
REMARK   10  A    between atoms: C_18  and  C_19
REMARK   11  A    between atoms: C_20  and  C_21
REMARK   12  A    between atoms: C_21  and  O_23
REMARK   13  A    between atoms: O_23  and  C_24
REMARK   14  A    between atoms: C_24  and  C_25
REMARK   15  A    between atoms: C_25  and  C_26
REMARK   16  A    between atoms: C_26  and  C_27
REMARK   17  A    between atoms: C_27  and  N_28
REMARK                            x       y       z     vdW  Elec       q    Type
REMARK                         _______ _______ _______ _____ _____    ______ ____
ROOT
ATOM      1  C   UNL     1      37.883 -19.930 -34.618  0.00  0.00    -0.049 C 
ENDROOT
BRANCH   1   3
ATOM      2  C   UNL     1      36.540 -20.936 -32.750  0.00  0.00    -0.062 C 
ATOM      3  C   UNL     1      37.832 -21.062 -33.566  0.00  0.00    -0.034 C 
BRANCH   3   4
ATOM      4  C   UNL     1      39.048 -21.088 -32.624  0.00  0.00    +0.048 C 
BRANCH   4   5
ATOM      5  C   UNL     1      39.779 -22.408 -32.706  0.00  0.00    +0.307 C 
ATOM      6  O   UNL     1      39.230 -23.500 -32.692  0.00  0.00    -0.251 OA
BRANCH   5   7
ATOM      7  O   UNL     1      41.125 -22.202 -32.763  0.00  0.00    -0.465 OA
BRANCH   7   8
ATOM      8  C   UNL     1      41.505 -20.822 -32.867  0.00  0.00    +0.092 C 
BRANCH   8   9
ATOM      9  C   UNL     1      42.459 -20.654 -34.049  0.00  0.00    -0.017 C 
BRANCH   9  10
ATOM     10  C   UNL     1      43.638 -19.709 -33.786  0.00  0.00    -0.037 C 
BRANCH  10  11
ATOM     11  C   UNL     1      44.987 -20.221 -34.307  0.00  0.00    -0.001 C 
BRANCH  11  12
ATOM     12  N   UNL     1      45.594 -19.276 -35.264  0.00  0.00    -0.302 N 
ATOM     13  C   UNL     1      46.861 -19.788 -35.814  0.00  0.00    -0.001 C 
ATOM     14  C   UNL     1      47.452 -18.824 -36.847  0.00  0.00    -0.040 C 
ATOM     15  C   UNL     1      47.645 -17.431 -36.264  0.00  0.00    -0.051 C 
ATOM     16  C   UNL     1      46.353 -16.943 -35.622  0.00  0.00    -0.040 C 
ATOM     17  C   UNL     1      45.804 -17.966 -34.625  0.00  0.00    -0.001 C 
ATOM     18  H   UNL     1      44.944 -19.168 -36.042  0.00  0.00    +0.000 HD
ENDBRANCH  11  12
ENDBRANCH  10  11
ENDBRANCH   9  10
ENDBRANCH   8   9
ENDBRANCH   7   8
ENDBRANCH   5   7
ENDBRANCH   4   5
ENDBRANCH   3   4
ENDBRANCH   1   3
BRANCH   1  19
ATOM     19  C   UNL     1      38.197 -20.410 -36.046  0.00  0.00    -0.046 C 
BRANCH  19  20
ATOM     20  C   UNL     1      39.766 -20.384 -36.370  0.00  0.00    -0.012 C 
ATOM     21  C   UNL     1      40.132 -21.768 -36.932  0.00  0.00    -0.045 C 
ATOM     22  C   UNL     1      40.759 -21.775 -38.109  0.00  0.00    -0.082 C 
ATOM     23  C   UNL     1      41.223 -20.468 -38.640  0.00  0.00    -0.031 C 
ATOM     24  C   UNL     1      41.349 -19.342 -37.466  0.00  0.00    -0.027 C 
ATOM     25  C   UNL     1      42.547 -18.331 -38.145  0.00  0.00    -0.031 C 
ATOM     26  C   UNL     1      42.043 -17.613 -39.424  0.00  0.00    -0.060 C 
ATOM     27  C   UNL     1      43.854 -19.090 -38.517  0.00  0.00    -0.060 C 
ATOM     28  C   UNL     1      43.013 -17.256 -37.130  0.00  0.00    -0.048 C 
ATOM     29  C   UNL     1      41.848 -16.722 -36.350  0.00  0.00    -0.052 C 
ATOM     30  C   UNL     1      41.049 -17.937 -35.913  0.00  0.00    -0.047 C 
ATOM     31  C   UNL     1      40.459 -18.902 -37.344  0.00  0.00    -0.022 C 
ATOM     32  C   UNL     1      39.569 -18.463 -37.222  0.00  0.00    -0.059 C 
BRANCH  21  33
ATOM     33  C   UNL     1      39.872 -22.996 -36.091  0.00  0.00    +0.066 C 
BRANCH  33  34
ATOM     34  O   UNL     1      39.060 -23.942 -36.774  0.00  0.00    -0.391 OA
ATOM     35  H   UNL     1      38.149 -23.882 -36.447  0.00  0.00    +0.000 HD
ENDBRANCH  33  34
ENDBRANCH  21  33
ENDBRANCH  19  20
ENDBRANCH   1  19
TORSDOF 13
ENDMDL
MODEL 8
REMARK VINA RESULT:    -5.112      2.428      6.635
REMARK INTER + INTRA:         -12.777
REMARK INTER:                 -10.202
REMARK INTRA:                  -2.575
REMARK UNBOUND:                -3.929
REMARK  Name = cpd304.pdb
REMARK  17 active torsions:
REMARK  status: ('A' for Active; 'I' for Inactive)
REMARK    1  A    between atoms: C_1  and  C_2
REMARK    2  A    between atoms: C_2  and  C_3
REMARK    3  A    between atoms: C_2  and  C_20
REMARK    4  A    between atoms: C_3  and  C_4
REMARK    5  A    between atoms: C_4  and  C_5
REMARK    6  A    between atoms: C_6  and  C_7
REMARK    7  A    between atoms: C_7  and  O_8
REMARK    8  A    between atoms: C_12  and  C_13
REMARK    9  A    between atoms: C_12  and  C_14
REMARK   10  A    between atoms: C_18  and  C_19
REMARK   11  A    between atoms: C_20  and  C_21
REMARK   12  A    between atoms: C_21  and  O_23
REMARK   13  A    between atoms: O_23  and  C_24
REMARK   14  A    between atoms: C_24  and  C_25
REMARK   15  A    between atoms: C_25  and  C_26
REMARK   16  A    between atoms: C_26  and  C_27
REMARK   17  A    between atoms: C_27  and  N_28
REMARK                            x       y       z     vdW  Elec       q    Type
REMARK                         _______ _______ _______ _____ _____    ______ ____
ROOT
ATOM      1  C   UNL     1      43.754 -19.313 -37.722  0.00  0.00    -0.049 C 
ENDROOT
BRANCH   1   3
ATOM      2  C   UNL     1      42.042 -17.955 -38.957  0.00  0.00    -0.062 C 
ATOM      3  C   UNL     1      43.114 -19.041 -39.102  0.00  0.00    -0.034 C 
BRANCH   3   4
ATOM      4  C   UNL     1      42.508 -20.293 -39.762  0.00  0.00    +0.048 C 
BRANCH   4   5
ATOM      5  C   UNL     1      43.413 -20.837 -40.842  0.00  0.00    +0.307 C 
ATOM      6  O   UNL     1      43.355 -20.510 -42.019  0.00  0.00    -0.251 OA
BRANCH   5   7
ATOM      7  O   UNL     1      44.269 -21.762 -40.321  0.00  0.00    -0.465 OA
BRANCH   7   8
ATOM      8  C   UNL     1      45.591 -21.718 -40.876  0.00  0.00    +0.092 C 
BRANCH   8   9
ATOM      9  C   UNL     1      46.606 -22.013 -39.773  0.00  0.00    -0.017 C 
BRANCH   9  10
ATOM     10  C   UNL     1      47.392 -20.788 -39.287  0.00  0.00    -0.037 C 
BRANCH  10  11
ATOM     11  C   UNL     1      46.866 -19.448 -39.817  0.00  0.00    -0.001 C 
BRANCH  11  12
ATOM     12  N   UNL     1      47.204 -18.335 -38.909  0.00  0.00    -0.302 N 
ATOM     13  C   UNL     1      47.090 -18.727 -37.493  0.00  0.00    -0.001 C 
ATOM     14  C   UNL     1      47.498 -17.582 -36.562  0.00  0.00    -0.040 C 
ATOM     15  C   UNL     1      46.684 -16.324 -36.837  0.00  0.00    -0.051 C 
ATOM     16  C   UNL     1      46.737 -15.973 -38.318  0.00  0.00    -0.040 C 
ATOM     17  C   UNL     1      46.348 -17.170 -39.189  0.00  0.00    -0.001 C 
ATOM     18  H   UNL     1      48.177 -18.084 -39.080  0.00  0.00    +0.000 HD
ENDBRANCH  11  12
ENDBRANCH  10  11
ENDBRANCH   9  10
ENDBRANCH   8   9
ENDBRANCH   7   8
ENDBRANCH   5   7
ENDBRANCH   4   5
ENDBRANCH   3   4
ENDBRANCH   1   3
BRANCH   1  19
ATOM     19  C   UNL     1      42.899 -18.854 -36.528  0.00  0.00    -0.046 C 
BRANCH  19  20
ATOM     20  C   UNL     1      42.472 -20.070 -35.575  0.00  0.00    -0.012 C 
ATOM     21  C   UNL     1      43.174 -19.850 -34.225  0.00  0.00    -0.045 C 
ATOM     22  C   UNL     1      42.387 -19.853 -33.149  0.00  0.00    -0.082 C 
ATOM     23  C   UNL     1      40.976 -20.276 -33.339  0.00  0.00    -0.031 C 
ATOM     24  C   UNL     1      40.779 -21.149 -34.704  0.00  0.00    -0.027 C 
ATOM     25  C   UNL     1      39.414 -22.080 -34.271  0.00  0.00    -0.031 C 
ATOM     26  C   UNL     1      38.147 -21.204 -34.095  0.00  0.00    -0.060 C 
ATOM     27  C   UNL     1      39.611 -22.889 -32.956  0.00  0.00    -0.060 C 
ATOM     28  C   UNL     1      39.116 -23.165 -35.338  0.00  0.00    -0.048 C 
ATOM     29  C   UNL     1      39.323 -22.620 -36.721  0.00  0.00    -0.052 C 
ATOM     30  C   UNL     1      40.649 -21.883 -36.683  0.00  0.00    -0.047 C 
ATOM     31  C   UNL     1      40.627 -20.523 -35.468  0.00  0.00    -0.022 C 
ATOM     32  C   UNL     1      40.474 -19.896 -36.232  0.00  0.00    -0.059 C 
BRANCH  21  33
ATOM     33  C   UNL     1      44.682 -19.761 -34.185  0.00  0.00    +0.066 C 
BRANCH  33  34
ATOM     34  O   UNL     1      45.271 -20.975 -33.736  0.00  0.00    -0.391 OA
ATOM     35  H   UNL     1      44.587 -21.539 -33.343  0.00  0.00    +0.000 HD
ENDBRANCH  33  34
ENDBRANCH  21  33
ENDBRANCH  19  20
ENDBRANCH   1  19
TORSDOF 13
ENDMDL
MODEL 9
REMARK VINA RESULT:    -5.084      2.527      4.427
REMARK INTER + INTRA:         -12.728
REMARK INTER:                  -9.996
REMARK INTRA:                  -2.732
REMARK UNBOUND:                -3.929
REMARK  Name = cpd304.pdb
REMARK  17 active torsions:
REMARK  status: ('A' for Active; 'I' for Inactive)
REMARK    1  A    between atoms: C_1  and  C_2
REMARK    2  A    between atoms: C_2  and  C_3
REMARK    3  A    between atoms: C_2  and  C_20
REMARK    4  A    between atoms: C_3  and  C_4
REMARK    5  A    between atoms: C_4  and  C_5
REMARK    6  A    between atoms: C_6  and  C_7
REMARK    7  A    between atoms: C_7  and  O_8
REMARK    8  A    between atoms: C_12  and  C_13
REMARK    9  A    between atoms: C_12  and  C_14
REMARK   10  A    between atoms: C_18  and  C_19
REMARK   11  A    between atoms: C_20  and  C_21
REMARK   12  A    between atoms: C_21  and  O_23
REMARK   13  A    between atoms: O_23  and  C_24
REMARK   14  A    between atoms: C_24  and  C_25
REMARK   15  A    between atoms: C_25  and  C_26
REMARK   16  A    between atoms: C_26  and  C_27
REMARK   17  A    between atoms: C_27  and  N_28
REMARK                            x       y       z     vdW  Elec       q    Type
REMARK                         _______ _______ _______ _____ _____    ______ ____
ROOT
ATOM      1  C   UNL     1      42.389 -18.784 -37.033  0.00  0.00    -0.049 C 
ENDROOT
BRANCH   1   3
ATOM      2  C   UNL     1      39.943 -19.238 -36.695  0.00  0.00    -0.062 C 
ATOM      3  C   UNL     1      41.253 -19.810 -37.248  0.00  0.00    -0.034 C 
BRANCH   3   4
ATOM      4  C   UNL     1      41.533 -21.186 -36.618  0.00  0.00    +0.048 C 
BRANCH   4   5
ATOM      5  C   UNL     1      40.858 -22.293 -37.393  0.00  0.00    +0.307 C 
ATOM      6  O   UNL     1      40.702 -22.287 -38.605  0.00  0.00    -0.251 OA
BRANCH   5   7
ATOM      7  O   UNL     1      40.425 -23.269 -36.546  0.00  0.00    -0.465 OA
BRANCH   7   8
ATOM      8  C   UNL     1      39.093 -23.071 -36.052  0.00  0.00    +0.092 C 
BRANCH   8   9
ATOM      9  C   UNL     1      39.082 -23.292 -34.540  0.00  0.00    -0.017 C 
BRANCH   9  10
ATOM     10  C   UNL     1      39.392 -22.038 -33.712  0.00  0.00    -0.037 C 
BRANCH  10  11
ATOM     11  C   UNL     1      40.773 -22.046 -33.046  0.00  0.00    -0.001 C 
BRANCH  11  12
ATOM     12  N   UNL     1      41.234 -20.678 -32.737  0.00  0.00    -0.302 N 
ATOM     13  C   UNL     1      40.210 -19.667 -33.056  0.00  0.00    -0.001 C 
ATOM     14  C   UNL     1      40.679 -18.259 -32.679  0.00  0.00    -0.040 C 
ATOM     15  C   UNL     1      42.002 -17.913 -33.350  0.00  0.00    -0.051 C 
ATOM     16  C   UNL     1      43.030 -19.005 -33.086  0.00  0.00    -0.040 C 
ATOM     17  C   UNL     1      42.486 -20.386 -33.456  0.00  0.00    -0.001 C 
ATOM     18  H   UNL     1      41.408 -20.632 -31.733  0.00  0.00    +0.000 HD
ENDBRANCH  11  12
ENDBRANCH  10  11
ENDBRANCH   9  10
ENDBRANCH   8   9
ENDBRANCH   7   8
ENDBRANCH   5   7
ENDBRANCH   4   5
ENDBRANCH   3   4
ENDBRANCH   1   3
BRANCH   1  19
ATOM     19  C   UNL     1      43.792 -19.408 -36.932  0.00  0.00    -0.046 C 
BRANCH  19  20
ATOM     20  C   UNL     1      44.735 -19.000 -38.162  0.00  0.00    -0.012 C 
ATOM     21  C   UNL     1      45.961 -18.286 -37.571  0.00  0.00    -0.045 C 
ATOM     22  C   UNL     1      47.150 -18.770 -37.931  0.00  0.00    -0.082 C 
ATOM     23  C   UNL     1      47.172 -19.788 -39.011  0.00  0.00    -0.031 C 
ATOM     24  C   UNL     1      45.812 -19.750 -39.914  0.00  0.00    -0.027 C 
ATOM     25  C   UNL     1      46.412 -20.370 -41.389  0.00  0.00    -0.031 C 
ATOM     26  C   UNL     1      46.841 -21.855 -41.262  0.00  0.00    -0.060 C 
ATOM     27  C   UNL     1      47.631 -19.575 -41.941  0.00  0.00    -0.060 C 
ATOM     28  C   UNL     1      45.351 -20.260 -42.514  0.00  0.00    -0.048 C 
ATOM     29  C   UNL     1      43.985 -20.592 -41.989  0.00  0.00    -0.052 C 
ATOM     30  C   UNL     1      43.845 -19.828 -40.685  0.00  0.00    -0.047 C 
ATOM     31  C   UNL     1      45.118 -20.322 -39.477  0.00  0.00    -0.022 C 
ATOM     32  C   UNL     1      44.425 -20.894 -39.040  0.00  0.00    -0.059 C 
BRANCH  21  33
ATOM     33  C   UNL     1      45.758 -17.043 -36.736  0.00  0.00    +0.066 C 
BRANCH  33  34
ATOM     34  O   UNL     1      46.989 -16.395 -36.445  0.00  0.00    -0.391 OA
ATOM     35  H   UNL     1      46.928 -15.460 -36.694  0.00  0.00    +0.000 HD
ENDBRANCH  33  34
ENDBRANCH  21  33
ENDBRANCH  19  20
ENDBRANCH   1  19
TORSDOF 13
ENDMDL
MODEL 10
REMARK VINA RESULT:    -5.080      1.627      2.463
REMARK INTER + INTRA:         -12.720
REMARK INTER:                  -8.872
REMARK INTRA:                  -3.848
REMARK UNBOUND:                -3.929
REMARK  Name = cpd304.pdb
REMARK  17 active torsions:
REMARK  status: ('A' for Active; 'I' for Inactive)
REMARK    1  A    between atoms: C_1  and  C_2
REMARK    2  A    between atoms: C_2  and  C_3
REMARK    3  A    between atoms: C_2  and  C_20
REMARK    4  A    between atoms: C_3  and  C_4
REMARK    5  A    between atoms: C_4  and  C_5
REMARK    6  A    between atoms: C_6  and  C_7
REMARK    7  A    between atoms: C_7  and  O_8
REMARK    8  A    between atoms: C_12  and  C_13
REMARK    9  A    between atoms: C_12  and  C_14
REMARK   10  A    between atoms: C_18  and  C_19
REMARK   11  A    between atoms: C_20  and  C_21
REMARK   12  A    between atoms: C_21  and  O_23
REMARK   13  A    between atoms: O_23  and  C_24
REMARK   14  A    between atoms: C_24  and  C_25
REMARK   15  A    between atoms: C_25  and  C_26
REMARK   16  A    between atoms: C_26  and  C_27
REMARK   17  A    between atoms: C_27  and  N_28
REMARK                            x       y       z     vdW  Elec       q    Type
REMARK                         _______ _______ _______ _____ _____    ______ ____
ROOT
ATOM      1  C   UNL     1      42.348 -21.512 -37.967  0.00  0.00    -0.049 C 
ENDROOT
BRANCH   1   3
ATOM      2  C   UNL     1      39.941 -21.285 -38.644  0.00  0.00    -0.062 C 
ATOM      3  C   UNL     1      40.894 -21.421 -37.451  0.00  0.00    -0.034 C 
BRANCH   3   4
ATOM      4  C   UNL     1      40.660 -20.268 -36.458  0.00  0.00    +0.048 C 
BRANCH   4   5
ATOM      5  C   UNL     1      41.587 -20.369 -35.270  0.00  0.00    +0.307 C 
ATOM      6  O   UNL     1      41.569 -21.284 -34.458  0.00  0.00    -0.251 OA
BRANCH   5   7
ATOM      7  O   UNL     1      42.413 -19.286 -35.219  0.00  0.00    -0.465 OA
BRANCH   7   8
ATOM      8  C   UNL     1      42.310 -18.524 -34.008  0.00  0.00    +0.092 C 
BRANCH   8   9
ATOM      9  C   UNL     1      43.485 -17.551 -33.929  0.00  0.00    -0.017 C 
BRANCH   9  10
ATOM     10  C   UNL     1      44.817 -18.193 -33.519  0.00  0.00    -0.037 C 
BRANCH  10  11
ATOM     11  C   UNL     1      46.030 -17.697 -34.315  0.00  0.00    -0.001 C 
BRANCH  11  12
ATOM     12  N   UNL     1      46.017 -18.210 -35.699  0.00  0.00    -0.302 N 
ATOM     13  C   UNL     1      46.132 -19.679 -35.742  0.00  0.00    -0.001 C 
ATOM     14  C   UNL     1      46.061 -20.203 -37.179  0.00  0.00    -0.040 C 
ATOM     15  C   UNL     1      47.121 -19.556 -38.062  0.00  0.00    -0.051 C 
ATOM     16  C   UNL     1      47.051 -18.039 -37.946  0.00  0.00    -0.040 C 
ATOM     17  C   UNL     1      47.096 -17.588 -36.485  0.00  0.00    -0.001 C 
ATOM     18  H   UNL     1      45.119 -17.961 -36.110  0.00  0.00    +0.000 HD
ENDBRANCH  11  12
ENDBRANCH  10  11
ENDBRANCH   9  10
ENDBRANCH   8   9
ENDBRANCH   7   8
ENDBRANCH   5   7
ENDBRANCH   4   5
ENDBRANCH   3   4
ENDBRANCH   1   3
BRANCH   1  19
ATOM     19  C   UNL     1      42.516 -21.130 -39.449  0.00  0.00    -0.046 C 
BRANCH  19  20
ATOM     20  C   UNL     1      43.707 -20.083 -39.681  0.00  0.00    -0.012 C 
ATOM     21  C   UNL     1      44.635 -20.688 -40.747  0.00  0.00    -0.045 C 
ATOM     22  C   UNL     1      44.897 -19.915 -41.802  0.00  0.00    -0.082 C 
ATOM     23  C   UNL     1      44.451 -18.500 -41.736  0.00  0.00    -0.031 C 
ATOM     24  C   UNL     1      44.192 -18.013 -40.200  0.00  0.00    -0.027 C 
ATOM     25  C   UNL     1      44.472 -16.336 -40.365  0.00  0.00    -0.031 C 
ATOM     26  C   UNL     1      43.399 -15.654 -41.254  0.00  0.00    -0.060 C 
ATOM     27  C   UNL     1      45.865 -16.000 -40.971  0.00  0.00    -0.060 C 
ATOM     28  C   UNL     1      44.483 -15.632 -38.984  0.00  0.00    -0.048 C 
ATOM     29  C   UNL     1      43.414 -16.193 -38.093  0.00  0.00    -0.052 C 
ATOM     30  C   UNL     1      43.518 -17.703 -38.219  0.00  0.00    -0.047 C 
ATOM     31  C   UNL     1      43.257 -18.252 -39.939  0.00  0.00    -0.022 C 
ATOM     32  C   UNL     1      42.322 -18.491 -39.678  0.00  0.00    -0.059 C 
BRANCH  21  33
ATOM     33  C   UNL     1      45.270 -22.035 -40.492  0.00  0.00    +0.066 C 
BRANCH  33  34
ATOM     34  O   UNL     1      46.688 -21.975 -40.579  0.00  0.00    -0.391 OA
ATOM     35  H   UNL     1      46.964 -21.057 -40.724  0.00  0.00    +0.000 HD
ENDBRANCH  33  34
ENDBRANCH  21  33
ENDBRANCH  19  20
ENDBRANCH   1  19
TORSDOF 13
ENDMDL
MODEL 11
REMARK VINA RESULT:    -5.033      2.405      6.215
REMARK INTER + INTRA:         -12.639
REMARK INTER:                  -9.592
REMARK INTRA:                  -3.048
REMARK UNBOUND:                -3.929
REMARK  Name = cpd304.pdb
REMARK  17 active torsions:
REMARK  status: ('A' for Active; 'I' for Inactive)
REMARK    1  A    between atoms: C_1  and  C_2
REMARK    2  A    between atoms: C_2  and  C_3
REMARK    3  A    between atoms: C_2  and  C_20
REMARK    4  A    between atoms: C_3  and  C_4
REMARK    5  A    between atoms: C_4  and  C_5
REMARK    6  A    between atoms: C_6  and  C_7
REMARK    7  A    between atoms: C_7  and  O_8
REMARK    8  A    between atoms: C_12  and  C_13
REMARK    9  A    between atoms: C_12  and  C_14
REMARK   10  A    between atoms: C_18  and  C_19
REMARK   11  A    between atoms: C_20  and  C_21
REMARK   12  A    between atoms: C_21  and  O_23
REMARK   13  A    between atoms: O_23  and  C_24
REMARK   14  A    between atoms: C_24  and  C_25
REMARK   15  A    between atoms: C_25  and  C_26
REMARK   16  A    between atoms: C_26  and  C_27
REMARK   17  A    between atoms: C_27  and  N_28
REMARK                            x       y       z     vdW  Elec       q    Type
REMARK                         _______ _______ _______ _____ _____    ______ ____
ROOT
ATOM      1  C   UNL     1      44.324 -20.031 -35.227  0.00  0.00    -0.049 C 
ENDROOT
BRANCH   1   3
ATOM      2  C   UNL     1      43.580 -18.370 -33.497  0.00  0.00    -0.062 C 
ATOM      3  C   UNL     1      44.797 -18.957 -34.220  0.00  0.00    -0.034 C 
BRANCH   3   4
ATOM      4  C   UNL     1      45.624 -17.828 -34.861  0.00  0.00    +0.048 C 
BRANCH   4   5
ATOM      5  C   UNL     1      47.046 -18.267 -35.119  0.00  0.00    +0.307 C 
ATOM      6  O   UNL     1      47.623 -19.139 -34.486  0.00  0.00    -0.251 OA
BRANCH   5   7
ATOM      7  O   UNL     1      47.593 -17.530 -36.127  0.00  0.00    -0.465 OA
BRANCH   7   8
ATOM      8  C   UNL     1      46.716 -16.534 -36.672  0.00  0.00    +0.092 C 
BRANCH   8   9
ATOM      9  C   UNL     1      47.522 -15.593 -37.566  0.00  0.00    -0.017 C 
BRANCH   9  10
ATOM     10  C   UNL     1      46.733 -14.388 -38.096  0.00  0.00    -0.037 C 
BRANCH  10  11
ATOM     11  C   UNL     1      46.583 -14.352 -39.622  0.00  0.00    -0.001 C 
BRANCH  11  12
ATOM     12  N   UNL     1      45.240 -14.793 -40.046  0.00  0.00    -0.302 N 
ATOM     13  C   UNL     1      44.267 -14.731 -38.941  0.00  0.00    -0.001 C 
ATOM     14  C   UNL     1      42.866 -15.137 -39.408  0.00  0.00    -0.040 C 
ATOM     15  C   UNL     1      42.869 -16.522 -40.042  0.00  0.00    -0.051 C 
ATOM     16  C   UNL     1      43.936 -16.604 -41.125  0.00  0.00    -0.040 C 
ATOM     17  C   UNL     1      45.301 -16.156 -40.600  0.00  0.00    -0.001 C 
ATOM     18  H   UNL     1      44.921 -14.152 -40.771  0.00  0.00    +0.000 HD
ENDBRANCH  11  12
ENDBRANCH  10  11
ENDBRANCH   9  10
ENDBRANCH   8   9
ENDBRANCH   7   8
ENDBRANCH   5   7
ENDBRANCH   4   5
ENDBRANCH   3   4
ENDBRANCH   1   3
BRANCH   1  19
ATOM     19  C   UNL     1      43.638 -19.460 -36.481  0.00  0.00    -0.046 C 
BRANCH  19  20
ATOM     20  C   UNL     1      43.720 -20.458 -37.732  0.00  0.00    -0.012 C 
ATOM     21  C   UNL     1      42.275 -20.777 -38.148  0.00  0.00    -0.045 C 
ATOM     22  C   UNL     1      41.973 -20.564 -39.429  0.00  0.00    -0.082 C 
ATOM     23  C   UNL     1      43.096 -20.253 -40.350  0.00  0.00    -0.031 C 
ATOM     24  C   UNL     1      44.533 -20.737 -39.746  0.00  0.00    -0.027 C 
ATOM     25  C   UNL     1      45.403 -20.978 -41.196  0.00  0.00    -0.031 C 
ATOM     26  C   UNL     1      45.645 -19.648 -41.955  0.00  0.00    -0.060 C 
ATOM     27  C   UNL     1      44.702 -21.959 -42.179  0.00  0.00    -0.060 C 
ATOM     28  C   UNL     1      46.776 -21.642 -40.919  0.00  0.00    -0.048 C 
ATOM     29  C   UNL     1      47.403 -21.071 -39.681  0.00  0.00    -0.052 C 
ATOM     30  C   UNL     1      46.305 -21.046 -38.634  0.00  0.00    -0.047 C 
ATOM     31  C   UNL     1      44.897 -20.013 -39.160  0.00  0.00    -0.022 C 
ATOM     32  C   UNL     1      45.262 -19.289 -38.575  0.00  0.00    -0.059 C 
BRANCH  21  33
ATOM     33  C   UNL     1      41.341 -21.405 -37.140  0.00  0.00    +0.066 C 
BRANCH  33  34
ATOM     34  O   UNL     1      41.292 -22.819 -37.273  0.00  0.00    -0.391 OA
ATOM     35  H   UNL     1      40.382 -23.095 -37.464  0.00  0.00    +0.000 HD
ENDBRANCH  33  34
ENDBRANCH  21  33
ENDBRANCH  19  20
ENDBRANCH   1  19
TORSDOF 13
ENDMDL
MODEL 12
REMARK VINA RESULT:    -5.009      3.248      7.447
REMARK INTER + INTRA:         -12.597
REMARK INTER:                 -10.644
REMARK INTRA:                  -1.953
REMARK UNBOUND:                -3.929
REMARK  Name = cpd304.pdb
REMARK  17 active torsions:
REMARK  status: ('A' for Active; 'I' for Inactive)
REMARK    1  A    between atoms: C_1  and  C_2
REMARK    2  A    between atoms: C_2  and  C_3
REMARK    3  A    between atoms: C_2  and  C_20
REMARK    4  A    between atoms: C_3  and  C_4
REMARK    5  A    between atoms: C_4  and  C_5
REMARK    6  A    between atoms: C_6  and  C_7
REMARK    7  A    between atoms: C_7  and  O_8
REMARK    8  A    between atoms: C_12  and  C_13
REMARK    9  A    between atoms: C_12  and  C_14
REMARK   10  A    between atoms: C_18  and  C_19
REMARK   11  A    between atoms: C_20  and  C_21
REMARK   12  A    between atoms: C_21  and  O_23
REMARK   13  A    between atoms: O_23  and  C_24
REMARK   14  A    between atoms: C_24  and  C_25
REMARK   15  A    between atoms: C_25  and  C_26
REMARK   16  A    between atoms: C_26  and  C_27
REMARK   17  A    between atoms: C_27  and  N_28
REMARK                            x       y       z     vdW  Elec       q    Type
REMARK                         _______ _______ _______ _____ _____    ______ ____
ROOT
ATOM      1  C   UNL     1      40.677 -22.787 -35.723  0.00  0.00    -0.049 C 
ENDROOT
BRANCH   1   3
ATOM      2  C   UNL     1      40.938 -22.220 -38.155  0.00  0.00    -0.062 C 
ATOM      3  C   UNL     1      41.097 -21.688 -36.726  0.00  0.00    -0.034 C 
BRANCH   3   4
ATOM      4  C   UNL     1      42.531 -21.171 -36.515  0.00  0.00    +0.048 C 
BRANCH   4   5
ATOM      5  C   UNL     1      42.583 -19.662 -36.552  0.00  0.00    +0.307 C 
ATOM      6  O   UNL     1      41.652 -18.950 -36.901  0.00  0.00    -0.251 OA
BRANCH   5   7
ATOM      7  O   UNL     1      43.816 -19.220 -36.176  0.00  0.00    -0.465 OA
BRANCH   7   8
ATOM      8  C   UNL     1      44.808 -20.253 -36.083  0.00  0.00    +0.092 C 
BRANCH   8   9
ATOM      9  C   UNL     1      45.909 -19.983 -37.107  0.00  0.00    -0.017 C 
BRANCH   9  10
ATOM     10  C   UNL     1      45.831 -20.851 -38.370  0.00  0.00    -0.037 C 
BRANCH  10  11
ATOM     11  C   UNL     1      45.623 -20.062 -39.668  0.00  0.00    -0.001 C 
BRANCH  11  12
ATOM     12  N   UNL     1      46.072 -20.828 -40.847  0.00  0.00    -0.302 N 
ATOM     13  C   UNL     1      44.985 -21.643 -41.419  0.00  0.00    -0.001 C 
ATOM     14  C   UNL     1      45.449 -22.389 -42.674  0.00  0.00    -0.040 C 
ATOM     15  C   UNL     1      46.672 -23.250 -42.391  0.00  0.00    -0.051 C 
ATOM     16  C   UNL     1      47.760 -22.420 -41.722  0.00  0.00    -0.040 C 
ATOM     17  C   UNL     1      47.221 -21.679 -40.496  0.00  0.00    -0.001 C 
ATOM     18  H   UNL     1      46.359 -20.157 -41.558  0.00  0.00    +0.000 HD
ENDBRANCH  11  12
ENDBRANCH  10  11
ENDBRANCH   9  10
ENDBRANCH   8   9
ENDBRANCH   7   8
ENDBRANCH   5   7
ENDBRANCH   4   5
ENDBRANCH   3   4
ENDBRANCH   1   3
BRANCH   1  19
ATOM     19  C   UNL     1      39.301 -22.554 -35.072  0.00  0.00    -0.046 C 
BRANCH  19  20
ATOM     20  C   UNL     1      39.367 -21.517 -33.853  0.00  0.00    -0.012 C 
ATOM     21  C   UNL     1      40.686 -21.780 -33.110  0.00  0.00    -0.045 C 
ATOM     22  C   UNL     1      41.479 -20.723 -32.932  0.00  0.00    -0.082 C 
ATOM     23  C   UNL     1      40.921 -19.389 -33.270  0.00  0.00    -0.031 C 
ATOM     24  C   UNL     1      39.289 -19.400 -33.300  0.00  0.00    -0.027 C 
ATOM     25  C   UNL     1      38.970 -17.763 -32.932  0.00  0.00    -0.031 C 
ATOM     26  C   UNL     1      39.447 -16.811 -34.060  0.00  0.00    -0.060 C 
ATOM     27  C   UNL     1      39.634 -17.289 -31.607  0.00  0.00    -0.060 C 
ATOM     28  C   UNL     1      37.456 -17.527 -32.699  0.00  0.00    -0.048 C 
ATOM     29  C   UNL     1      36.639 -18.312 -33.683  0.00  0.00    -0.052 C 
ATOM     30  C   UNL     1      37.235 -19.708 -33.696  0.00  0.00    -0.047 C 
ATOM     31  C   UNL     1      38.985 -19.686 -34.209  0.00  0.00    -0.022 C 
ATOM     32  C   UNL     1      38.681 -19.972 -35.117  0.00  0.00    -0.059 C 
BRANCH  21  33
ATOM     33  C   UNL     1      40.948 -23.154 -32.539  0.00  0.00    +0.066 C 
BRANCH  33  34
ATOM     34  O   UNL     1      42.330 -23.366 -32.283  0.00  0.00    -0.391 OA
ATOM     35  H   UNL     1      42.856 -22.946 -32.983  0.00  0.00    +0.000 HD
ENDBRANCH  33  34
ENDBRANCH  21  33
ENDBRANCH  19  20
ENDBRANCH   1  19
TORSDOF 13
ENDMDL
MODEL 13
REMARK VINA RESULT:    -4.958      2.536      5.271
REMARK INTER + INTRA:         -12.511
REMARK INTER:                  -9.243
REMARK INTRA:                  -3.268
REMARK UNBOUND:                -3.929
REMARK  Name = cpd304.pdb
REMARK  17 active torsions:
REMARK  status: ('A' for Active; 'I' for Inactive)
REMARK    1  A    between atoms: C_1  and  C_2
REMARK    2  A    between atoms: C_2  and  C_3
REMARK    3  A    between atoms: C_2  and  C_20
REMARK    4  A    between atoms: C_3  and  C_4
REMARK    5  A    between atoms: C_4  and  C_5
REMARK    6  A    between atoms: C_6  and  C_7
REMARK    7  A    between atoms: C_7  and  O_8
REMARK    8  A    between atoms: C_12  and  C_13
REMARK    9  A    between atoms: C_12  and  C_14
REMARK   10  A    between atoms: C_18  and  C_19
REMARK   11  A    between atoms: C_20  and  C_21
REMARK   12  A    between atoms: C_21  and  O_23
REMARK   13  A    between atoms: O_23  and  C_24
REMARK   14  A    between atoms: C_24  and  C_25
REMARK   15  A    between atoms: C_25  and  C_26
REMARK   16  A    between atoms: C_26  and  C_27
REMARK   17  A    between atoms: C_27  and  N_28
REMARK                            x       y       z     vdW  Elec       q    Type
REMARK                         _______ _______ _______ _____ _____    ______ ____
ROOT
ATOM      1  C   UNL     1      45.473 -16.585 -35.769  0.00  0.00    -0.049 C 
ENDROOT
BRANCH   1   3
ATOM      2  C   UNL     1      43.151 -16.262 -36.667  0.00  0.00    -0.062 C 
ATOM      3  C   UNL     1      44.050 -17.185 -35.836  0.00  0.00    -0.034 C 
BRANCH   3   4
ATOM      4  C   UNL     1      43.416 -17.433 -34.456  0.00  0.00    +0.048 C 
BRANCH   4   5
ATOM      5  C   UNL     1      43.886 -18.740 -33.863  0.00  0.00    +0.307 C 
ATOM      6  O   UNL     1      44.974 -18.901 -33.328  0.00  0.00    -0.251 OA
BRANCH   5   7
ATOM      7  O   UNL     1      42.944 -19.709 -34.040  0.00  0.00    -0.465 OA
BRANCH   7   8
ATOM      8  C   UNL     1      42.375 -20.208 -32.821  0.00  0.00    +0.092 C 
BRANCH   8   9
ATOM      9  C   UNL     1      40.853 -20.225 -32.949  0.00  0.00    -0.017 C 
BRANCH   9  10
ATOM     10  C   UNL     1      40.271 -21.554 -33.447  0.00  0.00    -0.037 C 
BRANCH  10  11
ATOM     11  C   UNL     1      39.817 -21.537 -34.912  0.00  0.00    -0.001 C 
BRANCH  11  12
ATOM     12  N   UNL     1      40.766 -20.794 -35.765  0.00  0.00    -0.302 N 
ATOM     13  C   UNL     1      40.072 -19.896 -36.705  0.00  0.00    -0.001 C 
ATOM     14  C   UNL     1      41.067 -19.090 -37.545  0.00  0.00    -0.040 C 
ATOM     15  C   UNL     1      42.035 -20.001 -38.289  0.00  0.00    -0.051 C 
ATOM     16  C   UNL     1      42.684 -20.984 -37.324  0.00  0.00    -0.040 C 
ATOM     17  C   UNL     1      41.635 -21.730 -36.497  0.00  0.00    -0.001 C 
ATOM     18  H   UNL     1      41.339 -20.214 -35.154  0.00  0.00    +0.000 HD
ENDBRANCH  11  12
ENDBRANCH  10  11
ENDBRANCH   9  10
ENDBRANCH   8   9
ENDBRANCH   7   8
ENDBRANCH   5   7
ENDBRANCH   4   5
ENDBRANCH   3   4
ENDBRANCH   1   3
BRANCH   1  19
ATOM     19  C   UNL     1      46.166 -16.448 -37.137  0.00  0.00    -0.046 C 
BRANCH  19  20
ATOM     20  C   UNL     1      46.855 -17.814 -37.614  0.00  0.00    -0.012 C 
ATOM     21  C   UNL     1      47.223 -18.599 -36.345  0.00  0.00    -0.045 C 
ATOM     22  C   UNL     1      46.768 -19.852 -36.280  0.00  0.00    -0.082 C 
ATOM     23  C   UNL     1      46.153 -20.417 -37.507  0.00  0.00    -0.031 C 
ATOM     24  C   UNL     1      46.608 -19.605 -38.848  0.00  0.00    -0.027 C 
ATOM     25  C   UNL     1      46.439 -20.837 -40.019  0.00  0.00    -0.031 C 
ATOM     26  C   UNL     1      44.958 -21.256 -40.211  0.00  0.00    -0.060 C 
ATOM     27  C   UNL     1      47.249 -22.122 -39.681  0.00  0.00    -0.060 C 
ATOM     28  C   UNL     1      47.004 -20.387 -41.390  0.00  0.00    -0.048 C 
ATOM     29  C   UNL     1      46.653 -18.954 -41.664  0.00  0.00    -0.052 C 
ATOM     30  C   UNL     1      46.968 -18.198 -40.385  0.00  0.00    -0.047 C 
ATOM     31  C   UNL     1      45.994 -18.826 -38.977  0.00  0.00    -0.022 C 
ATOM     32  C   UNL     1      45.381 -18.047 -39.106  0.00  0.00    -0.059 C 
BRANCH  21  33
ATOM     33  C   UNL     1      48.145 -17.968 -35.329  0.00  0.00    +0.066 C 
BRANCH  33  34
ATOM     34  O   UNL     1      47.895 -18.451 -34.016  0.00  0.00    -0.391 OA
ATOM     35  H   UNL     1      47.945 -19.419 -34.013  0.00  0.00    +0.000 HD
ENDBRANCH  33  34
ENDBRANCH  21  33
ENDBRANCH  19  20
ENDBRANCH   1  19
TORSDOF 13
ENDMDL
MODEL 14
REMARK VINA RESULT:    -4.937      2.446      3.621
REMARK INTER + INTRA:         -12.473
REMARK INTER:                  -9.557
REMARK INTRA:                  -2.916
REMARK UNBOUND:                -3.929
REMARK  Name = cpd304.pdb
REMARK  17 active torsions:
REMARK  status: ('A' for Active; 'I' for Inactive)
REMARK    1  A    between atoms: C_1  and  C_2
REMARK    2  A    between atoms: C_2  and  C_3
REMARK    3  A    between atoms: C_2  and  C_20
REMARK    4  A    between atoms: C_3  and  C_4
REMARK    5  A    between atoms: C_4  and  C_5
REMARK    6  A    between atoms: C_6  and  C_7
REMARK    7  A    between atoms: C_7  and  O_8
REMARK    8  A    between atoms: C_12  and  C_13
REMARK    9  A    between atoms: C_12  and  C_14
REMARK   10  A    between atoms: C_18  and  C_19
REMARK   11  A    between atoms: C_20  and  C_21
REMARK   12  A    between atoms: C_21  and  O_23
REMARK   13  A    between atoms: O_23  and  C_24
REMARK   14  A    between atoms: C_24  and  C_25
REMARK   15  A    between atoms: C_25  and  C_26
REMARK   16  A    between atoms: C_26  and  C_27
REMARK   17  A    between atoms: C_27  and  N_28
REMARK                            x       y       z     vdW  Elec       q    Type
REMARK                         _______ _______ _______ _____ _____    ______ ____
ROOT
ATOM      1  C   UNL     1      41.770 -22.221 -39.350  0.00  0.00    -0.049 C 
ENDROOT
BRANCH   1   3
ATOM      2  C   UNL     1      39.643 -20.993 -38.829  0.00  0.00    -0.062 C 
ATOM      3  C   UNL     1      40.534 -22.172 -38.423  0.00  0.00    -0.034 C 
BRANCH   3   4
ATOM      4  C   UNL     1      40.885 -22.075 -36.927  0.00  0.00    +0.048 C 
BRANCH   4   5
ATOM      5  C   UNL     1      39.883 -22.823 -36.078  0.00  0.00    +0.307 C 
ATOM      6  O   UNL     1      39.269 -23.812 -36.450  0.00  0.00    -0.251 OA
BRANCH   5   7
ATOM      7  O   UNL     1      39.743 -22.216 -34.866  0.00  0.00    -0.465 OA
BRANCH   7   8
ATOM      8  C   UNL     1      40.362 -22.921 -33.780  0.00  0.00    +0.092 C 
BRANCH   8   9
ATOM      9  C   UNL     1      40.048 -22.199 -32.471  0.00  0.00    -0.017 C 
BRANCH   9  10
ATOM     10  C   UNL     1      39.868 -20.682 -32.609  0.00  0.00    -0.037 C 
BRANCH  10  11
ATOM     11  C   UNL     1      41.168 -19.877 -32.492  0.00  0.00    -0.001 C 
BRANCH  11  12
ATOM     12  N   UNL     1      41.092 -18.610 -33.246  0.00  0.00    -0.302 N 
ATOM     13  C   UNL     1      40.786 -18.835 -34.670  0.00  0.00    -0.001 C 
ATOM     14  C   UNL     1      40.654 -17.511 -35.429  0.00  0.00    -0.040 C 
ATOM     15  C   UNL     1      41.904 -16.654 -35.278  0.00  0.00    -0.051 C 
ATOM     16  C   UNL     1      42.262 -16.497 -33.806  0.00  0.00    -0.040 C 
ATOM     17  C   UNL     1      42.348 -17.854 -33.104  0.00  0.00    -0.001 C 
ATOM     18  H   UNL     1      40.327 -18.063 -32.851  0.00  0.00    +0.000 HD
ENDBRANCH  11  12
ENDBRANCH  10  11
ENDBRANCH   9  10
ENDBRANCH   8   9
ENDBRANCH   7   8
ENDBRANCH   5   7
ENDBRANCH   4   5
ENDBRANCH   3   4
ENDBRANCH   1   3
BRANCH   1  19
ATOM     19  C   UNL     1      42.081 -20.890 -40.057  0.00  0.00    -0.046 C 
BRANCH  19  20
ATOM     20  C   UNL     1      43.557 -20.355 -39.736  0.00  0.00    -0.012 C 
ATOM     21  C   UNL     1      44.235 -20.068 -41.085  0.00  0.00    -0.045 C 
ATOM     22  C   UNL     1      44.750 -18.847 -41.234  0.00  0.00    -0.082 C 
ATOM     23  C   UNL     1      44.806 -17.981 -40.029  0.00  0.00    -0.031 C 
ATOM     24  C   UNL     1      44.715 -18.848 -38.649  0.00  0.00    -0.027 C 
ATOM     25  C   UNL     1      45.544 -17.804 -37.582  0.00  0.00    -0.031 C 
ATOM     26  C   UNL     1      44.771 -16.480 -37.348  0.00  0.00    -0.060 C 
ATOM     27  C   UNL     1      46.974 -17.432 -38.071  0.00  0.00    -0.060 C 
ATOM     28  C   UNL     1      45.782 -18.482 -36.208  0.00  0.00    -0.048 C 
ATOM     29  C   UNL     1      44.579 -19.278 -35.794  0.00  0.00    -0.052 C 
ATOM     30  C   UNL     1      44.170 -20.078 -37.018  0.00  0.00    -0.047 C 
ATOM     31  C   UNL     1      43.752 -18.992 -38.422  0.00  0.00    -0.022 C 
ATOM     32  C   UNL     1      42.789 -19.135 -38.194  0.00  0.00    -0.059 C 
BRANCH  21  33
ATOM     33  C   UNL     1      44.377 -21.187 -42.090  0.00  0.00    +0.066 C 
BRANCH  33  34
ATOM     34  O   UNL     1      45.014 -20.748 -43.283  0.00  0.00    -0.391 OA
ATOM     35  H   UNL     1      44.665 -19.879 -43.534  0.00  0.00    +0.000 HD
ENDBRANCH  33  34
ENDBRANCH  21  33
ENDBRANCH  19  20
ENDBRANCH   1  19
TORSDOF 13
ENDMDL
MODEL 15
REMARK VINA RESULT:    -4.915      2.373      5.096
REMARK INTER + INTRA:         -12.436
REMARK INTER:                  -8.658
REMARK INTRA:                  -3.778
REMARK UNBOUND:                -3.929
REMARK  Name = cpd304.pdb
REMARK  17 active torsions:
REMARK  status: ('A' for Active; 'I' for Inactive)
REMARK    1  A    between atoms: C_1  and  C_2
REMARK    2  A    between atoms: C_2  and  C_3
REMARK    3  A    between atoms: C_2  and  C_20
REMARK    4  A    between atoms: C_3  and  C_4
REMARK    5  A    between atoms: C_4  and  C_5
REMARK    6  A    between atoms: C_6  and  C_7
REMARK    7  A    between atoms: C_7  and  O_8
REMARK    8  A    between atoms: C_12  and  C_13
REMARK    9  A    between atoms: C_12  and  C_14
REMARK   10  A    between atoms: C_18  and  C_19
REMARK   11  A    between atoms: C_20  and  C_21
REMARK   12  A    between atoms: C_21  and  O_23
REMARK   13  A    between atoms: O_23  and  C_24
REMARK   14  A    between atoms: C_24  and  C_25
REMARK   15  A    between atoms: C_25  and  C_26
REMARK   16  A    between atoms: C_26  and  C_27
REMARK   17  A    between atoms: C_27  and  N_28
REMARK                            x       y       z     vdW  Elec       q    Type
REMARK                         _______ _______ _______ _____ _____    ______ ____
ROOT
ATOM      1  C   UNL     1      46.214 -17.706 -36.095  0.00  0.00    -0.049 C 
ENDROOT
BRANCH   1   3
ATOM      2  C   UNL     1      47.897 -19.085 -34.843  0.00  0.00    -0.062 C 
ATOM      3  C   UNL     1      46.428 -18.651 -34.891  0.00  0.00    -0.034 C 
BRANCH   3   4
ATOM      4  C   UNL     1      45.515 -19.890 -34.904  0.00  0.00    +0.048 C 
BRANCH   4   5
ATOM      5  C   UNL     1      44.097 -19.531 -34.525  0.00  0.00    +0.307 C 
ATOM      6  O   UNL     1      43.799 -18.777 -33.610  0.00  0.00    -0.251 OA
BRANCH   5   7
ATOM      7  O   UNL     1      43.211 -20.191 -35.324  0.00  0.00    -0.465 OA
BRANCH   7   8
ATOM      8  C   UNL     1      42.109 -20.779 -34.619  0.00  0.00    +0.092 C 
BRANCH   8   9
ATOM      9  C   UNL     1      40.801 -20.282 -35.231  0.00  0.00    -0.017 C 
BRANCH   9  10
ATOM     10  C   UNL     1      40.973 -19.440 -36.502  0.00  0.00    -0.037 C 
BRANCH  10  11
ATOM     11  C   UNL     1      40.699 -17.943 -36.311  0.00  0.00    -0.001 C 
BRANCH  11  12
ATOM     12  N   UNL     1      41.290 -17.140 -37.400  0.00  0.00    -0.302 N 
ATOM     13  C   UNL     1      41.089 -17.769 -38.718  0.00  0.00    -0.001 C 
ATOM     14  C   UNL     1      41.656 -16.899 -39.843  0.00  0.00    -0.040 C 
ATOM     15  C   UNL     1      43.129 -16.585 -39.618  0.00  0.00    -0.051 C 
ATOM     16  C   UNL     1      43.340 -16.015 -38.222  0.00  0.00    -0.040 C 
ATOM     17  C   UNL     1      42.724 -16.917 -37.151  0.00  0.00    -0.001 C 
ATOM     18  H   UNL     1      40.809 -16.241 -37.413  0.00  0.00    +0.000 HD
ENDBRANCH  11  12
ENDBRANCH  10  11
ENDBRANCH   9  10
ENDBRANCH   8   9
ENDBRANCH   7   8
ENDBRANCH   5   7
ENDBRANCH   4   5
ENDBRANCH   3   4
ENDBRANCH   1   3
BRANCH   1  19
ATOM     19  C   UNL     1      47.090 -18.034 -37.318  0.00  0.00    -0.046 C 
BRANCH  19  20
ATOM     20  C   UNL     1      46.251 -18.067 -38.683  0.00  0.00    -0.012 C 
ATOM     21  C   UNL     1      46.912 -17.063 -39.640  0.00  0.00    -0.045 C 
ATOM     22  C   UNL     1      47.254 -17.535 -40.840  0.00  0.00    -0.082 C 
ATOM     23  C   UNL     1      46.776 -18.895 -41.197  0.00  0.00    -0.031 C 
ATOM     24  C   UNL     1      45.499 -19.351 -40.288  0.00  0.00    -0.027 C 
ATOM     25  C   UNL     1      44.746 -20.451 -41.356  0.00  0.00    -0.031 C 
ATOM     26  C   UNL     1      45.616 -21.712 -41.599  0.00  0.00    -0.060 C 
ATOM     27  C   UNL     1      44.419 -19.833 -42.747  0.00  0.00    -0.060 C 
ATOM     28  C   UNL     1      43.367 -20.903 -40.813  0.00  0.00    -0.048 C 
ATOM     29  C   UNL     1      43.427 -21.124 -39.329  0.00  0.00    -0.052 C 
ATOM     30  C   UNL     1      44.152 -19.918 -38.760  0.00  0.00    -0.047 C 
ATOM     31  C   UNL     1      45.836 -19.762 -39.441  0.00  0.00    -0.022 C 
ATOM     32  C   UNL     1      46.174 -20.174 -38.595  0.00  0.00    -0.059 C 
BRANCH  21  33
ATOM     33  C   UNL     1      47.028 -15.615 -39.225  0.00  0.00    +0.066 C 
BRANCH  33  34
ATOM     34  O   UNL     1      46.183 -14.774 -39.999  0.00  0.00    -0.391 OA
ATOM     35  H   UNL     1      45.494 -15.310 -40.422  0.00  0.00    +0.000 HD
ENDBRANCH  33  34
ENDBRANCH  21  33
ENDBRANCH  19  20
ENDBRANCH   1  19
TORSDOF 13
ENDMDL
MODEL 16
REMARK VINA RESULT:    -4.901      3.379      8.213
REMARK INTER + INTRA:         -12.411
REMARK INTER:                  -8.450
REMARK INTRA:                  -3.961
REMARK UNBOUND:                -3.929
REMARK  Name = cpd304.pdb
REMARK  17 active torsions:
REMARK  status: ('A' for Active; 'I' for Inactive)
REMARK    1  A    between atoms: C_1  and  C_2
REMARK    2  A    between atoms: C_2  and  C_3
REMARK    3  A    between atoms: C_2  and  C_20
REMARK    4  A    between atoms: C_3  and  C_4
REMARK    5  A    between atoms: C_4  and  C_5
REMARK    6  A    between atoms: C_6  and  C_7
REMARK    7  A    between atoms: C_7  and  O_8
REMARK    8  A    between atoms: C_12  and  C_13
REMARK    9  A    between atoms: C_12  and  C_14
REMARK   10  A    between atoms: C_18  and  C_19
REMARK   11  A    between atoms: C_20  and  C_21
REMARK   12  A    between atoms: C_21  and  O_23
REMARK   13  A    between atoms: O_23  and  C_24
REMARK   14  A    between atoms: C_24  and  C_25
REMARK   15  A    between atoms: C_25  and  C_26
REMARK   16  A    between atoms: C_26  and  C_27
REMARK   17  A    between atoms: C_27  and  N_28
REMARK                            x       y       z     vdW  Elec       q    Type
REMARK                         _______ _______ _______ _____ _____    ______ ____
ROOT
ATOM      1  C   UNL     1      42.258 -16.660 -35.203  0.00  0.00    -0.049 C 
ENDROOT
BRANCH   1   3
ATOM      2  C   UNL     1      42.947 -16.815 -32.794  0.00  0.00    -0.062 C 
ATOM      3  C   UNL     1      43.261 -17.298 -34.214  0.00  0.00    -0.034 C 
BRANCH   3   4
ATOM      4  C   UNL     1      44.734 -17.010 -34.553  0.00  0.00    +0.048 C 
BRANCH   4   5
ATOM      5  C   UNL     1      45.597 -18.231 -34.337  0.00  0.00    +0.307 C 
ATOM      6  O   UNL     1      46.775 -18.193 -34.014  0.00  0.00    -0.251 OA
BRANCH   5   7
ATOM      7  O   UNL     1      44.884 -19.365 -34.588  0.00  0.00    -0.465 OA
BRANCH   7   8
ATOM      8  C   UNL     1      45.378 -20.140 -35.690  0.00  0.00    +0.092 C 
BRANCH   8   9
ATOM      9  C   UNL     1      44.443 -19.964 -36.885  0.00  0.00    -0.017 C 
BRANCH   9  10
ATOM     10  C   UNL     1      44.935 -20.620 -38.181  0.00  0.00    -0.037 C 
BRANCH  10  11
ATOM     11  C   UNL     1      43.876 -20.712 -39.286  0.00  0.00    -0.001 C 
BRANCH  11  12
ATOM     12  N   UNL     1      42.514 -20.805 -38.725  0.00  0.00    -0.302 N 
ATOM     13  C   UNL     1      41.952 -22.160 -38.867  0.00  0.00    -0.001 C 
ATOM     14  C   UNL     1      40.562 -22.257 -38.232  0.00  0.00    -0.040 C 
ATOM     15  C   UNL     1      39.610 -21.219 -38.810  0.00  0.00    -0.051 C 
ATOM     16  C   UNL     1      40.234 -19.831 -38.736  0.00  0.00    -0.040 C 
ATOM     17  C   UNL     1      41.630 -19.813 -39.361  0.00  0.00    -0.001 C 
ATOM     18  H   UNL     1      42.578 -20.603 -37.728  0.00  0.00    +0.000 HD
ENDBRANCH  11  12
ENDBRANCH  10  11
ENDBRANCH   9  10
ENDBRANCH   8   9
ENDBRANCH   7   8
ENDBRANCH   5   7
ENDBRANCH   4   5
ENDBRANCH   3   4
ENDBRANCH   1   3
BRANCH   1  19
ATOM     19  C   UNL     1      41.417 -17.678 -35.993  0.00  0.00    -0.046 C 
BRANCH  19  20
ATOM     20  C   UNL     1      40.284 -18.368 -35.093  0.00  0.00    -0.012 C 
ATOM     21  C   UNL     1      38.929 -17.861 -35.611  0.00  0.00    -0.045 C 
ATOM     22  C   UNL     1      38.037 -18.798 -35.934  0.00  0.00    -0.082 C 
ATOM     23  C   UNL     1      38.360 -20.200 -35.564  0.00  0.00    -0.031 C 
ATOM     24  C   UNL     1      39.483 -20.276 -34.381  0.00  0.00    -0.027 C 
ATOM     25  C   UNL     1      39.079 -21.780 -33.680  0.00  0.00    -0.031 C 
ATOM     26  C   UNL     1      39.345 -22.962 -34.648  0.00  0.00    -0.060 C 
ATOM     27  C   UNL     1      37.593 -21.870 -33.228  0.00  0.00    -0.060 C 
ATOM     28  C   UNL     1      39.883 -22.023 -32.377  0.00  0.00    -0.048 C 
ATOM     29  C   UNL     1      41.300 -21.553 -32.531  0.00  0.00    -0.052 C 
ATOM     30  C   UNL     1      41.213 -20.179 -33.171  0.00  0.00    -0.047 C 
ATOM     31  C   UNL     1      40.391 -20.245 -34.797  0.00  0.00    -0.022 C 
ATOM     32  C   UNL     1      41.300 -20.214 -35.213  0.00  0.00    -0.059 C 
BRANCH  21  33
ATOM     33  C   UNL     1      38.650 -16.375 -35.614  0.00  0.00    +0.066 C 
BRANCH  33  34
ATOM     34  O   UNL     1      38.520 -15.865 -36.934  0.00  0.00    -0.391 OA
ATOM     35  H   UNL     1      39.207 -15.198 -37.091  0.00  0.00    +0.000 HD
ENDBRANCH  33  34
ENDBRANCH  21  33
ENDBRANCH  19  20
ENDBRANCH   1  19
TORSDOF 13
ENDMDL
MODEL 17
REMARK VINA RESULT:    -4.853      2.589      7.051
REMARK INTER + INTRA:         -12.328
REMARK INTER:                  -9.317
REMARK INTRA:                  -3.011
REMARK UNBOUND:                -3.929
REMARK  Name = cpd304.pdb
REMARK  17 active torsions:
REMARK  status: ('A' for Active; 'I' for Inactive)
REMARK    1  A    between atoms: C_1  and  C_2
REMARK    2  A    between atoms: C_2  and  C_3
REMARK    3  A    between atoms: C_2  and  C_20
REMARK    4  A    between atoms: C_3  and  C_4
REMARK    5  A    between atoms: C_4  and  C_5
REMARK    6  A    between atoms: C_6  and  C_7
REMARK    7  A    between atoms: C_7  and  O_8
REMARK    8  A    between atoms: C_12  and  C_13
REMARK    9  A    between atoms: C_12  and  C_14
REMARK   10  A    between atoms: C_18  and  C_19
REMARK   11  A    between atoms: C_20  and  C_21
REMARK   12  A    between atoms: C_21  and  O_23
REMARK   13  A    between atoms: O_23  and  C_24
REMARK   14  A    between atoms: C_24  and  C_25
REMARK   15  A    between atoms: C_25  and  C_26
REMARK   16  A    between atoms: C_26  and  C_27
REMARK   17  A    between atoms: C_27  and  N_28
REMARK                            x       y       z     vdW  Elec       q    Type
REMARK                         _______ _______ _______ _____ _____    ______ ____
ROOT
ATOM      1  C   UNL     1      43.703 -19.863 -37.005  0.00  0.00    -0.049 C 
ENDROOT
BRANCH   1   3
ATOM      2  C   UNL     1      42.334 -18.435 -38.551  0.00  0.00    -0.062 C 
ATOM      3  C   UNL     1      42.826 -18.595 -37.108  0.00  0.00    -0.034 C 
BRANCH   3   4
ATOM      4  C   UNL     1      43.538 -17.309 -36.650  0.00  0.00    +0.048 C 
BRANCH   4   5
ATOM      5  C   UNL     1      44.403 -17.563 -35.438  0.00  0.00    +0.307 C 
ATOM      6  O   UNL     1      43.969 -17.818 -34.323  0.00  0.00    -0.251 OA
BRANCH   5   7
ATOM      7  O   UNL     1      45.721 -17.432 -35.760  0.00  0.00    -0.465 OA
BRANCH   7   8
ATOM      8  C   UNL     1      46.580 -18.389 -35.124  0.00  0.00    +0.092 C 
BRANCH   8   9
ATOM      9  C   UNL     1      47.388 -19.124 -36.192  0.00  0.00    -0.017 C 
BRANCH   9  10
ATOM     10  C   UNL     1      47.191 -18.592 -37.617  0.00  0.00    -0.037 C 
BRANCH  10  11
ATOM     11  C   UNL     1      47.038 -19.684 -38.684  0.00  0.00    -0.001 C 
BRANCH  11  12
ATOM     12  N   UNL     1      46.455 -19.149 -39.929  0.00  0.00    -0.302 N 
ATOM     13  C   UNL     1      45.850 -17.820 -39.726  0.00  0.00    -0.001 C 
ATOM     14  C   UNL     1      45.299 -17.251 -41.036  0.00  0.00    -0.040 C 
ATOM     15  C   UNL     1      44.299 -18.202 -41.681  0.00  0.00    -0.051 C 
ATOM     16  C   UNL     1      44.903 -19.595 -41.810  0.00  0.00    -0.040 C 
ATOM     17  C   UNL     1      45.460 -20.088 -40.473  0.00  0.00    -0.001 C 
ATOM     18  H   UNL     1      47.214 -19.040 -40.601  0.00  0.00    +0.000 HD
ENDBRANCH  11  12
ENDBRANCH  10  11
ENDBRANCH   9  10
ENDBRANCH   8   9
ENDBRANCH   7   8
ENDBRANCH   5   7
ENDBRANCH   4   5
ENDBRANCH   3   4
ENDBRANCH   1   3
BRANCH   1  19
ATOM     19  C   UNL     1      43.082 -20.994 -36.166  0.00  0.00    -0.046 C 
BRANCH  19  20
ATOM     20  C   UNL     1      41.492 -20.853 -36.028  0.00  0.00    -0.012 C 
ATOM     21  C   UNL     1      40.868 -22.021 -36.809  0.00  0.00    -0.045 C 
ATOM     22  C   UNL     1      40.001 -22.778 -36.136  0.00  0.00    -0.082 C 
ATOM     23  C   UNL     1      39.572 -22.297 -34.798  0.00  0.00    -0.031 C 
ATOM     24  C   UNL     1      39.827 -20.695 -34.615  0.00  0.00    -0.027 C 
ATOM     25  C   UNL     1      38.623 -20.328 -33.460  0.00  0.00    -0.031 C 
ATOM     26  C   UNL     1      38.907 -21.002 -32.093  0.00  0.00    -0.060 C 
ATOM     27  C   UNL     1      37.194 -20.754 -33.905  0.00  0.00    -0.060 C 
ATOM     28  C   UNL     1      38.508 -18.798 -33.239  0.00  0.00    -0.048 C 
ATOM     29  C   UNL     1      39.866 -18.160 -33.227  0.00  0.00    -0.052 C 
ATOM     30  C   UNL     1      40.607 -18.739 -34.418  0.00  0.00    -0.047 C 
ATOM     31  C   UNL     1      40.764 -20.552 -34.295  0.00  0.00    -0.022 C 
ATOM     32  C   UNL     1      41.700 -20.409 -33.975  0.00  0.00    -0.059 C 
BRANCH  21  33
ATOM     33  C   UNL     1      41.175 -22.169 -38.281  0.00  0.00    +0.066 C 
BRANCH  33  34
ATOM     34  O   UNL     1      40.331 -23.130 -38.902  0.00  0.00    -0.391 OA
ATOM     35  H   UNL     1      40.079 -22.817 -39.784  0.00  0.00    +0.000 HD
ENDBRANCH  33  34
ENDBRANCH  21  33
ENDBRANCH  19  20
ENDBRANCH   1  19
TORSDOF 13
ENDMDL
MODEL 18
REMARK VINA RESULT:    -4.744      3.447      8.429
REMARK INTER + INTRA:         -12.140
REMARK INTER:                 -10.442
REMARK INTRA:                  -1.698
REMARK UNBOUND:                -3.929
REMARK  Name = cpd304.pdb
REMARK  17 active torsions:
REMARK  status: ('A' for Active; 'I' for Inactive)
REMARK    1  A    between atoms: C_1  and  C_2
REMARK    2  A    between atoms: C_2  and  C_3
REMARK    3  A    between atoms: C_2  and  C_20
REMARK    4  A    between atoms: C_3  and  C_4
REMARK    5  A    between atoms: C_4  and  C_5
REMARK    6  A    between atoms: C_6  and  C_7
REMARK    7  A    between atoms: C_7  and  O_8
REMARK    8  A    between atoms: C_12  and  C_13
REMARK    9  A    between atoms: C_12  and  C_14
REMARK   10  A    between atoms: C_18  and  C_19
REMARK   11  A    between atoms: C_20  and  C_21
REMARK   12  A    between atoms: C_21  and  O_23
REMARK   13  A    between atoms: O_23  and  C_24
REMARK   14  A    between atoms: C_24  and  C_25
REMARK   15  A    between atoms: C_25  and  C_26
REMARK   16  A    between atoms: C_26  and  C_27
REMARK   17  A    between atoms: C_27  and  N_28
REMARK                            x       y       z     vdW  Elec       q    Type
REMARK                         _______ _______ _______ _____ _____    ______ ____
ROOT
ATOM      1  C   UNL     1      43.195 -16.776 -33.716  0.00  0.00    -0.049 C 
ENDROOT
BRANCH   1   3
ATOM      2  C   UNL     1      45.209 -16.964 -32.229  0.00  0.00    -0.062 C 
ATOM      3  C   UNL     1      44.408 -17.656 -33.337  0.00  0.00    -0.034 C 
BRANCH   3   4
ATOM      4  C   UNL     1      45.330 -17.985 -34.524  0.00  0.00    +0.048 C 
BRANCH   4   5
ATOM      5  C   UNL     1      45.488 -19.478 -34.700  0.00  0.00    +0.307 C 
ATOM      6  O   UNL     1      45.263 -20.301 -33.824  0.00  0.00    -0.251 OA
BRANCH   5   7
ATOM      7  O   UNL     1      45.947 -19.762 -35.951  0.00  0.00    -0.465 OA
BRANCH   7   8
ATOM      8  C   UNL     1      47.018 -18.914 -36.392  0.00  0.00    +0.092 C 
BRANCH   8   9
ATOM      9  C   UNL     1      47.050 -18.902 -37.919  0.00  0.00    -0.017 C 
BRANCH   9  10
ATOM     10  C   UNL     1      46.887 -20.282 -38.569  0.00  0.00    -0.037 C 
BRANCH  10  11
ATOM     11  C   UNL     1      46.151 -20.264 -39.915  0.00  0.00    -0.001 C 
BRANCH  11  12
ATOM     12  N   UNL     1      46.780 -21.177 -40.890  0.00  0.00    -0.302 N 
ATOM     13  C   UNL     1      45.782 -22.006 -41.589  0.00  0.00    -0.001 C 
ATOM     14  C   UNL     1      46.441 -22.908 -42.637  0.00  0.00    -0.040 C 
ATOM     15  C   UNL     1      47.526 -23.781 -42.019  0.00  0.00    -0.051 C 
ATOM     16  C   UNL     1      48.505 -22.925 -41.227  0.00  0.00    -0.040 C 
ATOM     17  C   UNL     1      47.778 -22.029 -40.222  0.00  0.00    -0.001 C 
ATOM     18  H   UNL     1      47.247 -20.603 -41.591  0.00  0.00    +0.000 HD
ENDBRANCH  11  12
ENDBRANCH  10  11
ENDBRANCH   9  10
ENDBRANCH   8   9
ENDBRANCH   7   8
ENDBRANCH   5   7
ENDBRANCH   4   5
ENDBRANCH   3   4
ENDBRANCH   1   3
BRANCH   1  19
ATOM     19  C   UNL     1      42.289 -17.384 -34.802  0.00  0.00    -0.046 C 
BRANCH  19  20
ATOM     20  C   UNL     1      40.991 -18.097 -34.191  0.00  0.00    -0.012 C 
ATOM     21  C   UNL     1      39.779 -17.237 -34.584  0.00  0.00    -0.045 C 
ATOM     22  C   UNL     1      38.786 -17.875 -35.204  0.00  0.00    -0.082 C 
ATOM     23  C   UNL     1      38.856 -19.357 -35.255  0.00  0.00    -0.031 C 
ATOM     24  C   UNL     1      39.848 -19.961 -34.108  0.00  0.00    -0.027 C 
ATOM     25  C   UNL     1      39.159 -21.511 -33.900  0.00  0.00    -0.031 C 
ATOM     26  C   UNL     1      39.323 -22.393 -35.164  0.00  0.00    -0.060 C 
ATOM     27  C   UNL     1      37.643 -21.469 -33.551  0.00  0.00    -0.060 C 
ATOM     28  C   UNL     1      39.800 -22.251 -32.698  0.00  0.00    -0.048 C 
ATOM     29  C   UNL     1      41.281 -22.008 -32.654  0.00  0.00    -0.052 C 
ATOM     30  C   UNL     1      41.462 -20.514 -32.859  0.00  0.00    -0.047 C 
ATOM     31  C   UNL     1      40.783 -19.969 -34.461  0.00  0.00    -0.022 C 
ATOM     32  C   UNL     1      41.718 -19.977 -34.815  0.00  0.00    -0.059 C 
BRANCH  21  33
ATOM     33  C   UNL     1      39.733 -15.789 -34.157  0.00  0.00    +0.066 C 
BRANCH  33  34
ATOM     34  O   UNL     1      38.872 -15.593 -33.044  0.00  0.00    -0.391 OA
ATOM     35  H   UNL     1      38.701 -16.446 -32.614  0.00  0.00    +0.000 HD
ENDBRANCH  33  34
ENDBRANCH  21  33
ENDBRANCH  19  20
ENDBRANCH   1  19
TORSDOF 13
ENDMDL
MODEL 19
REMARK VINA RESULT:    -4.633      2.469      5.565
REMARK INTER + INTRA:         -11.948
REMARK INTER:                  -9.347
REMARK INTRA:                  -2.601
REMARK UNBOUND:                -3.929
REMARK  Name = cpd304.pdb
REMARK  17 active torsions:
REMARK  status: ('A' for Active; 'I' for Inactive)
REMARK    1  A    between atoms: C_1  and  C_2
REMARK    2  A    between atoms: C_2  and  C_3
REMARK    3  A    between atoms: C_2  and  C_20
REMARK    4  A    between atoms: C_3  and  C_4
REMARK    5  A    between atoms: C_4  and  C_5
REMARK    6  A    between atoms: C_6  and  C_7
REMARK    7  A    between atoms: C_7  and  O_8
REMARK    8  A    between atoms: C_12  and  C_13
REMARK    9  A    between atoms: C_12  and  C_14
REMARK   10  A    between atoms: C_18  and  C_19
REMARK   11  A    between atoms: C_20  and  C_21
REMARK   12  A    between atoms: C_21  and  O_23
REMARK   13  A    between atoms: O_23  and  C_24
REMARK   14  A    between atoms: C_24  and  C_25
REMARK   15  A    between atoms: C_25  and  C_26
REMARK   16  A    between atoms: C_26  and  C_27
REMARK   17  A    between atoms: C_27  and  N_28
REMARK                            x       y       z     vdW  Elec       q    Type
REMARK                         _______ _______ _______ _____ _____    ______ ____
ROOT
ATOM      1  C   UNL     1      46.310 -17.154 -36.132  0.00  0.00    -0.049 C 
ENDROOT
BRANCH   1   3
ATOM      2  C   UNL     1      43.952 -16.357 -36.461  0.00  0.00    -0.062 C 
ATOM      3  C   UNL     1      44.817 -17.533 -35.996  0.00  0.00    -0.034 C 
BRANCH   3   4
ATOM      4  C   UNL     1      44.412 -17.953 -34.571  0.00  0.00    +0.048 C 
BRANCH   4   5
ATOM      5  C   UNL     1      44.370 -19.457 -34.432  0.00  0.00    +0.307 C 
ATOM      6  O   UNL     1      45.319 -20.141 -34.076  0.00  0.00    -0.251 OA
BRANCH   5   7
ATOM      7  O   UNL     1      43.145 -19.932 -34.792  0.00  0.00    -0.465 OA
BRANCH   7   8
ATOM      8  C   UNL     1      42.534 -20.785 -33.812  0.00  0.00    +0.092 C 
BRANCH   8   9
ATOM      9  C   UNL     1      41.246 -20.132 -33.314  0.00  0.00    -0.017 C 
BRANCH   9  10
ATOM     10  C   UNL     1      40.045 -20.295 -34.254  0.00  0.00    -0.037 C 
BRANCH  10  11
ATOM     11  C   UNL     1      39.975 -21.655 -34.959  0.00  0.00    -0.001 C 
BRANCH  11  12
ATOM     12  N   UNL     1      39.578 -21.513 -36.374  0.00  0.00    -0.302 N 
ATOM     13  C   UNL     1      40.471 -22.265 -37.274  0.00  0.00    -0.001 C 
ATOM     14  C   UNL     1      40.015 -22.155 -38.732  0.00  0.00    -0.040 C 
ATOM     15  C   UNL     1      39.908 -20.702 -39.175  0.00  0.00    -0.051 C 
ATOM     16  C   UNL     1      39.053 -19.912 -38.192  0.00  0.00    -0.040 C 
ATOM     17  C   UNL     1      39.545 -20.091 -36.755  0.00  0.00    -0.001 C 
ATOM     18  H   UNL     1      38.643 -21.906 -36.471  0.00  0.00    +0.000 HD
ENDBRANCH  11  12
ENDBRANCH  10  11
ENDBRANCH   9  10
ENDBRANCH   8   9
ENDBRANCH   7   8
ENDBRANCH   5   7
ENDBRANCH   4   5
ENDBRANCH   3   4
ENDBRANCH   1   3
BRANCH   1  19
ATOM     19  C   UNL     1      47.075 -17.974 -37.187  0.00  0.00    -0.046 C 
BRANCH  19  20
ATOM     20  C   UNL     1      46.266 -18.111 -38.563  0.00  0.00    -0.012 C 
ATOM     21  C   UNL     1      46.911 -17.136 -39.562  0.00  0.00    -0.045 C 
ATOM     22  C   UNL     1      47.293 -17.661 -40.727  0.00  0.00    -0.082 C 
ATOM     23  C   UNL     1      46.870 -19.054 -41.018  0.00  0.00    -0.031 C 
ATOM     24  C   UNL     1      45.592 -19.506 -40.109  0.00  0.00    -0.027 C 
ATOM     25  C   UNL     1      44.901 -20.689 -41.129  0.00  0.00    -0.031 C 
ATOM     26  C   UNL     1      45.819 -21.929 -41.285  0.00  0.00    -0.060 C 
ATOM     27  C   UNL     1      44.580 -20.160 -42.557  0.00  0.00    -0.060 C 
ATOM     28  C   UNL     1      43.527 -21.161 -40.587  0.00  0.00    -0.048 C 
ATOM     29  C   UNL     1      43.566 -21.299 -39.093  0.00  0.00    -0.052 C 
ATOM     30  C   UNL     1      44.235 -20.039 -38.577  0.00  0.00    -0.047 C 
ATOM     31  C   UNL     1      45.927 -19.859 -39.235  0.00  0.00    -0.022 C 
ATOM     32  C   UNL     1      46.261 -20.211 -38.361  0.00  0.00    -0.059 C 
BRANCH  21  33
ATOM     33  C   UNL     1      46.966 -15.665 -39.224  0.00  0.00    +0.066 C 
BRANCH  33  34
ATOM     34  O   UNL     1      46.169 -14.889 -40.109  0.00  0.00    -0.391 OA
ATOM     35  H   UNL     1      45.262 -14.842 -39.769  0.00  0.00    +0.000 HD
ENDBRANCH  33  34
ENDBRANCH  21  33
ENDBRANCH  19  20
ENDBRANCH   1  19
TORSDOF 13
ENDMDL
MODEL 20
REMARK VINA RESULT:    -4.554      2.707      4.807
REMARK INTER + INTRA:         -11.811
REMARK INTER:                  -9.153
REMARK INTRA:                  -2.657
REMARK UNBOUND:                -3.929
REMARK  Name = cpd304.pdb
REMARK  17 active torsions:
REMARK  status: ('A' for Active; 'I' for Inactive)
REMARK    1  A    between atoms: C_1  and  C_2
REMARK    2  A    between atoms: C_2  and  C_3
REMARK    3  A    between atoms: C_2  and  C_20
REMARK    4  A    between atoms: C_3  and  C_4
REMARK    5  A    between atoms: C_4  and  C_5
REMARK    6  A    between atoms: C_6  and  C_7
REMARK    7  A    between atoms: C_7  and  O_8
REMARK    8  A    between atoms: C_12  and  C_13
REMARK    9  A    between atoms: C_12  and  C_14
REMARK   10  A    between atoms: C_18  and  C_19
REMARK   11  A    between atoms: C_20  and  C_21
REMARK   12  A    between atoms: C_21  and  O_23
REMARK   13  A    between atoms: O_23  and  C_24
REMARK   14  A    between atoms: C_24  and  C_25
REMARK   15  A    between atoms: C_25  and  C_26
REMARK   16  A    between atoms: C_26  and  C_27
REMARK   17  A    between atoms: C_27  and  N_28
REMARK                            x       y       z     vdW  Elec       q    Type
REMARK                         _______ _______ _______ _____ _____    ______ ____
ROOT
ATOM      1  C   UNL     1      41.670 -20.720 -36.428  0.00  0.00    -0.049 C 
ENDROOT
BRANCH   1   3
ATOM      2  C   UNL     1      41.091 -22.041 -38.482  0.00  0.00    -0.062 C 
ATOM      3  C   UNL     1      40.601 -21.615 -37.094  0.00  0.00    -0.034 C 
BRANCH   3   4
ATOM      4  C   UNL     1      39.218 -20.949 -37.208  0.00  0.00    +0.048 C 
BRANCH   4   5
ATOM      5  C   UNL     1      39.333 -19.442 -37.217  0.00  0.00    +0.307 C 
ATOM      6  O   UNL     1      39.738 -18.789 -38.168  0.00  0.00    -0.251 OA
BRANCH   5   7
ATOM      7  O   UNL     1      38.955 -18.931 -36.012  0.00  0.00    -0.465 OA
BRANCH   7   8
ATOM      8  C   UNL     1      37.776 -18.114 -36.062  0.00  0.00    +0.092 C 
BRANCH   8   9
ATOM      9  C   UNL     1      36.642 -18.826 -35.327  0.00  0.00    -0.017 C 
BRANCH   9  10
ATOM     10  C   UNL     1      36.979 -19.241 -33.888  0.00  0.00    -0.037 C 
BRANCH  10  11
ATOM     11  C   UNL     1      37.214 -20.745 -33.703  0.00  0.00    -0.001 C 
BRANCH  11  12
ATOM     12  N   UNL     1      38.651 -21.078 -33.741  0.00  0.00    -0.302 N 
ATOM     13  C   UNL     1      38.892 -22.507 -33.469  0.00  0.00    -0.001 C 
ATOM     14  C   UNL     1      40.381 -22.851 -33.568  0.00  0.00    -0.040 C 
ATOM     15  C   UNL     1      41.218 -21.980 -32.639  0.00  0.00    -0.051 C 
ATOM     16  C   UNL     1      40.901 -20.508 -32.868  0.00  0.00    -0.040 C 
ATOM     17  C   UNL     1      39.396 -20.241 -32.786  0.00  0.00    -0.001 C 
ATOM     18  H   UNL     1      38.986 -20.886 -34.685  0.00  0.00    +0.000 HD
ENDBRANCH  11  12
ENDBRANCH  10  11
ENDBRANCH   9  10
ENDBRANCH   8   9
ENDBRANCH   7   8
ENDBRANCH   5   7
ENDBRANCH   4   5
ENDBRANCH   3   4
ENDBRANCH   1   3
BRANCH   1  19
ATOM     19  C   UNL     1      43.120 -21.094 -36.788  0.00  0.00    -0.046 C 
BRANCH  19  20
ATOM     20  C   UNL     1      44.061 -19.808 -36.958  0.00  0.00    -0.012 C 
ATOM     21  C   UNL     1      45.130 -19.885 -35.856  0.00  0.00    -0.045 C 
ATOM     22  C   UNL     1      46.397 -19.805 -36.263  0.00  0.00    -0.082 C 
ATOM     23  C   UNL     1      46.634 -19.440 -37.683  0.00  0.00    -0.031 C 
ATOM     24  C   UNL     1      45.339 -18.700 -38.347  0.00  0.00    -0.027 C 
ATOM     25  C   UNL     1      46.110 -17.771 -39.555  0.00  0.00    -0.031 C 
ATOM     26  C   UNL     1      46.748 -18.661 -40.653  0.00  0.00    -0.060 C 
ATOM     27  C   UNL     1      47.227 -16.841 -38.998  0.00  0.00    -0.060 C 
ATOM     28  C   UNL     1      45.113 -16.796 -40.232  0.00  0.00    -0.048 C 
ATOM     29  C   UNL     1      43.783 -17.458 -40.442  0.00  0.00    -0.052 C 
ATOM     30  C   UNL     1      43.454 -18.153 -39.133  0.00  0.00    -0.047 C 
ATOM     31  C   UNL     1      44.714 -19.397 -38.698  0.00  0.00    -0.022 C 
ATOM     32  C   UNL     1      44.089 -20.095 -39.049  0.00  0.00    -0.059 C 
BRANCH  21  33
ATOM     33  C   UNL     1      44.695 -19.929 -34.410  0.00  0.00    +0.066 C 
BRANCH  33  34
ATOM     34  O   UNL     1      45.168 -21.096 -33.751  0.00  0.00    -0.391 OA
ATOM     35  H   UNL     1      45.624 -20.843 -32.933  0.00  0.00    +0.000 HD
ENDBRANCH  33  34
ENDBRANCH  21  33
ENDBRANCH  19  20
ENDBRANCH   1  19
TORSDOF 13
ENDMDL
