REMARK  Name = cpd52.pdb
REMARK  18 active torsions:
REMARK  status: ('A' for Active; 'I' for Inactive)
REMARK    1  A    between atoms: C_1  and  C_2
REMARK    2  A    between atoms: C_6  and  N_7
REMARK    3  A    between atoms: N_7  and  C_8
REMARK    4  A    between atoms: C_13  and  C_14
REMARK    5  A    between atoms: N_16  and  C_17
REMARK    6  A    between atoms: C_17  and  C_18
REMARK    7  A    between atoms: C_18  and  C_19
REMARK    8  A    between atoms: N_21  and  C_22
REMARK    9  A    between atoms: C_22  and  C_23
REMARK   10  A    between atoms: C_23  and  C_24
REMARK   11  A    between atoms: C_24  and  C_25
REMARK   12  A    between atoms: C_25  and  C_26
REMARK   13  A    between atoms: C_26  and  C_27
REMARK   14  A    between atoms: C_27  and  C_28
REMARK   15  A    between atoms: C_28  and  C_29
REMARK   16  A    between atoms: C_29  and  N_30
REMARK   17  A    between atoms: N_30  and  C_31
REMARK   18  A    between atoms: C_46  and  C_47
REMARK                            x       y       z     vdW  Elec       q    Type
REMARK                         _______ _______ _______ _____ _____    ______ ____
ROOT
ATOM      1  C   UNL A   1      -5.768  -5.702  -0.914  0.00  0.00    +0.215 C 
ATOM      2  O   UNL A   1      -6.929  -5.740  -1.306  0.00  0.00    -0.276 OA
ATOM      3  N   UNL A   1      -5.388  -5.949   0.386  0.00  0.00    -0.315 N 
ATOM      4  H   UNL A   1      -4.432  -5.905   0.618  0.00  0.00    +0.000 HD
ENDROOT
BRANCH   3   5
ATOM      5  C   UNL A   1      -6.347  -6.272   1.427  0.00  0.00    +0.012 C 
BRANCH   5   6
ATOM      6  C   UNL A   1      -6.649  -5.077   2.333  0.00  0.00    -0.037 C 
BRANCH   6   7
ATOM      7  C   UNL A   1      -7.342  -3.895   1.647  0.00  0.00    -0.052 C 
BRANCH   7   8
ATOM      8  C   UNL A   1      -8.762  -4.213   1.169  0.00  0.00    -0.053 C 
BRANCH   8   9
ATOM      9  C   UNL A   1      -9.384  -3.008   0.458  0.00  0.00    -0.053 C 
BRANCH   9  10
ATOM     10  C   UNL A   1     -10.714  -3.331  -0.228  0.00  0.00    -0.052 C 
BRANCH  10  11
ATOM     11  C   UNL A   1     -11.843  -3.661   0.749  0.00  0.00    -0.037 C 
BRANCH  11  12
ATOM     12  C   UNL A   1     -13.154  -3.918   0.003  0.00  0.00    +0.009 C 
BRANCH  12  13
ATOM     13  N   UNL A   1     -14.222  -4.171   0.983  0.00  0.00    -0.343 N 
ATOM     14  H   UNL A   1     -14.116  -4.069   1.956  0.00  0.00    +0.000 HD
BRANCH  13  15
ATOM     15  C   UNL A   1     -15.430  -4.583   0.346  0.00  0.00    +0.041 A 
ATOM     16  C   UNL A   1     -15.659  -5.962   0.170  0.00  0.00    -0.005 A 
ATOM     17  C   UNL A   1     -16.830  -6.347  -0.485  0.00  0.00    +0.047 A 
ATOM     18  N   UNL A   1     -17.718  -5.461  -0.994  0.00  0.00    -0.251 NA
ATOM     19  C   UNL A   1     -17.490  -4.151  -0.846  0.00  0.00    +0.074 A 
ATOM     20  C   UNL A   1     -18.423  -3.275  -1.382  0.00  0.00    -0.017 A 
ATOM     21  C   UNL A   1     -18.265  -1.896  -1.278  0.00  0.00    +0.043 A 
ATOM     22 CL   UNL A   1     -19.444  -0.844  -1.957  0.00  0.00    -0.083 Cl
ATOM     23  C   UNL A   1     -17.160  -1.366  -0.630  0.00  0.00    -0.043 A 
ATOM     24  C   UNL A   1     -16.212  -2.230  -0.085  0.00  0.00    -0.049 A 
ATOM     25  C   UNL A   1     -16.355  -3.638  -0.183  0.00  0.00    +0.022 A 
ATOM     26  C   UNL A   1     -17.163  -7.797  -0.723  0.00  0.00    -0.010 C 
ATOM     27  C   UNL A   1     -16.436  -8.745   0.224  0.00  0.00    -0.047 C 
ATOM     28  C   UNL A   1     -14.952  -8.410   0.249  0.00  0.00    -0.049 C 
ATOM     29  C   UNL A   1     -14.731  -6.991   0.773  0.00  0.00    -0.024 C 
ENDBRANCH  13  15
ENDBRANCH  12  13
ENDBRANCH  11  12
ENDBRANCH  10  11
ENDBRANCH   9  10
ENDBRANCH   8   9
ENDBRANCH   7   8
ENDBRANCH   6   7
ENDBRANCH   5   6
ENDBRANCH   3   5
BRANCH   1  30
ATOM     30  C   UNL A   1      -4.630  -5.353  -1.842  0.00  0.00    +0.039 C 
BRANCH  30  31
ATOM     31  C   UNL A   1      -4.097  -3.964  -1.532  0.00  0.00    +0.020 C 
BRANCH  31  34
ATOM     32  C   UNL A   1      -1.851  -3.094  -2.315  0.00  0.00    +0.246 C 
ATOM     33  O   UNL A   1      -1.329  -2.284  -3.077  0.00  0.00    -0.270 OA
ATOM     34  N   UNL A   1      -3.141  -3.516  -2.537  0.00  0.00    -0.311 N 
ATOM     35  H   UNL A   1      -3.451  -3.515  -3.471  0.00  0.00    +0.000 HD
BRANCH  32  41
ATOM     36  C   UNL A   1      -0.339  -2.716  -0.354  0.00  0.00    +0.044 A 
ATOM     37  C   UNL A   1       0.318  -3.245   0.769  0.00  0.00    -0.040 A 
ATOM     38  C   UNL A   1       0.320  -4.619   1.028  0.00  0.00    -0.060 A 
ATOM     39  C   UNL A   1      -0.351  -5.493   0.177  0.00  0.00    -0.061 A 
ATOM     40  C   UNL A   1      -1.055  -4.987  -0.914  0.00  0.00    -0.048 A 
ATOM     41  C   UNL A   1      -1.088  -3.604  -1.153  0.00  0.00    +0.058 A 
BRANCH  36  42
ATOM     42  N   UNL A   1      -0.369  -1.310  -0.581  0.00  0.00    -0.314 N 
ATOM     43  H   UNL A   1      -1.176  -0.944  -1.010  0.00  0.00    +0.000 HD
BRANCH  42  49
ATOM     44  C   UNL A   1       1.060   3.220   1.010  0.00  0.00    -0.039 C 
ATOM     45  C   UNL A   1       1.354   1.843   0.478  0.00  0.00    -0.046 A 
ATOM     46  C   UNL A   1       2.689   1.490   0.229  0.00  0.00    -0.058 A 
ATOM     47  C   UNL A   1       3.011   0.233  -0.272  0.00  0.00    -0.060 A 
ATOM     48  C   UNL A   1       2.002  -0.694  -0.515  0.00  0.00    -0.040 A 
ATOM     49  C   UNL A   1       0.659  -0.385  -0.246  0.00  0.00    +0.035 A 
ATOM     50  C   UNL A   1       0.322   0.915   0.197  0.00  0.00    -0.026 A 
ATOM     51  C   UNL A   1      -1.121   1.272   0.457  0.00  0.00    -0.038 C 
ENDBRANCH  42  49
ENDBRANCH  36  42
ENDBRANCH  32  41
ENDBRANCH  31  34
ENDBRANCH  30  31
ENDBRANCH   1  30
TORSDOF 16
