MODEL 1
REMARK VINA RESULT:    -6.174      0.000      0.000
REMARK INTER + INTRA:         -18.835
REMARK INTER:                 -11.949
REMARK INTRA:                  -6.886
REMARK UNBOUND:                -6.886
REMARK  Name = cpd52.pdb
REMARK  18 active torsions:
REMARK  status: ('A' for Active; 'I' for Inactive)
REMARK    1  A    between atoms: C_1  and  C_2
REMARK    2  A    between atoms: C_6  and  N_7
REMARK    3  A    between atoms: N_7  and  C_8
REMARK    4  A    between atoms: C_13  and  C_14
REMARK    5  A    between atoms: N_16  and  C_17
REMARK    6  A    between atoms: C_17  and  C_18
REMARK    7  A    between atoms: C_18  and  C_19
REMARK    8  A    between atoms: N_21  and  C_22
REMARK    9  A    between atoms: C_22  and  C_23
REMARK   10  A    between atoms: C_23  and  C_24
REMARK   11  A    between atoms: C_24  and  C_25
REMARK   12  A    between atoms: C_25  and  C_26
REMARK   13  A    between atoms: C_26  and  C_27
REMARK   14  A    between atoms: C_27  and  C_28
REMARK   15  A    between atoms: C_28  and  C_29
REMARK   16  A    between atoms: C_29  and  N_30
REMARK   17  A    between atoms: N_30  and  C_31
REMARK   18  A    between atoms: C_46  and  C_47
REMARK                            x       y       z     vdW  Elec       q    Type
REMARK                         _______ _______ _______ _____ _____    ______ ____
ROOT
ATOM      1  C   UNL A   1      45.804 -18.436 -34.940  0.00  0.00    +0.215 C 
ATOM      2  O   UNL A   1      45.471 -18.641 -33.778  0.00  0.00    -0.276 OA
ATOM      3  N   UNL A   1      45.350 -17.377 -35.693  0.00  0.00    -0.315 N 
ATOM      4  H   UNL A   1      45.673 -17.279 -36.618  0.00  0.00    +0.000 HD
ENDROOT
BRANCH   3   5
ATOM      5  C   UNL A   1      44.412 -16.399 -35.172  0.00  0.00    +0.012 C 
BRANCH   5   6
ATOM      6  C   UNL A   1      43.334 -16.025 -36.191  0.00  0.00    -0.037 C 
BRANCH   6   7
ATOM      7  C   UNL A   1      43.055 -17.080 -37.266  0.00  0.00    -0.052 C 
BRANCH   7   8
ATOM      8  C   UNL A   1      41.635 -17.651 -37.208  0.00  0.00    -0.053 C 
BRANCH   8   9
ATOM      9  C   UNL A   1      41.006 -17.700 -38.603  0.00  0.00    -0.053 C 
BRANCH   9  10
ATOM     10  C   UNL A   1      39.675 -18.455 -38.640  0.00  0.00    -0.052 C 
BRANCH  10  11
ATOM     11  C   UNL A   1      38.602 -17.850 -37.734  0.00  0.00    -0.037 C 
BRANCH  11  12
ATOM     12  C   UNL A   1      37.931 -18.931 -36.884  0.00  0.00    +0.009 C 
BRANCH  12  13
ATOM     13  N   UNL A   1      37.635 -18.379 -35.552  0.00  0.00    -0.343 N 
ATOM     14  H   UNL A   1      36.793 -17.931 -35.313  0.00  0.00    +0.000 HD
BRANCH  13  15
ATOM     15  C   UNL A   1      38.724 -18.576 -34.651  0.00  0.00    +0.041 A 
ATOM     16  C   UNL A   1      39.500 -17.460 -34.282  0.00  0.00    -0.005 A 
ATOM     17  C   UNL A   1      40.581 -17.675 -33.427  0.00  0.00    +0.047 A 
ATOM     18  N   UNL A   1      40.939 -18.903 -32.982  0.00  0.00    -0.251 NA
ATOM     19  C   UNL A   1      40.216 -19.966 -33.350  0.00  0.00    +0.074 A 
ATOM     20  C   UNL A   1      40.615 -21.207 -32.874  0.00  0.00    -0.017 A 
ATOM     21  C   UNL A   1      39.923 -22.368 -33.208  0.00  0.00    +0.043 A 
ATOM     22 CL   UNL A   1      40.451 -23.886 -32.598  0.00  0.00    -0.083 Cl
ATOM     23  C   UNL A   1      38.809 -22.305 -34.031  0.00  0.00    -0.043 A 
ATOM     24  C   UNL A   1      38.393 -21.068 -34.519  0.00  0.00    -0.049 A 
ATOM     25  C   UNL A   1      39.087 -19.875 -34.191  0.00  0.00    +0.022 A 
ATOM     26  C   UNL A   1      41.472 -16.546 -32.977  0.00  0.00    -0.010 C 
ATOM     27  C   UNL A   1      40.811 -15.177 -33.090  0.00  0.00    -0.047 C 
ATOM     28  C   UNL A   1      40.196 -15.015 -34.472  0.00  0.00    -0.049 C 
ATOM     29  C   UNL A   1      39.106 -16.062 -34.701  0.00  0.00    -0.024 C 
ENDBRANCH  13  15
ENDBRANCH  12  13
ENDBRANCH  11  12
ENDBRANCH  10  11
ENDBRANCH   9  10
ENDBRANCH   8   9
ENDBRANCH   7   8
ENDBRANCH   6   7
ENDBRANCH   5   6
ENDBRANCH   3   5
BRANCH   1  30
ATOM     30  C   UNL A   1      46.750 -19.360 -35.667  0.00  0.00    +0.039 C 
BRANCH  30  31
ATOM     31  C   UNL A   1      47.248 -18.711 -36.948  0.00  0.00    +0.020 C 
BRANCH  31  34
ATOM     32  C   UNL A   1      47.001 -20.069 -39.072  0.00  0.00    +0.246 C 
ATOM     33  O   UNL A   1      47.133 -21.202 -39.527  0.00  0.00    -0.270 OA
ATOM     34  N   UNL A   1      47.671 -19.705 -37.927  0.00  0.00    -0.311 N 
ATOM     35  H   UNL A   1      48.524 -20.163 -37.751  0.00  0.00    +0.000 HD
BRANCH  32  41
ATOM     36  C   UNL A   1      44.794 -19.473 -40.095  0.00  0.00    +0.044 A 
ATOM     37  C   UNL A   1      43.975 -18.499 -40.689  0.00  0.00    -0.040 A 
ATOM     38  C   UNL A   1      44.477 -17.239 -41.031  0.00  0.00    -0.060 A 
ATOM     39  C   UNL A   1      45.807 -16.921 -40.769  0.00  0.00    -0.061 A 
ATOM     40  C   UNL A   1      46.625 -17.852 -40.132  0.00  0.00    -0.048 A 
ATOM     41  C   UNL A   1      46.111 -19.103 -39.755  0.00  0.00    +0.058 A 
BRANCH  36  42
ATOM     42  N   UNL A   1      44.257 -20.736 -39.713  0.00  0.00    -0.314 N 
ATOM     43  H   UNL A   1      44.498 -21.511 -40.271  0.00  0.00    +0.000 HD
BRANCH  42  49
ATOM     44  C   UNL A   1      39.802 -22.076 -37.856  0.00  0.00    -0.039 C 
ATOM     45  C   UNL A   1      41.215 -21.584 -37.698  0.00  0.00    -0.046 A 
ATOM     46  C   UNL A   1      41.681 -21.281 -36.409  0.00  0.00    -0.058 A 
ATOM     47  C   UNL A   1      42.976 -20.814 -36.212  0.00  0.00    -0.060 A 
ATOM     48  C   UNL A   1      43.829 -20.658 -37.301  0.00  0.00    -0.040 A 
ATOM     49  C   UNL A   1      43.405 -20.983 -38.600  0.00  0.00    +0.035 A 
ATOM     50  C   UNL A   1      42.068 -21.391 -38.812  0.00  0.00    -0.026 A 
ATOM     51  C   UNL A   1      41.590 -21.710 -40.207  0.00  0.00    -0.038 C 
ENDBRANCH  42  49
ENDBRANCH  36  42
ENDBRANCH  32  41
ENDBRANCH  31  34
ENDBRANCH  30  31
ENDBRANCH   1  30
TORSDOF 16
ENDMDL
MODEL 2
REMARK VINA RESULT:    -6.113      2.730      8.256
REMARK INTER + INTRA:         -18.718
REMARK INTER:                 -13.351
REMARK INTRA:                  -5.367
REMARK UNBOUND:                -6.886
REMARK  Name = cpd52.pdb
REMARK  18 active torsions:
REMARK  status: ('A' for Active; 'I' for Inactive)
REMARK    1  A    between atoms: C_1  and  C_2
REMARK    2  A    between atoms: C_6  and  N_7
REMARK    3  A    between atoms: N_7  and  C_8
REMARK    4  A    between atoms: C_13  and  C_14
REMARK    5  A    between atoms: N_16  and  C_17
REMARK    6  A    between atoms: C_17  and  C_18
REMARK    7  A    between atoms: C_18  and  C_19
REMARK    8  A    between atoms: N_21  and  C_22
REMARK    9  A    between atoms: C_22  and  C_23
REMARK   10  A    between atoms: C_23  and  C_24
REMARK   11  A    between atoms: C_24  and  C_25
REMARK   12  A    between atoms: C_25  and  C_26
REMARK   13  A    between atoms: C_26  and  C_27
REMARK   14  A    between atoms: C_27  and  C_28
REMARK   15  A    between atoms: C_28  and  C_29
REMARK   16  A    between atoms: C_29  and  N_30
REMARK   17  A    between atoms: N_30  and  C_31
REMARK   18  A    between atoms: C_46  and  C_47
REMARK                            x       y       z     vdW  Elec       q    Type
REMARK                         _______ _______ _______ _____ _____    ______ ____
ROOT
ATOM      1  C   UNL A   1      40.662 -21.961 -38.000  0.00  0.00    +0.215 C 
ATOM      2  O   UNL A   1      41.365 -22.963 -37.941  0.00  0.00    -0.276 OA
ATOM      3  N   UNL A   1      41.008 -20.819 -38.688  0.00  0.00    -0.315 N 
ATOM      4  H   UNL A   1      40.382 -20.059 -38.692  0.00  0.00    +0.000 HD
ENDROOT
BRANCH   3   5
ATOM      5  C   UNL A   1      42.264 -20.697 -39.406  0.00  0.00    +0.012 C 
BRANCH   5   6
ATOM      6  C   UNL A   1      43.369 -20.078 -38.549  0.00  0.00    -0.037 C 
BRANCH   6   7
ATOM      7  C   UNL A   1      43.053 -18.692 -37.976  0.00  0.00    -0.052 C 
BRANCH   7   8
ATOM      8  C   UNL A   1      43.615 -18.471 -36.568  0.00  0.00    -0.053 C 
BRANCH   8   9
ATOM      9  C   UNL A   1      43.618 -19.775 -35.767  0.00  0.00    -0.053 C 
BRANCH   9  10
ATOM     10  C   UNL A   1      44.516 -19.722 -34.528  0.00  0.00    -0.052 C 
BRANCH  10  11
ATOM     11  C   UNL A   1      45.985 -19.445 -34.848  0.00  0.00    -0.037 C 
BRANCH  11  12
ATOM     12  C   UNL A   1      46.489 -20.376 -35.952  0.00  0.00    +0.009 C 
BRANCH  12  13
ATOM     13  N   UNL A   1      47.588 -19.714 -36.673  0.00  0.00    -0.343 N 
ATOM     14  H   UNL A   1      48.512 -19.655 -36.340  0.00  0.00    +0.000 HD
BRANCH  13  15
ATOM     15  C   UNL A   1      47.147 -19.170 -37.915  0.00  0.00    +0.041 A 
ATOM     16  C   UNL A   1      46.943 -17.778 -38.003  0.00  0.00    -0.005 A 
ATOM     17  C   UNL A   1      46.478 -17.266 -39.216  0.00  0.00    +0.047 A 
ATOM     18  N   UNL A   1      46.173 -18.045 -40.280  0.00  0.00    -0.251 NA
ATOM     19  C   UNL A   1      46.346 -19.369 -40.189  0.00  0.00    +0.074 A 
ATOM     20  C   UNL A   1      46.022 -20.133 -41.301  0.00  0.00    -0.017 A 
ATOM     21  C   UNL A   1      46.167 -21.518 -41.295  0.00  0.00    +0.043 A 
ATOM     22 CL   UNL A   1      45.753 -22.429 -42.693  0.00  0.00    -0.083 Cl
ATOM     23  C   UNL A   1      46.644 -22.166 -40.166  0.00  0.00    -0.043 A 
ATOM     24  C   UNL A   1      46.975 -21.415 -39.040  0.00  0.00    -0.049 A 
ATOM     25  C   UNL A   1      46.831 -20.003 -39.026  0.00  0.00    +0.022 A 
ATOM     26  C   UNL A   1      46.227 -15.793 -39.407  0.00  0.00    -0.010 C 
ATOM     27  C   UNL A   1      46.987 -14.918 -38.416  0.00  0.00    -0.047 C 
ATOM     28  C   UNL A   1      46.776 -15.440 -37.002  0.00  0.00    -0.049 C 
ATOM     29  C   UNL A   1      47.326 -16.860 -36.866  0.00  0.00    -0.024 C 
ENDBRANCH  13  15
ENDBRANCH  12  13
ENDBRANCH  11  12
ENDBRANCH  10  11
ENDBRANCH   9  10
ENDBRANCH   8   9
ENDBRANCH   7   8
ENDBRANCH   6   7
ENDBRANCH   5   6
ENDBRANCH   3   5
BRANCH   1  30
ATOM     30  C   UNL A   1      39.331 -21.884 -37.291  0.00  0.00    +0.039 C 
BRANCH  30  31
ATOM     31  C   UNL A   1      39.179 -23.041 -36.318  0.00  0.00    +0.020 C 
BRANCH  31  34
ATOM     32  C   UNL A   1      40.256 -21.956 -34.299  0.00  0.00    +0.246 C 
ATOM     33  O   UNL A   1      41.345 -21.708 -33.789  0.00  0.00    -0.270 OA
ATOM     34  N   UNL A   1      40.145 -22.963 -35.230  0.00  0.00    -0.311 N 
ATOM     35  H   UNL A   1      40.785 -23.707 -35.154  0.00  0.00    +0.000 HD
BRANCH  32  41
ATOM     36  C   UNL A   1      38.967 -19.808 -34.299  0.00  0.00    +0.044 A 
ATOM     37  C   UNL A   1      37.793 -19.118 -33.957  0.00  0.00    -0.040 A 
ATOM     38  C   UNL A   1      36.803 -19.716 -33.170  0.00  0.00    -0.060 A 
ATOM     39  C   UNL A   1      36.960 -21.025 -32.723  0.00  0.00    -0.061 A 
ATOM     40  C   UNL A   1      38.091 -21.749 -33.094  0.00  0.00    -0.048 A 
ATOM     41  C   UNL A   1      39.068 -21.161 -33.914  0.00  0.00    +0.058 A 
BRANCH  36  42
ATOM     42  N   UNL A   1      39.947 -19.202 -35.137  0.00  0.00    -0.314 N 
ATOM     43  H   UNL A   1      40.366 -19.773 -35.820  0.00  0.00    +0.000 HD
BRANCH  42  49
ATOM     44  C   UNL A   1      42.268 -15.473 -32.728  0.00  0.00    -0.039 C 
ATOM     45  C   UNL A   1      41.461 -16.016 -33.877  0.00  0.00    -0.046 A 
ATOM     46  C   UNL A   1      41.051 -15.132 -34.886  0.00  0.00    -0.058 A 
ATOM     47  C   UNL A   1      40.296 -15.583 -35.964  0.00  0.00    -0.060 A 
ATOM     48  C   UNL A   1      39.955 -16.929 -36.053  0.00  0.00    -0.040 A 
ATOM     49  C   UNL A   1      40.376 -17.846 -35.078  0.00  0.00    +0.035 A 
ATOM     50  C   UNL A   1      41.084 -17.379 -33.946  0.00  0.00    -0.026 A 
ATOM     51  C   UNL A   1      41.514 -18.348 -32.873  0.00  0.00    -0.038 C 
ENDBRANCH  42  49
ENDBRANCH  36  42
ENDBRANCH  32  41
ENDBRANCH  31  34
ENDBRANCH  30  31
ENDBRANCH   1  30
TORSDOF 16
ENDMDL
MODEL 3
REMARK VINA RESULT:    -6.066      3.007      8.776
REMARK INTER + INTRA:         -18.627
REMARK INTER:                 -12.994
REMARK INTRA:                  -5.633
REMARK UNBOUND:                -6.886
REMARK  Name = cpd52.pdb
REMARK  18 active torsions:
REMARK  status: ('A' for Active; 'I' for Inactive)
REMARK    1  A    between atoms: C_1  and  C_2
REMARK    2  A    between atoms: C_6  and  N_7
REMARK    3  A    between atoms: N_7  and  C_8
REMARK    4  A    between atoms: C_13  and  C_14
REMARK    5  A    between atoms: N_16  and  C_17
REMARK    6  A    between atoms: C_17  and  C_18
REMARK    7  A    between atoms: C_18  and  C_19
REMARK    8  A    between atoms: N_21  and  C_22
REMARK    9  A    between atoms: C_22  and  C_23
REMARK   10  A    between atoms: C_23  and  C_24
REMARK   11  A    between atoms: C_24  and  C_25
REMARK   12  A    between atoms: C_25  and  C_26
REMARK   13  A    between atoms: C_26  and  C_27
REMARK   14  A    between atoms: C_27  and  C_28
REMARK   15  A    between atoms: C_28  and  C_29
REMARK   16  A    between atoms: C_29  and  N_30
REMARK   17  A    between atoms: N_30  and  C_31
REMARK   18  A    between atoms: C_46  and  C_47
REMARK                            x       y       z     vdW  Elec       q    Type
REMARK                         _______ _______ _______ _____ _____    ______ ____
ROOT
ATOM      1  C   UNL A   1      40.739 -21.803 -38.696  0.00  0.00    +0.215 C 
ATOM      2  O   UNL A   1      41.232 -22.925 -38.718  0.00  0.00    -0.276 OA
ATOM      3  N   UNL A   1      41.313 -20.699 -39.287  0.00  0.00    -0.315 N 
ATOM      4  H   UNL A   1      40.848 -19.834 -39.229  0.00  0.00    +0.000 HD
ENDROOT
BRANCH   3   5
ATOM      5  C   UNL A   1      42.581 -20.768 -39.990  0.00  0.00    +0.012 C 
BRANCH   5   6
ATOM      6  C   UNL A   1      43.607 -19.774 -39.441  0.00  0.00    -0.037 C 
BRANCH   6   7
ATOM      7  C   UNL A   1      43.020 -18.490 -38.847  0.00  0.00    -0.052 C 
BRANCH   7   8
ATOM      8  C   UNL A   1      43.451 -18.235 -37.399  0.00  0.00    -0.053 C 
BRANCH   8   9
ATOM      9  C   UNL A   1      43.204 -19.469 -36.528  0.00  0.00    -0.053 C 
BRANCH   9  10
ATOM     10  C   UNL A   1      44.060 -19.495 -35.259  0.00  0.00    -0.052 C 
BRANCH  10  11
ATOM     11  C   UNL A   1      45.542 -19.222 -35.514  0.00  0.00    -0.037 C 
BRANCH  11  12
ATOM     12  C   UNL A   1      46.160 -20.323 -36.379  0.00  0.00    +0.009 C 
BRANCH  12  13
ATOM     13  N   UNL A   1      47.390 -19.811 -37.003  0.00  0.00    -0.343 N 
ATOM     14  H   UNL A   1      48.277 -19.832 -36.578  0.00  0.00    +0.000 HD
BRANCH  13  15
ATOM     15  C   UNL A   1      47.135 -19.278 -38.302  0.00  0.00    +0.041 A 
ATOM     16  C   UNL A   1      47.032 -20.173 -39.385  0.00  0.00    -0.005 A 
ATOM     17  C   UNL A   1      46.816 -19.633 -40.654  0.00  0.00    +0.047 A 
ATOM     18  N   UNL A   1      46.751 -18.302 -40.890  0.00  0.00    -0.251 NA
ATOM     19  C   UNL A   1      46.870 -17.451 -39.865  0.00  0.00    +0.074 A 
ATOM     20  C   UNL A   1      46.798 -16.095 -40.147  0.00  0.00    -0.017 A 
ATOM     21  C   UNL A   1      46.915 -15.138 -39.143  0.00  0.00    +0.043 A 
ATOM     22 CL   UNL A   1      46.822 -13.466 -39.535  0.00  0.00    -0.083 Cl
ATOM     23  C   UNL A   1      47.108 -15.528 -37.826  0.00  0.00    -0.043 A 
ATOM     24  C   UNL A   1      47.182 -16.886 -37.523  0.00  0.00    -0.049 A 
ATOM     25  C   UNL A   1      47.068 -17.875 -38.533  0.00  0.00    +0.022 A 
ATOM     26  C   UNL A   1      46.695 -20.508 -41.875  0.00  0.00    -0.010 C 
ATOM     27  C   UNL A   1      46.311 -21.947 -41.550  0.00  0.00    -0.047 C 
ATOM     28  C   UNL A   1      47.212 -22.483 -40.448  0.00  0.00    -0.049 C 
ATOM     29  C   UNL A   1      47.036 -21.668 -39.166  0.00  0.00    -0.024 C 
ENDBRANCH  13  15
ENDBRANCH  12  13
ENDBRANCH  11  12
ENDBRANCH  10  11
ENDBRANCH   9  10
ENDBRANCH   8   9
ENDBRANCH   7   8
ENDBRANCH   6   7
ENDBRANCH   5   6
ENDBRANCH   3   5
BRANCH   1  30
ATOM     30  C   UNL A   1      39.436 -21.524 -37.986  0.00  0.00    +0.039 C 
BRANCH  30  31
ATOM     31  C   UNL A   1      39.149 -22.605 -36.957  0.00  0.00    +0.020 C 
BRANCH  31  34
ATOM     32  C   UNL A   1      40.234 -21.898 -34.781  0.00  0.00    +0.246 C 
ATOM     33  O   UNL A   1      41.320 -21.630 -34.273  0.00  0.00    -0.270 OA
ATOM     34  N   UNL A   1      40.179 -22.657 -35.927  0.00  0.00    -0.311 N 
ATOM     35  H   UNL A   1      40.909 -23.301 -36.065  0.00  0.00    +0.000 HD
BRANCH  32  41
ATOM     36  C   UNL A   1      38.649 -20.027 -34.269  0.00  0.00    +0.044 A 
ATOM     37  C   UNL A   1      37.429 -19.613 -33.711  0.00  0.00    -0.040 A 
ATOM     38  C   UNL A   1      36.629 -20.496 -32.979  0.00  0.00    -0.060 A 
ATOM     39  C   UNL A   1      37.025 -21.819 -32.805  0.00  0.00    -0.061 A 
ATOM     40  C   UNL A   1      38.205 -22.268 -33.394  0.00  0.00    -0.048 A 
ATOM     41  C   UNL A   1      38.990 -21.391 -34.160  0.00  0.00    +0.058 A 
BRANCH  36  42
ATOM     42  N   UNL A   1      39.433 -19.128 -35.048  0.00  0.00    -0.314 N 
ATOM     43  H   UNL A   1      39.321 -19.170 -36.025  0.00  0.00    +0.000 HD
BRANCH  42  49
ATOM     44  C   UNL A   1      42.105 -14.932 -35.629  0.00  0.00    -0.039 C 
ATOM     45  C   UNL A   1      41.707 -16.158 -34.853  0.00  0.00    -0.046 A 
ATOM     46  C   UNL A   1      42.336 -16.409 -33.625  0.00  0.00    -0.058 A 
ATOM     47  C   UNL A   1      42.009 -17.534 -32.875  0.00  0.00    -0.060 A 
ATOM     48  C   UNL A   1      41.035 -18.415 -33.337  0.00  0.00    -0.040 A 
ATOM     49  C   UNL A   1      40.362 -18.175 -34.546  0.00  0.00    +0.035 A 
ATOM     50  C   UNL A   1      40.742 -17.071 -35.344  0.00  0.00    -0.026 A 
ATOM     51  C   UNL A   1      40.051 -16.821 -36.662  0.00  0.00    -0.038 C 
ENDBRANCH  42  49
ENDBRANCH  36  42
ENDBRANCH  32  41
ENDBRANCH  31  34
ENDBRANCH  30  31
ENDBRANCH   1  30
TORSDOF 16
ENDMDL
MODEL 4
REMARK VINA RESULT:    -6.057      1.915      3.387
REMARK INTER + INTRA:         -18.609
REMARK INTER:                 -12.922
REMARK INTRA:                  -5.687
REMARK UNBOUND:                -6.886
REMARK  Name = cpd52.pdb
REMARK  18 active torsions:
REMARK  status: ('A' for Active; 'I' for Inactive)
REMARK    1  A    between atoms: C_1  and  C_2
REMARK    2  A    between atoms: C_6  and  N_7
REMARK    3  A    between atoms: N_7  and  C_8
REMARK    4  A    between atoms: C_13  and  C_14
REMARK    5  A    between atoms: N_16  and  C_17
REMARK    6  A    between atoms: C_17  and  C_18
REMARK    7  A    between atoms: C_18  and  C_19
REMARK    8  A    between atoms: N_21  and  C_22
REMARK    9  A    between atoms: C_22  and  C_23
REMARK   10  A    between atoms: C_23  and  C_24
REMARK   11  A    between atoms: C_24  and  C_25
REMARK   12  A    between atoms: C_25  and  C_26
REMARK   13  A    between atoms: C_26  and  C_27
REMARK   14  A    between atoms: C_27  and  C_28
REMARK   15  A    between atoms: C_28  and  C_29
REMARK   16  A    between atoms: C_29  and  N_30
REMARK   17  A    between atoms: N_30  and  C_31
REMARK   18  A    between atoms: C_46  and  C_47
REMARK                            x       y       z     vdW  Elec       q    Type
REMARK                         _______ _______ _______ _____ _____    ______ ____
ROOT
ATOM      1  C   UNL A   1      45.112 -18.548 -34.578  0.00  0.00    +0.215 C 
ATOM      2  O   UNL A   1      44.500 -18.330 -33.538  0.00  0.00    -0.276 OA
ATOM      3  N   UNL A   1      44.618 -19.310 -35.613  0.00  0.00    -0.315 N 
ATOM      4  H   UNL A   1      45.171 -19.431 -36.419  0.00  0.00    +0.000 HD
ENDROOT
BRANCH   3   5
ATOM      5  C   UNL A   1      43.312 -19.941 -35.559  0.00  0.00    +0.012 C 
BRANCH   5   6
ATOM      6  C   UNL A   1      43.126 -20.993 -36.654  0.00  0.00    -0.037 C 
BRANCH   6   7
ATOM      7  C   UNL A   1      43.544 -20.553 -38.061  0.00  0.00    -0.052 C 
BRANCH   7   8
ATOM      8  C   UNL A   1      43.044 -21.488 -39.166  0.00  0.00    -0.053 C 
BRANCH   8   9
ATOM      9  C   UNL A   1      41.514 -21.522 -39.207  0.00  0.00    -0.053 C 
BRANCH   9  10
ATOM     10  C   UNL A   1      40.883 -20.138 -39.379  0.00  0.00    -0.052 C 
BRANCH  10  11
ATOM     11  C   UNL A   1      39.376 -20.115 -39.120  0.00  0.00    -0.037 C 
BRANCH  11  12
ATOM     12  C   UNL A   1      39.037 -19.190 -37.949  0.00  0.00    +0.009 C 
BRANCH  12  13
ATOM     13  N   UNL A   1      40.109 -19.274 -36.945  0.00  0.00    -0.343 N 
ATOM     14  H   UNL A   1      41.066 -19.162 -37.146  0.00  0.00    +0.000 HD
BRANCH  13  15
ATOM     15  C   UNL A   1      39.587 -19.539 -35.644  0.00  0.00    +0.041 A 
ATOM     16  C   UNL A   1      39.529 -18.481 -34.716  0.00  0.00    -0.005 A 
ATOM     17  C   UNL A   1      39.047 -18.765 -33.437  0.00  0.00    +0.047 A 
ATOM     18  N   UNL A   1      38.685 -20.008 -33.042  0.00  0.00    -0.251 NA
ATOM     19  C   UNL A   1      38.761 -21.018 -33.917  0.00  0.00    +0.074 A 
ATOM     20  C   UNL A   1      38.381 -22.277 -33.474  0.00  0.00    -0.017 A 
ATOM     21  C   UNL A   1      38.431 -23.385 -34.314  0.00  0.00    +0.043 A 
ATOM     22 CL   UNL A   1      37.953 -24.929 -33.727  0.00  0.00    -0.083 Cl
ATOM     23  C   UNL A   1      38.866 -23.251 -35.624  0.00  0.00    -0.043 A 
ATOM     24  C   UNL A   1      39.251 -21.994 -36.087  0.00  0.00    -0.049 A 
ATOM     25  C   UNL A   1      39.209 -20.853 -35.244  0.00  0.00    +0.022 A 
ATOM     26  C   UNL A   1      38.948 -17.701 -32.375  0.00  0.00    -0.010 C 
ATOM     27  C   UNL A   1      38.907 -16.286 -32.942  0.00  0.00    -0.047 C 
ATOM     28  C   UNL A   1      40.032 -16.102 -33.950  0.00  0.00    -0.049 C 
ATOM     29  C   UNL A   1      39.862 -17.065 -35.125  0.00  0.00    -0.024 C 
ENDBRANCH  13  15
ENDBRANCH  12  13
ENDBRANCH  11  12
ENDBRANCH  10  11
ENDBRANCH   9  10
ENDBRANCH   8   9
ENDBRANCH   7   8
ENDBRANCH   6   7
ENDBRANCH   5   6
ENDBRANCH   3   5
BRANCH   1  30
ATOM     30  C   UNL A   1      46.500 -18.003 -34.810  0.00  0.00    +0.039 C 
BRANCH  30  31
ATOM     31  C   UNL A   1      46.932 -18.241 -36.247  0.00  0.00    +0.020 C 
BRANCH  31  34
ATOM     32  C   UNL A   1      46.683 -16.398 -37.966  0.00  0.00    +0.246 C 
ATOM     33  O   UNL A   1      47.321 -15.704 -38.754  0.00  0.00    -0.270 OA
ATOM     34  N   UNL A   1      47.320 -17.000 -36.906  0.00  0.00    -0.311 N 
ATOM     35  H   UNL A   1      48.120 -16.547 -36.557  0.00  0.00    +0.000 HD
BRANCH  32  41
ATOM     36  C   UNL A   1      44.756 -17.212 -39.344  0.00  0.00    +0.044 A 
ATOM     37  C   UNL A   1      43.372 -17.420 -39.459  0.00  0.00    -0.040 A 
ATOM     38  C   UNL A   1      42.482 -16.934 -38.496  0.00  0.00    -0.060 A 
ATOM     39  C   UNL A   1      42.961 -16.242 -37.387  0.00  0.00    -0.061 A 
ATOM     40  C   UNL A   1      44.334 -16.069 -37.223  0.00  0.00    -0.048 A 
ATOM     41  C   UNL A   1      45.229 -16.590 -38.171  0.00  0.00    +0.058 A 
BRANCH  36  42
ATOM     42  N   UNL A   1      45.653 -17.751 -40.310  0.00  0.00    -0.314 N 
ATOM     43  H   UNL A   1      46.081 -17.113 -40.927  0.00  0.00    +0.000 HD
BRANCH  42  49
ATOM     44  C   UNL A   1      45.087 -22.121 -42.692  0.00  0.00    -0.039 C 
ATOM     45  C   UNL A   1      45.670 -21.269 -41.597  0.00  0.00    -0.046 A 
ATOM     46  C   UNL A   1      46.512 -21.873 -40.651  0.00  0.00    -0.058 A 
ATOM     47  C   UNL A   1      47.067 -21.130 -39.614  0.00  0.00    -0.060 A 
ATOM     48  C   UNL A   1      46.800 -19.767 -39.520  0.00  0.00    -0.040 A 
ATOM     49  C   UNL A   1      45.988 -19.124 -40.469  0.00  0.00    +0.035 A 
ATOM     50  C   UNL A   1      45.367 -19.890 -41.482  0.00  0.00    -0.026 A 
ATOM     51  C   UNL A   1      44.464 -19.218 -42.488  0.00  0.00    -0.038 C 
ENDBRANCH  42  49
ENDBRANCH  36  42
ENDBRANCH  32  41
ENDBRANCH  31  34
ENDBRANCH  30  31
ENDBRANCH   1  30
TORSDOF 16
ENDMDL
MODEL 5
REMARK VINA RESULT:    -5.778      2.914      8.774
REMARK INTER + INTRA:         -18.069
REMARK INTER:                 -12.582
REMARK INTRA:                  -5.487
REMARK UNBOUND:                -6.886
REMARK  Name = cpd52.pdb
REMARK  18 active torsions:
REMARK  status: ('A' for Active; 'I' for Inactive)
REMARK    1  A    between atoms: C_1  and  C_2
REMARK    2  A    between atoms: C_6  and  N_7
REMARK    3  A    between atoms: N_7  and  C_8
REMARK    4  A    between atoms: C_13  and  C_14
REMARK    5  A    between atoms: N_16  and  C_17
REMARK    6  A    between atoms: C_17  and  C_18
REMARK    7  A    between atoms: C_18  and  C_19
REMARK    8  A    between atoms: N_21  and  C_22
REMARK    9  A    between atoms: C_22  and  C_23
REMARK   10  A    between atoms: C_23  and  C_24
REMARK   11  A    between atoms: C_24  and  C_25
REMARK   12  A    between atoms: C_25  and  C_26
REMARK   13  A    between atoms: C_26  and  C_27
REMARK   14  A    between atoms: C_27  and  C_28
REMARK   15  A    between atoms: C_28  and  C_29
REMARK   16  A    between atoms: C_29  and  N_30
REMARK   17  A    between atoms: N_30  and  C_31
REMARK   18  A    between atoms: C_46  and  C_47
REMARK                            x       y       z     vdW  Elec       q    Type
REMARK                         _______ _______ _______ _____ _____    ______ ____
ROOT
ATOM      1  C   UNL A   1      40.795 -21.891 -38.209  0.00  0.00    +0.215 C 
ATOM      2  O   UNL A   1      41.271 -22.988 -38.476  0.00  0.00    -0.276 OA
ATOM      3  N   UNL A   1      41.456 -20.699 -38.404  0.00  0.00    -0.315 N 
ATOM      4  H   UNL A   1      41.000 -19.859 -38.169  0.00  0.00    +0.000 HD
ENDROOT
BRANCH   3   5
ATOM      5  C   UNL A   1      42.802 -20.637 -38.945  0.00  0.00    +0.012 C 
BRANCH   5   6
ATOM      6  C   UNL A   1      43.725 -19.746 -38.111  0.00  0.00    -0.037 C 
BRANCH   6   7
ATOM      7  C   UNL A   1      43.137 -18.389 -37.711  0.00  0.00    -0.052 C 
BRANCH   7   8
ATOM      8  C   UNL A   1      44.075 -17.552 -36.836  0.00  0.00    -0.053 C 
BRANCH   8   9
ATOM      9  C   UNL A   1      44.946 -18.448 -35.952  0.00  0.00    -0.053 C 
BRANCH   9  10
ATOM     10  C   UNL A   1      46.398 -17.971 -35.852  0.00  0.00    -0.052 C 
BRANCH  10  11
ATOM     11  C   UNL A   1      46.960 -17.438 -37.171  0.00  0.00    -0.037 C 
BRANCH  11  12
ATOM     12  C   UNL A   1      47.236 -18.582 -38.149  0.00  0.00    +0.009 C 
BRANCH  12  13
ATOM     13  N   UNL A   1      47.442 -18.024 -39.494  0.00  0.00    -0.343 N 
ATOM     14  H   UNL A   1      48.264 -17.567 -39.785  0.00  0.00    +0.000 HD
BRANCH  13  15
ATOM     15  C   UNL A   1      46.300 -18.227 -40.325  0.00  0.00    +0.041 A 
ATOM     16  C   UNL A   1      46.180 -19.451 -41.013  0.00  0.00    -0.005 A 
ATOM     17  C   UNL A   1      45.074 -19.620 -41.848  0.00  0.00    +0.047 A 
ATOM     18  N   UNL A   1      44.151 -18.652 -42.058  0.00  0.00    -0.251 NA
ATOM     19  C   UNL A   1      44.277 -17.482 -41.422  0.00  0.00    +0.074 A 
ATOM     20  C   UNL A   1      43.311 -16.516 -41.664  0.00  0.00    -0.017 A 
ATOM     21  C   UNL A   1      43.364 -15.269 -41.048  0.00  0.00    +0.043 A 
ATOM     22 CL   UNL A   1      42.148 -14.098 -41.377  0.00  0.00    -0.083 Cl
ATOM     23  C   UNL A   1      44.394 -14.965 -40.172  0.00  0.00    -0.043 A 
ATOM     24  C   UNL A   1      45.373 -15.923 -39.915  0.00  0.00    -0.049 A 
ATOM     25  C   UNL A   1      45.337 -17.199 -40.535  0.00  0.00    +0.022 A 
ATOM     26  C   UNL A   1      44.859 -20.892 -42.627  0.00  0.00    -0.010 C 
ATOM     27  C   UNL A   1      45.604 -22.088 -42.045  0.00  0.00    -0.047 C 
ATOM     28  C   UNL A   1      47.057 -21.715 -41.790  0.00  0.00    -0.049 C 
ATOM     29  C   UNL A   1      47.148 -20.584 -40.765  0.00  0.00    -0.024 C 
ENDBRANCH  13  15
ENDBRANCH  12  13
ENDBRANCH  11  12
ENDBRANCH  10  11
ENDBRANCH   9  10
ENDBRANCH   8   9
ENDBRANCH   7   8
ENDBRANCH   6   7
ENDBRANCH   5   6
ENDBRANCH   3   5
BRANCH   1  30
ATOM     30  C   UNL A   1      39.418 -21.750 -37.609  0.00  0.00    +0.039 C 
BRANCH  30  31
ATOM     31  C   UNL A   1      39.198 -22.797 -36.529  0.00  0.00    +0.020 C 
BRANCH  31  34
ATOM     32  C   UNL A   1      40.507 -21.853 -34.577  0.00  0.00    +0.246 C 
ATOM     33  O   UNL A   1      41.649 -21.649 -34.175  0.00  0.00    -0.270 OA
ATOM     34  N   UNL A   1      40.278 -22.798 -35.550  0.00  0.00    -0.311 N 
ATOM     35  H   UNL A   1      40.908 -23.552 -35.590  0.00  0.00    +0.000 HD
BRANCH  32  41
ATOM     36  C   UNL A   1      39.393 -19.662 -34.092  0.00  0.00    +0.044 A 
ATOM     37  C   UNL A   1      38.274 -18.974 -33.597  0.00  0.00    -0.040 A 
ATOM     38  C   UNL A   1      37.232 -19.649 -32.954  0.00  0.00    -0.060 A 
ATOM     39  C   UNL A   1      37.280 -21.033 -32.808  0.00  0.00    -0.061 A 
ATOM     40  C   UNL A   1      38.354 -21.745 -33.339  0.00  0.00    -0.048 A 
ATOM     41  C   UNL A   1      39.382 -21.070 -34.017  0.00  0.00    +0.058 A 
BRANCH  36  42
ATOM     42  N   UNL A   1      40.426 -18.966 -34.783  0.00  0.00    -0.314 N 
ATOM     43  H   UNL A   1      40.518 -19.144 -35.747  0.00  0.00    +0.000 HD
BRANCH  42  49
ATOM     44  C   UNL A   1      42.334 -14.342 -34.511  0.00  0.00    -0.039 C 
ATOM     45  C   UNL A   1      42.305 -15.795 -34.117  0.00  0.00    -0.046 A 
ATOM     46  C   UNL A   1      43.267 -16.264 -33.210  0.00  0.00    -0.058 A 
ATOM     47  C   UNL A   1      43.288 -17.600 -32.822  0.00  0.00    -0.060 A 
ATOM     48  C   UNL A   1      42.336 -18.481 -33.325  0.00  0.00    -0.040 A 
ATOM     49  C   UNL A   1      41.339 -18.037 -34.209  0.00  0.00    +0.035 A 
ATOM     50  C   UNL A   1      41.358 -16.696 -34.659  0.00  0.00    -0.026 A 
ATOM     51  C   UNL A   1      40.313 -16.215 -35.636  0.00  0.00    -0.038 C 
ENDBRANCH  42  49
ENDBRANCH  36  42
ENDBRANCH  32  41
ENDBRANCH  31  34
ENDBRANCH  30  31
ENDBRANCH   1  30
TORSDOF 16
ENDMDL
MODEL 6
REMARK VINA RESULT:    -5.770      1.489      3.053
REMARK INTER + INTRA:         -18.053
REMARK INTER:                 -11.518
REMARK INTRA:                  -6.535
REMARK UNBOUND:                -6.886
REMARK  Name = cpd52.pdb
REMARK  18 active torsions:
REMARK  status: ('A' for Active; 'I' for Inactive)
REMARK    1  A    between atoms: C_1  and  C_2
REMARK    2  A    between atoms: C_6  and  N_7
REMARK    3  A    between atoms: N_7  and  C_8
REMARK    4  A    between atoms: C_13  and  C_14
REMARK    5  A    between atoms: N_16  and  C_17
REMARK    6  A    between atoms: C_17  and  C_18
REMARK    7  A    between atoms: C_18  and  C_19
REMARK    8  A    between atoms: N_21  and  C_22
REMARK    9  A    between atoms: C_22  and  C_23
REMARK   10  A    between atoms: C_23  and  C_24
REMARK   11  A    between atoms: C_24  and  C_25
REMARK   12  A    between atoms: C_25  and  C_26
REMARK   13  A    between atoms: C_26  and  C_27
REMARK   14  A    between atoms: C_27  and  C_28
REMARK   15  A    between atoms: C_28  and  C_29
REMARK   16  A    between atoms: C_29  and  N_30
REMARK   17  A    between atoms: N_30  and  C_31
REMARK   18  A    between atoms: C_46  and  C_47
REMARK                            x       y       z     vdW  Elec       q    Type
REMARK                         _______ _______ _______ _____ _____    ______ ____
ROOT
ATOM      1  C   UNL A   1      45.164 -18.396 -34.780  0.00  0.00    +0.215 C 
ATOM      2  O   UNL A   1      44.554 -18.805 -33.798  0.00  0.00    -0.276 OA
ATOM      3  N   UNL A   1      44.909 -17.191 -35.395  0.00  0.00    -0.315 N 
ATOM      4  H   UNL A   1      45.450 -16.933 -36.176  0.00  0.00    +0.000 HD
ENDROOT
BRANCH   3   5
ATOM      5  C   UNL A   1      43.870 -16.288 -34.933  0.00  0.00    +0.012 C 
BRANCH   5   6
ATOM      6  C   UNL A   1      42.740 -16.130 -35.951  0.00  0.00    -0.037 C 
BRANCH   6   7
ATOM      7  C   UNL A   1      42.824 -17.054 -37.171  0.00  0.00    -0.052 C 
BRANCH   7   8
ATOM      8  C   UNL A   1      41.588 -17.941 -37.352  0.00  0.00    -0.053 C 
BRANCH   8   9
ATOM      9  C   UNL A   1      40.980 -17.756 -38.744  0.00  0.00    -0.053 C 
BRANCH   9  10
ATOM     10  C   UNL A   1      39.697 -18.564 -38.956  0.00  0.00    -0.052 C 
BRANCH  10  11
ATOM     11  C   UNL A   1      38.653 -18.356 -37.858  0.00  0.00    -0.037 C 
BRANCH  11  12
ATOM     12  C   UNL A   1      38.357 -19.668 -37.129  0.00  0.00    +0.009 C 
BRANCH  12  13
ATOM     13  N   UNL A   1      37.801 -19.364 -35.801  0.00  0.00    -0.343 N 
ATOM     14  H   UNL A   1      36.860 -19.130 -35.635  0.00  0.00    +0.000 HD
BRANCH  13  15
ATOM     15  C   UNL A   1      38.798 -19.451 -34.785  0.00  0.00    +0.041 A 
ATOM     16  C   UNL A   1      39.144 -20.724 -34.292  0.00  0.00    -0.005 A 
ATOM     17  C   UNL A   1      40.097 -20.789 -33.274  0.00  0.00    +0.047 A 
ATOM     18  N   UNL A   1      40.658 -19.691 -32.715  0.00  0.00    -0.251 NA
ATOM     19  C   UNL A   1      40.313 -18.480 -33.168  0.00  0.00    +0.074 A 
ATOM     20  C   UNL A   1      40.909 -17.380 -32.569  0.00  0.00    -0.017 A 
ATOM     21  C   UNL A   1      40.607 -16.083 -32.974  0.00  0.00    +0.043 A 
ATOM     22 CL   UNL A   1      41.367 -14.745 -32.205  0.00  0.00    -0.083 Cl
ATOM     23  C   UNL A   1      39.695 -15.864 -33.995  0.00  0.00    -0.043 A 
ATOM     24  C   UNL A   1      39.086 -16.957 -34.609  0.00  0.00    -0.049 A 
ATOM     25  C   UNL A   1      39.379 -18.286 -34.208  0.00  0.00    +0.022 A 
ATOM     26  C   UNL A   1      40.532 -22.104 -32.680  0.00  0.00    -0.010 C 
ATOM     27  C   UNL A   1      40.267 -23.294 -33.594  0.00  0.00    -0.047 C 
ATOM     28  C   UNL A   1      38.832 -23.247 -34.097  0.00  0.00    -0.049 C 
ATOM     29  C   UNL A   1      38.594 -21.982 -34.923  0.00  0.00    -0.024 C 
ENDBRANCH  13  15
ENDBRANCH  12  13
ENDBRANCH  11  12
ENDBRANCH  10  11
ENDBRANCH   9  10
ENDBRANCH   8   9
ENDBRANCH   7   8
ENDBRANCH   6   7
ENDBRANCH   5   6
ENDBRANCH   3   5
BRANCH   1  30
ATOM     30  C   UNL A   1      46.260 -19.208 -35.425  0.00  0.00    +0.039 C 
BRANCH  30  31
ATOM     31  C   UNL A   1      46.914 -18.421 -36.550  0.00  0.00    +0.020 C 
BRANCH  31  34
ATOM     32  C   UNL A   1      47.074 -19.672 -38.746  0.00  0.00    +0.246 C 
ATOM     33  O   UNL A   1      47.396 -20.753 -39.233  0.00  0.00    -0.270 OA
ATOM     34  N   UNL A   1      47.563 -19.298 -37.516  0.00  0.00    -0.311 N 
ATOM     35  H   UNL A   1      48.442 -19.661 -37.261  0.00  0.00    +0.000 HD
BRANCH  32  41
ATOM     36  C   UNL A   1      44.916 -19.274 -39.954  0.00  0.00    +0.044 A 
ATOM     37  C   UNL A   1      44.055 -18.370 -40.598  0.00  0.00    -0.040 A 
ATOM     38  C   UNL A   1      44.450 -17.055 -40.861  0.00  0.00    -0.060 A 
ATOM     39  C   UNL A   1      45.710 -16.610 -40.471  0.00  0.00    -0.061 A 
ATOM     40  C   UNL A   1      46.562 -17.472 -39.783  0.00  0.00    -0.048 A 
ATOM     41  C   UNL A   1      46.151 -18.781 -39.485  0.00  0.00    +0.058 A 
BRANCH  36  42
ATOM     42  N   UNL A   1      44.485 -20.598 -39.653  0.00  0.00    -0.314 N 
ATOM     43  H   UNL A   1      44.886 -21.328 -40.177  0.00  0.00    +0.000 HD
BRANCH  42  49
ATOM     44  C   UNL A   1      39.947 -22.325 -38.420  0.00  0.00    -0.039 C 
ATOM     45  C   UNL A   1      41.294 -21.754 -38.067  0.00  0.00    -0.046 A 
ATOM     46  C   UNL A   1      41.583 -21.499 -36.718  0.00  0.00    -0.058 A 
ATOM     47  C   UNL A   1      42.810 -20.963 -36.342  0.00  0.00    -0.060 A 
ATOM     48  C   UNL A   1      43.771 -20.689 -37.310  0.00  0.00    -0.040 A 
ATOM     49  C   UNL A   1      43.527 -20.963 -38.666  0.00  0.00    +0.035 A 
ATOM     50  C   UNL A   1      42.256 -21.443 -39.058  0.00  0.00    -0.026 A 
ATOM     51  C   UNL A   1      41.968 -21.709 -40.516  0.00  0.00    -0.038 C 
ENDBRANCH  42  49
ENDBRANCH  36  42
ENDBRANCH  32  41
ENDBRANCH  31  34
ENDBRANCH  30  31
ENDBRANCH   1  30
TORSDOF 16
ENDMDL
MODEL 7
REMARK VINA RESULT:    -5.724      3.186      6.193
REMARK INTER + INTRA:         -17.964
REMARK INTER:                 -11.149
REMARK INTRA:                  -6.815
REMARK UNBOUND:                -6.886
REMARK  Name = cpd52.pdb
REMARK  18 active torsions:
REMARK  status: ('A' for Active; 'I' for Inactive)
REMARK    1  A    between atoms: C_1  and  C_2
REMARK    2  A    between atoms: C_6  and  N_7
REMARK    3  A    between atoms: N_7  and  C_8
REMARK    4  A    between atoms: C_13  and  C_14
REMARK    5  A    between atoms: N_16  and  C_17
REMARK    6  A    between atoms: C_17  and  C_18
REMARK    7  A    between atoms: C_18  and  C_19
REMARK    8  A    between atoms: N_21  and  C_22
REMARK    9  A    between atoms: C_22  and  C_23
REMARK   10  A    between atoms: C_23  and  C_24
REMARK   11  A    between atoms: C_24  and  C_25
REMARK   12  A    between atoms: C_25  and  C_26
REMARK   13  A    between atoms: C_26  and  C_27
REMARK   14  A    between atoms: C_27  and  C_28
REMARK   15  A    between atoms: C_28  and  C_29
REMARK   16  A    between atoms: C_29  and  N_30
REMARK   17  A    between atoms: N_30  and  C_31
REMARK   18  A    between atoms: C_46  and  C_47
REMARK                            x       y       z     vdW  Elec       q    Type
REMARK                         _______ _______ _______ _____ _____    ______ ____
ROOT
ATOM      1  C   UNL A   1      39.738 -22.786 -35.074  0.00  0.00    +0.215 C 
ATOM      2  O   UNL A   1      39.038 -23.723 -35.442  0.00  0.00    -0.276 OA
ATOM      3  N   UNL A   1      39.334 -21.838 -34.161  0.00  0.00    -0.315 N 
ATOM      4  H   UNL A   1      39.961 -21.120 -33.913  0.00  0.00    +0.000 HD
ENDROOT
BRANCH   3   5
ATOM      5  C   UNL A   1      38.017 -21.859 -33.551  0.00  0.00    +0.012 C 
BRANCH   5   6
ATOM      6  C   UNL A   1      37.444 -20.455 -33.351  0.00  0.00    -0.037 C 
BRANCH   6   7
ATOM      7  C   UNL A   1      38.364 -19.471 -32.620  0.00  0.00    -0.052 C 
BRANCH   7   8
ATOM      8  C   UNL A   1      37.836 -18.034 -32.609  0.00  0.00    -0.053 C 
BRANCH   8   9
ATOM      9  C   UNL A   1      38.673 -17.134 -33.523  0.00  0.00    -0.053 C 
BRANCH   9  10
ATOM     10  C   UNL A   1      38.407 -15.642 -33.311  0.00  0.00    -0.052 C 
BRANCH  10  11
ATOM     11  C   UNL A   1      39.591 -14.749 -33.687  0.00  0.00    -0.037 C 
BRANCH  11  12
ATOM     12  C   UNL A   1      40.703 -15.566 -34.347  0.00  0.00    +0.009 C 
BRANCH  12  13
ATOM     13  N   UNL A   1      41.863 -14.692 -34.587  0.00  0.00    -0.343 N 
ATOM     14  H   UNL A   1      41.840 -13.711 -34.516  0.00  0.00    +0.000 HD
BRANCH  13  15
ATOM     15  C   UNL A   1      43.023 -15.445 -34.935  0.00  0.00    +0.041 A 
ATOM     16  C   UNL A   1      43.870 -15.889 -33.901  0.00  0.00    -0.005 A 
ATOM     17  C   UNL A   1      45.019 -16.596 -34.261  0.00  0.00    +0.047 A 
ATOM     18  N   UNL A   1      45.372 -16.826 -35.548  0.00  0.00    -0.251 NA
ATOM     19  C   UNL A   1      44.579 -16.386 -36.531  0.00  0.00    +0.074 A 
ATOM     20  C   UNL A   1      44.975 -16.641 -37.835  0.00  0.00    -0.017 A 
ATOM     21  C   UNL A   1      44.213 -16.217 -38.920  0.00  0.00    +0.043 A 
ATOM     22 CL   UNL A   1      44.741 -16.553 -40.522  0.00  0.00    -0.083 Cl
ATOM     23  C   UNL A   1      43.031 -15.524 -38.715  0.00  0.00    -0.043 A 
ATOM     24  C   UNL A   1      42.616 -15.258 -37.412  0.00  0.00    -0.049 A 
ATOM     25  C   UNL A   1      43.380 -15.680 -36.294  0.00  0.00    +0.022 A 
ATOM     26  C   UNL A   1      45.988 -17.110 -33.228  0.00  0.00    -0.010 C 
ATOM     27  C   UNL A   1      45.369 -17.256 -31.842  0.00  0.00    -0.047 C 
ATOM     28  C   UNL A   1      44.633 -15.977 -31.470  0.00  0.00    -0.049 C 
ATOM     29  C   UNL A   1      43.490 -15.712 -32.449  0.00  0.00    -0.024 C 
ENDBRANCH  13  15
ENDBRANCH  12  13
ENDBRANCH  11  12
ENDBRANCH  10  11
ENDBRANCH   9  10
ENDBRANCH   8   9
ENDBRANCH   7   8
ENDBRANCH   6   7
ENDBRANCH   5   6
ENDBRANCH   3   5
BRANCH   1  30
ATOM     30  C   UNL A   1      41.129 -22.576 -35.619  0.00  0.00    +0.039 C 
BRANCH  30  31
ATOM     31  C   UNL A   1      41.135 -22.713 -37.133  0.00  0.00    +0.020 C 
BRANCH  31  34
ATOM     32  C   UNL A   1      40.153 -20.977 -38.694  0.00  0.00    +0.246 C 
ATOM     33  O   UNL A   1      39.305 -20.090 -38.760  0.00  0.00    -0.270 OA
ATOM     34  N   UNL A   1      40.043 -21.967 -37.746  0.00  0.00    -0.311 N 
ATOM     35  H   UNL A   1      39.132 -22.195 -37.450  0.00  0.00    +0.000 HD
BRANCH  32  41
ATOM     36  C   UNL A   1      42.359 -20.057 -39.444  0.00  0.00    +0.044 A 
ATOM     37  C   UNL A   1      43.447 -20.131 -40.330  0.00  0.00    -0.040 A 
ATOM     38  C   UNL A   1      43.433 -21.000 -41.425  0.00  0.00    -0.060 A 
ATOM     39  C   UNL A   1      42.336 -21.828 -41.648  0.00  0.00    -0.061 A 
ATOM     40  C   UNL A   1      41.268 -21.812 -40.753  0.00  0.00    -0.048 A 
ATOM     41  C   UNL A   1      41.298 -20.966 -39.633  0.00  0.00    +0.058 A 
BRANCH  36  42
ATOM     42  N   UNL A   1      42.406 -19.198 -38.309  0.00  0.00    -0.314 N 
ATOM     43  H   UNL A   1      42.054 -18.286 -38.424  0.00  0.00    +0.000 HD
BRANCH  42  49
ATOM     44  C   UNL A   1      42.000 -19.143 -33.316  0.00  0.00    -0.039 C 
ATOM     45  C   UNL A   1      42.742 -19.460 -34.587  0.00  0.00    -0.046 A 
ATOM     46  C   UNL A   1      44.017 -20.037 -34.495  0.00  0.00    -0.058 A 
ATOM     47  C   UNL A   1      44.747 -20.339 -35.640  0.00  0.00    -0.060 A 
ATOM     48  C   UNL A   1      44.202 -20.082 -36.894  0.00  0.00    -0.040 A 
ATOM     49  C   UNL A   1      42.915 -19.536 -37.023  0.00  0.00    +0.035 A 
ATOM     50  C   UNL A   1      42.200 -19.164 -35.861  0.00  0.00    -0.026 A 
ATOM     51  C   UNL A   1      40.830 -18.543 -35.986  0.00  0.00    -0.038 C 
ENDBRANCH  42  49
ENDBRANCH  36  42
ENDBRANCH  32  41
ENDBRANCH  31  34
ENDBRANCH  30  31
ENDBRANCH   1  30
TORSDOF 16
ENDMDL
MODEL 8
REMARK VINA RESULT:    -5.657      3.009      8.134
REMARK INTER + INTRA:         -17.834
REMARK INTER:                 -13.674
REMARK INTRA:                  -4.160
REMARK UNBOUND:                -6.886
REMARK  Name = cpd52.pdb
REMARK  18 active torsions:
REMARK  status: ('A' for Active; 'I' for Inactive)
REMARK    1  A    between atoms: C_1  and  C_2
REMARK    2  A    between atoms: C_6  and  N_7
REMARK    3  A    between atoms: N_7  and  C_8
REMARK    4  A    between atoms: C_13  and  C_14
REMARK    5  A    between atoms: N_16  and  C_17
REMARK    6  A    between atoms: C_17  and  C_18
REMARK    7  A    between atoms: C_18  and  C_19
REMARK    8  A    between atoms: N_21  and  C_22
REMARK    9  A    between atoms: C_22  and  C_23
REMARK   10  A    between atoms: C_23  and  C_24
REMARK   11  A    between atoms: C_24  and  C_25
REMARK   12  A    between atoms: C_25  and  C_26
REMARK   13  A    between atoms: C_26  and  C_27
REMARK   14  A    between atoms: C_27  and  C_28
REMARK   15  A    between atoms: C_28  and  C_29
REMARK   16  A    between atoms: C_29  and  N_30
REMARK   17  A    between atoms: N_30  and  C_31
REMARK   18  A    between atoms: C_46  and  C_47
REMARK                            x       y       z     vdW  Elec       q    Type
REMARK                         _______ _______ _______ _____ _____    ______ ____
ROOT
ATOM      1  C   UNL A   1      42.171 -19.450 -34.203  0.00  0.00    +0.215 C 
ATOM      2  O   UNL A   1      42.338 -18.491 -33.458  0.00  0.00    -0.276 OA
ATOM      3  N   UNL A   1      41.867 -19.338 -35.541  0.00  0.00    -0.315 N 
ATOM      4  H   UNL A   1      41.756 -20.159 -36.074  0.00  0.00    +0.000 HD
ENDROOT
BRANCH   3   5
ATOM      5  C   UNL A   1      41.705 -18.052 -36.196  0.00  0.00    +0.012 C 
BRANCH   5   6
ATOM      6  C   UNL A   1      41.316 -18.192 -37.669  0.00  0.00    -0.037 C 
BRANCH   6   7
ATOM      7  C   UNL A   1      42.142 -19.205 -38.469  0.00  0.00    -0.052 C 
BRANCH   7   8
ATOM      8  C   UNL A   1      43.147 -18.555 -39.424  0.00  0.00    -0.053 C 
BRANCH   8   9
ATOM      9  C   UNL A   1      42.939 -17.039 -39.491  0.00  0.00    -0.053 C 
BRANCH   9  10
ATOM     10  C   UNL A   1      43.599 -16.391 -40.711  0.00  0.00    -0.052 C 
BRANCH  10  11
ATOM     11  C   UNL A   1      44.984 -15.811 -40.422  0.00  0.00    -0.037 C 
BRANCH  11  12
ATOM     12  C   UNL A   1      46.084 -16.714 -40.985  0.00  0.00    +0.009 C 
BRANCH  12  13
ATOM     13  N   UNL A   1      47.061 -16.998 -39.922  0.00  0.00    -0.343 N 
ATOM     14  H   UNL A   1      47.811 -16.406 -39.687  0.00  0.00    +0.000 HD
BRANCH  13  15
ATOM     15  C   UNL A   1      46.786 -18.240 -39.276  0.00  0.00    +0.041 A 
ATOM     16  C   UNL A   1      46.486 -18.227 -37.900  0.00  0.00    -0.005 A 
ATOM     17  C   UNL A   1      46.252 -19.454 -37.275  0.00  0.00    +0.047 A 
ATOM     18  N   UNL A   1      46.348 -20.641 -37.919  0.00  0.00    -0.251 NA
ATOM     19  C   UNL A   1      46.654 -20.654 -39.221  0.00  0.00    +0.074 A 
ATOM     20  C   UNL A   1      46.743 -21.891 -39.844  0.00  0.00    -0.017 A 
ATOM     21  C   UNL A   1      47.060 -21.999 -41.196  0.00  0.00    +0.043 A 
ATOM     22 CL   UNL A   1      47.162 -23.551 -41.930  0.00  0.00    -0.083 Cl
ATOM     23  C   UNL A   1      47.294 -20.862 -41.952  0.00  0.00    -0.043 A 
ATOM     24  C   UNL A   1      47.209 -19.611 -41.344  0.00  0.00    -0.049 A 
ATOM     25  C   UNL A   1      46.890 -19.480 -39.968  0.00  0.00    +0.022 A 
ATOM     26  C   UNL A   1      45.926 -19.545 -35.807  0.00  0.00    -0.010 C 
ATOM     27  C   UNL A   1      45.378 -18.244 -35.231  0.00  0.00    -0.047 C 
ATOM     28  C   UNL A   1      46.278 -17.084 -35.631  0.00  0.00    -0.049 C 
ATOM     29  C   UNL A   1      46.307 -16.927 -37.151  0.00  0.00    -0.024 C 
ENDBRANCH  13  15
ENDBRANCH  12  13
ENDBRANCH  11  12
ENDBRANCH  10  11
ENDBRANCH   9  10
ENDBRANCH   8   9
ENDBRANCH   7   8
ENDBRANCH   6   7
ENDBRANCH   5   6
ENDBRANCH   3   5
BRANCH   1  30
ATOM     30  C   UNL A   1      42.267 -20.870 -33.701  0.00  0.00    +0.039 C 
BRANCH  30  31
ATOM     31  C   UNL A   1      41.243 -21.118 -32.606  0.00  0.00    +0.020 C 
BRANCH  31  34
ATOM     32  C   UNL A   1      39.466 -22.704 -33.466  0.00  0.00    +0.246 C 
ATOM     33  O   UNL A   1      38.741 -23.636 -33.125  0.00  0.00    -0.270 OA
ATOM     34  N   UNL A   1      40.605 -22.421 -32.749  0.00  0.00    -0.311 N 
ATOM     35  H   UNL A   1      41.033 -23.175 -32.284  0.00  0.00    +0.000 HD
BRANCH  32  41
ATOM     36  C   UNL A   1      38.183 -20.823 -34.509  0.00  0.00    +0.044 A 
ATOM     37  C   UNL A   1      37.918 -20.042 -35.646  0.00  0.00    -0.040 A 
ATOM     38  C   UNL A   1      38.460 -20.368 -36.893  0.00  0.00    -0.060 A 
ATOM     39  C   UNL A   1      39.295 -21.475 -37.026  0.00  0.00    -0.061 A 
ATOM     40  C   UNL A   1      39.616 -22.234 -35.902  0.00  0.00    -0.048 A 
ATOM     41  C   UNL A   1      39.101 -21.885 -34.643  0.00  0.00    +0.058 A 
BRANCH  36  42
ATOM     42  N   UNL A   1      37.659 -20.453 -33.237  0.00  0.00    -0.314 N 
ATOM     43  H   UNL A   1      37.844 -21.060 -32.484  0.00  0.00    +0.000 HD
BRANCH  42  49
ATOM     44  C   UNL A   1      37.391 -15.673 -31.762  0.00  0.00    -0.039 C 
ATOM     45  C   UNL A   1      36.760 -16.974 -32.181  0.00  0.00    -0.046 A 
ATOM     46  C   UNL A   1      35.359 -17.060 -32.214  0.00  0.00    -0.058 A 
ATOM     47  C   UNL A   1      34.728 -18.243 -32.585  0.00  0.00    -0.060 A 
ATOM     48  C   UNL A   1      35.490 -19.351 -32.944  0.00  0.00    -0.040 A 
ATOM     49  C   UNL A   1      36.893 -19.288 -32.953  0.00  0.00    +0.035 A 
ATOM     50  C   UNL A   1      37.538 -18.110 -32.510  0.00  0.00    -0.026 A 
ATOM     51  C   UNL A   1      39.045 -18.041 -32.481  0.00  0.00    -0.038 C 
ENDBRANCH  42  49
ENDBRANCH  36  42
ENDBRANCH  32  41
ENDBRANCH  31  34
ENDBRANCH  30  31
ENDBRANCH   1  30
TORSDOF 16
ENDMDL
MODEL 9
REMARK VINA RESULT:    -5.650      2.470      4.865
REMARK INTER + INTRA:         -17.820
REMARK INTER:                 -12.073
REMARK INTRA:                  -5.748
REMARK UNBOUND:                -6.886
REMARK  Name = cpd52.pdb
REMARK  18 active torsions:
REMARK  status: ('A' for Active; 'I' for Inactive)
REMARK    1  A    between atoms: C_1  and  C_2
REMARK    2  A    between atoms: C_6  and  N_7
REMARK    3  A    between atoms: N_7  and  C_8
REMARK    4  A    between atoms: C_13  and  C_14
REMARK    5  A    between atoms: N_16  and  C_17
REMARK    6  A    between atoms: C_17  and  C_18
REMARK    7  A    between atoms: C_18  and  C_19
REMARK    8  A    between atoms: N_21  and  C_22
REMARK    9  A    between atoms: C_22  and  C_23
REMARK   10  A    between atoms: C_23  and  C_24
REMARK   11  A    between atoms: C_24  and  C_25
REMARK   12  A    between atoms: C_25  and  C_26
REMARK   13  A    between atoms: C_26  and  C_27
REMARK   14  A    between atoms: C_27  and  C_28
REMARK   15  A    between atoms: C_28  and  C_29
REMARK   16  A    between atoms: C_29  and  N_30
REMARK   17  A    between atoms: N_30  and  C_31
REMARK   18  A    between atoms: C_46  and  C_47
REMARK                            x       y       z     vdW  Elec       q    Type
REMARK                         _______ _______ _______ _____ _____    ______ ____
ROOT
ATOM      1  C   UNL A   1      45.038 -16.468 -34.736  0.00  0.00    +0.215 C 
ATOM      2  O   UNL A   1      46.110 -17.060 -34.788  0.00  0.00    -0.276 OA
ATOM      3  N   UNL A   1      44.107 -16.651 -33.739  0.00  0.00    -0.315 N 
ATOM      4  H   UNL A   1      43.272 -16.130 -33.767  0.00  0.00    +0.000 HD
ENDROOT
BRANCH   3   5
ATOM      5  C   UNL A   1      44.313 -17.586 -32.647  0.00  0.00    +0.012 C 
BRANCH   5   6
ATOM      6  C   UNL A   1      43.655 -18.942 -32.908  0.00  0.00    -0.037 C 
BRANCH   6   7
ATOM      7  C   UNL A   1      42.147 -19.000 -32.642  0.00  0.00    -0.052 C 
BRANCH   7   8
ATOM      8  C   UNL A   1      41.559 -20.409 -32.762  0.00  0.00    -0.053 C 
BRANCH   8   9
ATOM      9  C   UNL A   1      40.039 -20.356 -32.932  0.00  0.00    -0.053 C 
BRANCH   9  10
ATOM     10  C   UNL A   1      39.396 -19.145 -32.251  0.00  0.00    -0.052 C 
BRANCH  10  11
ATOM     11  C   UNL A   1      38.471 -18.345 -33.169  0.00  0.00    -0.037 C 
BRANCH  11  12
ATOM     12  C   UNL A   1      39.148 -18.057 -34.510  0.00  0.00    +0.009 C 
BRANCH  12  13
ATOM     13  N   UNL A   1      38.164 -18.229 -35.591  0.00  0.00    -0.343 N 
ATOM     14  H   UNL A   1      37.194 -18.314 -35.448  0.00  0.00    +0.000 HD
BRANCH  13  15
ATOM     15  C   UNL A   1      38.792 -18.258 -36.871  0.00  0.00    +0.041 A 
ATOM     16  C   UNL A   1      38.938 -17.046 -37.574  0.00  0.00    -0.005 A 
ATOM     17  C   UNL A   1      39.524 -17.096 -38.840  0.00  0.00    +0.047 A 
ATOM     18  N   UNL A   1      39.908 -18.252 -39.432  0.00  0.00    -0.251 NA
ATOM     19  C   UNL A   1      39.749 -19.406 -38.773  0.00  0.00    +0.074 A 
ATOM     20  C   UNL A   1      40.154 -20.568 -39.413  0.00  0.00    -0.017 A 
ATOM     21  C   UNL A   1      40.024 -21.813 -38.804  0.00  0.00    +0.043 A 
ATOM     22 CL   UNL A   1      40.537 -23.231 -39.632  0.00  0.00    -0.083 Cl
ATOM     23  C   UNL A   1      39.480 -21.916 -37.533  0.00  0.00    -0.043 A 
ATOM     24  C   UNL A   1      39.068 -20.759 -36.874  0.00  0.00    -0.049 A 
ATOM     25  C   UNL A   1      39.191 -19.482 -37.479  0.00  0.00    +0.022 A 
ATOM     26  C   UNL A   1      39.722 -15.855 -39.670  0.00  0.00    -0.010 C 
ATOM     27  C   UNL A   1      39.727 -14.573 -38.845  0.00  0.00    -0.047 C 
ATOM     28  C   UNL A   1      38.522 -14.554 -37.916  0.00  0.00    -0.049 C 
ATOM     29  C   UNL A   1      38.583 -15.724 -36.934  0.00  0.00    -0.024 C 
ENDBRANCH  13  15
ENDBRANCH  12  13
ENDBRANCH  11  12
ENDBRANCH  10  11
ENDBRANCH   9  10
ENDBRANCH   8   9
ENDBRANCH   7   8
ENDBRANCH   6   7
ENDBRANCH   5   6
ENDBRANCH   3   5
BRANCH   1  30
ATOM     30  C   UNL A   1      44.628 -15.477 -35.799  0.00  0.00    +0.039 C 
BRANCH  30  31
ATOM     31  C   UNL A   1      45.217 -15.866 -37.145  0.00  0.00    +0.020 C 
BRANCH  31  34
ATOM     32  C   UNL A   1      43.596 -16.922 -38.779  0.00  0.00    +0.246 C 
ATOM     33  O   UNL A   1      43.198 -16.857 -39.939  0.00  0.00    -0.270 OA
ATOM     34  N   UNL A   1      44.214 -15.837 -38.202  0.00  0.00    -0.311 N 
ATOM     35  H   UNL A   1      43.952 -14.950 -38.537  0.00  0.00    +0.000 HD
BRANCH  32  41
ATOM     36  C   UNL A   1      44.052 -19.360 -38.431  0.00  0.00    +0.044 A 
ATOM     37  C   UNL A   1      43.893 -20.505 -37.633  0.00  0.00    -0.040 A 
ATOM     38  C   UNL A   1      43.047 -20.501 -36.520  0.00  0.00    -0.060 A 
ATOM     39  C   UNL A   1      42.355 -19.345 -36.170  0.00  0.00    -0.061 A 
ATOM     40  C   UNL A   1      42.537 -18.181 -36.915  0.00  0.00    -0.048 A 
ATOM     41  C   UNL A   1      43.415 -18.175 -38.011  0.00  0.00    +0.058 A 
BRANCH  36  42
ATOM     42  N   UNL A   1      44.950 -19.366 -39.537  0.00  0.00    -0.314 N 
ATOM     43  H   UNL A   1      45.578 -18.611 -39.607  0.00  0.00    +0.000 HD
BRANCH  42  49
ATOM     44  C   UNL A   1      47.267 -23.287 -41.624  0.00  0.00    -0.039 C 
ATOM     45  C   UNL A   1      46.186 -22.240 -41.598  0.00  0.00    -0.046 A 
ATOM     46  C   UNL A   1      45.266 -22.198 -42.656  0.00  0.00    -0.058 A 
ATOM     47  C   UNL A   1      44.255 -21.243 -42.683  0.00  0.00    -0.060 A 
ATOM     48  C   UNL A   1      44.141 -20.327 -41.641  0.00  0.00    -0.040 A 
ATOM     49  C   UNL A   1      45.025 -20.362 -40.551  0.00  0.00    +0.035 A 
ATOM     50  C   UNL A   1      46.095 -21.286 -40.555  0.00  0.00    -0.026 A 
ATOM     51  C   UNL A   1      47.073 -21.312 -39.406  0.00  0.00    -0.038 C 
ENDBRANCH  42  49
ENDBRANCH  36  42
ENDBRANCH  32  41
ENDBRANCH  31  34
ENDBRANCH  30  31
ENDBRANCH   1  30
TORSDOF 16
ENDMDL
MODEL 10
REMARK VINA RESULT:    -5.632      2.897      8.224
REMARK INTER + INTRA:         -17.786
REMARK INTER:                 -12.336
REMARK INTRA:                  -5.450
REMARK UNBOUND:                -6.886
REMARK  Name = cpd52.pdb
REMARK  18 active torsions:
REMARK  status: ('A' for Active; 'I' for Inactive)
REMARK    1  A    between atoms: C_1  and  C_2
REMARK    2  A    between atoms: C_6  and  N_7
REMARK    3  A    between atoms: N_7  and  C_8
REMARK    4  A    between atoms: C_13  and  C_14
REMARK    5  A    between atoms: N_16  and  C_17
REMARK    6  A    between atoms: C_17  and  C_18
REMARK    7  A    between atoms: C_18  and  C_19
REMARK    8  A    between atoms: N_21  and  C_22
REMARK    9  A    between atoms: C_22  and  C_23
REMARK   10  A    between atoms: C_23  and  C_24
REMARK   11  A    between atoms: C_24  and  C_25
REMARK   12  A    between atoms: C_25  and  C_26
REMARK   13  A    between atoms: C_26  and  C_27
REMARK   14  A    between atoms: C_27  and  C_28
REMARK   15  A    between atoms: C_28  and  C_29
REMARK   16  A    between atoms: C_29  and  N_30
REMARK   17  A    between atoms: N_30  and  C_31
REMARK   18  A    between atoms: C_46  and  C_47
REMARK                            x       y       z     vdW  Elec       q    Type
REMARK                         _______ _______ _______ _____ _____    ______ ____
ROOT
ATOM      1  C   UNL A   1      40.900 -21.860 -38.224  0.00  0.00    +0.215 C 
ATOM      2  O   UNL A   1      41.401 -22.956 -38.447  0.00  0.00    -0.276 OA
ATOM      3  N   UNL A   1      41.566 -20.665 -38.378  0.00  0.00    -0.315 N 
ATOM      4  H   UNL A   1      41.089 -19.826 -38.184  0.00  0.00    +0.000 HD
ENDROOT
BRANCH   3   5
ATOM      5  C   UNL A   1      42.949 -20.599 -38.817  0.00  0.00    +0.012 C 
BRANCH   5   6
ATOM      6  C   UNL A   1      43.769 -19.591 -38.010  0.00  0.00    -0.037 C 
BRANCH   6   7
ATOM      7  C   UNL A   1      43.062 -18.267 -37.705  0.00  0.00    -0.052 C 
BRANCH   7   8
ATOM      8  C   UNL A   1      43.938 -17.268 -36.942  0.00  0.00    -0.053 C 
BRANCH   8   9
ATOM      9  C   UNL A   1      45.032 -17.991 -36.152  0.00  0.00    -0.053 C 
BRANCH   9  10
ATOM     10  C   UNL A   1      46.204 -17.083 -35.773  0.00  0.00    -0.052 C 
BRANCH  10  11
ATOM     11  C   UNL A   1      46.785 -16.306 -36.955  0.00  0.00    -0.037 C 
BRANCH  11  12
ATOM     12  C   UNL A   1      47.210 -17.256 -38.077  0.00  0.00    +0.009 C 
BRANCH  12  13
ATOM     13  N   UNL A   1      47.199 -16.525 -39.354  0.00  0.00    -0.343 N 
ATOM     14  H   UNL A   1      47.902 -15.899 -39.640  0.00  0.00    +0.000 HD
BRANCH  13  15
ATOM     15  C   UNL A   1      46.041 -16.838 -40.126  0.00  0.00    +0.041 A 
ATOM     16  C   UNL A   1      44.988 -15.903 -40.166  0.00  0.00    -0.005 A 
ATOM     17  C   UNL A   1      43.849 -16.239 -40.898  0.00  0.00    +0.047 A 
ATOM     18  N   UNL A   1      43.696 -17.430 -41.523  0.00  0.00    -0.251 NA
ATOM     19  C   UNL A   1      44.687 -18.327 -41.468  0.00  0.00    +0.074 A 
ATOM     20  C   UNL A   1      44.493 -19.536 -42.121  0.00  0.00    -0.017 A 
ATOM     21  C   UNL A   1      45.469 -20.529 -42.113  0.00  0.00    +0.043 A 
ATOM     22 CL   UNL A   1      45.188 -22.014 -42.934  0.00  0.00    -0.083 Cl
ATOM     23  C   UNL A   1      46.667 -20.326 -41.446  0.00  0.00    -0.043 A 
ATOM     24  C   UNL A   1      46.881 -19.118 -40.784  0.00  0.00    -0.049 A 
ATOM     25  C   UNL A   1      45.897 -18.096 -40.779  0.00  0.00    +0.022 A 
ATOM     26  C   UNL A   1      42.669 -15.307 -40.999  0.00  0.00    -0.010 C 
ATOM     27  C   UNL A   1      43.024 -13.854 -40.708  0.00  0.00    -0.047 C 
ATOM     28  C   UNL A   1      43.819 -13.767 -39.413  0.00  0.00    -0.049 C 
ATOM     29  C   UNL A   1      45.134 -14.536 -39.537  0.00  0.00    -0.024 C 
ENDBRANCH  13  15
ENDBRANCH  12  13
ENDBRANCH  11  12
ENDBRANCH  10  11
ENDBRANCH   9  10
ENDBRANCH   8   9
ENDBRANCH   7   8
ENDBRANCH   6   7
ENDBRANCH   5   6
ENDBRANCH   3   5
BRANCH   1  30
ATOM     30  C   UNL A   1      39.480 -21.724 -37.729  0.00  0.00    +0.039 C 
BRANCH  30  31
ATOM     31  C   UNL A   1      39.221 -22.689 -36.584  0.00  0.00    +0.020 C 
BRANCH  31  34
ATOM     32  C   UNL A   1      40.723 -21.895 -34.705  0.00  0.00    +0.246 C 
ATOM     33  O   UNL A   1      41.902 -21.770 -34.384  0.00  0.00    -0.270 OA
ATOM     34  N   UNL A   1      40.369 -22.787 -35.691  0.00  0.00    -0.311 N 
ATOM     35  H   UNL A   1      40.950 -23.573 -35.804  0.00  0.00    +0.000 HD
BRANCH  32  41
ATOM     36  C   UNL A   1      39.860 -19.680 -33.916  0.00  0.00    +0.044 A 
ATOM     37  C   UNL A   1      38.822 -18.944 -33.322  0.00  0.00    -0.040 A 
ATOM     38  C   UNL A   1      37.705 -19.579 -32.770  0.00  0.00    -0.060 A 
ATOM     39  C   UNL A   1      37.595 -20.966 -32.816  0.00  0.00    -0.061 A 
ATOM     40  C   UNL A   1      38.586 -21.715 -33.447  0.00  0.00    -0.048 A 
ATOM     41  C   UNL A   1      39.689 -21.075 -34.034  0.00  0.00    +0.058 A 
BRANCH  36  42
ATOM     42  N   UNL A   1      40.970 -19.016 -34.513  0.00  0.00    -0.314 N 
ATOM     43  H   UNL A   1      41.048 -19.069 -35.493  0.00  0.00    +0.000 HD
BRANCH  42  49
ATOM     44  C   UNL A   1      43.209 -14.672 -33.412  0.00  0.00    -0.039 C 
ATOM     45  C   UNL A   1      43.102 -16.172 -33.332  0.00  0.00    -0.046 A 
ATOM     46  C   UNL A   1      44.081 -16.878 -32.616  0.00  0.00    -0.058 A 
ATOM     47  C   UNL A   1      44.031 -18.265 -32.521  0.00  0.00    -0.060 A 
ATOM     48  C   UNL A   1      42.991 -18.963 -33.128  0.00  0.00    -0.040 A 
ATOM     49  C   UNL A   1      41.978 -18.285 -33.824  0.00  0.00    +0.035 A 
ATOM     50  C   UNL A   1      42.063 -16.882 -33.981  0.00  0.00    -0.026 A 
ATOM     51  C   UNL A   1      40.999 -16.144 -34.757  0.00  0.00    -0.038 C 
ENDBRANCH  42  49
ENDBRANCH  36  42
ENDBRANCH  32  41
ENDBRANCH  31  34
ENDBRANCH  30  31
ENDBRANCH   1  30
TORSDOF 16
ENDMDL
MODEL 11
REMARK VINA RESULT:    -5.597      2.649      5.441
REMARK INTER + INTRA:         -17.718
REMARK INTER:                 -12.381
REMARK INTRA:                  -5.337
REMARK UNBOUND:                -6.886
REMARK  Name = cpd52.pdb
REMARK  18 active torsions:
REMARK  status: ('A' for Active; 'I' for Inactive)
REMARK    1  A    between atoms: C_1  and  C_2
REMARK    2  A    between atoms: C_6  and  N_7
REMARK    3  A    between atoms: N_7  and  C_8
REMARK    4  A    between atoms: C_13  and  C_14
REMARK    5  A    between atoms: N_16  and  C_17
REMARK    6  A    between atoms: C_17  and  C_18
REMARK    7  A    between atoms: C_18  and  C_19
REMARK    8  A    between atoms: N_21  and  C_22
REMARK    9  A    between atoms: C_22  and  C_23
REMARK   10  A    between atoms: C_23  and  C_24
REMARK   11  A    between atoms: C_24  and  C_25
REMARK   12  A    between atoms: C_25  and  C_26
REMARK   13  A    between atoms: C_26  and  C_27
REMARK   14  A    between atoms: C_27  and  C_28
REMARK   15  A    between atoms: C_28  and  C_29
REMARK   16  A    between atoms: C_29  and  N_30
REMARK   17  A    between atoms: N_30  and  C_31
REMARK   18  A    between atoms: C_46  and  C_47
REMARK                            x       y       z     vdW  Elec       q    Type
REMARK                         _______ _______ _______ _____ _____    ______ ____
ROOT
ATOM      1  C   UNL A   1      41.440 -16.375 -38.154  0.00  0.00    +0.215 C 
ATOM      2  O   UNL A   1      40.571 -16.904 -38.839  0.00  0.00    -0.276 OA
ATOM      3  N   UNL A   1      41.257 -15.209 -37.446  0.00  0.00    -0.315 N 
ATOM      4  H   UNL A   1      42.006 -14.853 -36.914  0.00  0.00    +0.000 HD
ENDROOT
BRANCH   3   5
ATOM      5  C   UNL A   1      39.999 -14.485 -37.456  0.00  0.00    +0.012 C 
BRANCH   5   6
ATOM      6  C   UNL A   1      39.308 -14.498 -36.091  0.00  0.00    -0.037 C 
BRANCH   6   7
ATOM      7  C   UNL A   1      39.852 -15.525 -35.092  0.00  0.00    -0.052 C 
BRANCH   7   8
ATOM      8  C   UNL A   1      39.167 -16.892 -35.188  0.00  0.00    -0.053 C 
BRANCH   8   9
ATOM      9  C   UNL A   1      40.141 -18.019 -34.838  0.00  0.00    -0.053 C 
BRANCH   9  10
ATOM     10  C   UNL A   1      41.410 -17.526 -34.137  0.00  0.00    -0.052 C 
BRANCH  10  11
ATOM     11  C   UNL A   1      42.687 -18.205 -34.632  0.00  0.00    -0.037 C 
BRANCH  11  12
ATOM     12  C   UNL A   1      43.120 -19.320 -33.677  0.00  0.00    +0.009 C 
BRANCH  12  13
ATOM     13  N   UNL A   1      43.434 -20.526 -34.459  0.00  0.00    -0.343 N 
ATOM     14  H   UNL A   1      44.325 -20.943 -34.500  0.00  0.00    +0.000 HD
BRANCH  13  15
ATOM     15  C   UNL A   1      42.286 -21.016 -35.149  0.00  0.00    +0.041 A 
ATOM     16  C   UNL A   1      41.185 -21.458 -34.390  0.00  0.00    -0.005 A 
ATOM     17  C   UNL A   1      40.083 -21.965 -35.081  0.00  0.00    +0.047 A 
ATOM     18  N   UNL A   1      40.049 -22.094 -36.428  0.00  0.00    -0.251 NA
ATOM     19  C   UNL A   1      41.104 -21.695 -37.147  0.00  0.00    +0.074 A 
ATOM     20  C   UNL A   1      41.032 -21.844 -38.525  0.00  0.00    -0.017 A 
ATOM     21  C   UNL A   1      42.083 -21.459 -39.351  0.00  0.00    +0.043 A 
ATOM     22 CL   UNL A   1      41.954 -21.661 -41.054  0.00  0.00    -0.083 Cl
ATOM     23  C   UNL A   1      43.236 -20.913 -38.807  0.00  0.00    -0.043 A 
ATOM     24  C   UNL A   1      43.327 -20.755 -37.426  0.00  0.00    -0.049 A 
ATOM     25  C   UNL A   1      42.267 -21.144 -36.568  0.00  0.00    +0.022 A 
ATOM     26  C   UNL A   1      38.858 -22.464 -34.358  0.00  0.00    -0.010 C 
ATOM     27  C   UNL A   1      38.720 -21.902 -32.948  0.00  0.00    -0.047 C 
ATOM     28  C   UNL A   1      40.033 -22.064 -32.198  0.00  0.00    -0.049 C 
ATOM     29  C   UNL A   1      41.147 -21.279 -32.890  0.00  0.00    -0.024 C 
ENDBRANCH  13  15
ENDBRANCH  12  13
ENDBRANCH  11  12
ENDBRANCH  10  11
ENDBRANCH   9  10
ENDBRANCH   8   9
ENDBRANCH   7   8
ENDBRANCH   6   7
ENDBRANCH   5   6
ENDBRANCH   3   5
BRANCH   1  30
ATOM     30  C   UNL A   1      42.827 -16.962 -38.043  0.00  0.00    +0.039 C 
BRANCH  30  31
ATOM     31  C   UNL A   1      43.784 -15.954 -37.430  0.00  0.00    +0.020 C 
BRANCH  31  34
ATOM     32  C   UNL A   1      46.224 -16.239 -38.046  0.00  0.00    +0.246 C 
ATOM     33  O   UNL A   1      47.204 -15.627 -38.464  0.00  0.00    -0.270 OA
ATOM     34  N   UNL A   1      44.959 -15.747 -38.268  0.00  0.00    -0.311 N 
ATOM     35  H   UNL A   1      44.834 -15.198 -39.075  0.00  0.00    +0.000 HD
BRANCH  32  41
ATOM     36  C   UNL A   1      46.745 -18.688 -37.981  0.00  0.00    +0.044 A 
ATOM     37  C   UNL A   1      46.970 -19.843 -37.214  0.00  0.00    -0.040 A 
ATOM     38  C   UNL A   1      46.769 -19.846 -35.830  0.00  0.00    -0.060 A 
ATOM     39  C   UNL A   1      46.354 -18.686 -35.181  0.00  0.00    -0.061 A 
ATOM     40  C   UNL A   1      46.175 -17.514 -35.912  0.00  0.00    -0.048 A 
ATOM     41  C   UNL A   1      46.414 -17.501 -37.296  0.00  0.00    +0.058 A 
BRANCH  36  42
ATOM     42  N   UNL A   1      46.997 -18.689 -39.383  0.00  0.00    -0.314 N 
ATOM     43  H   UNL A   1      47.898 -18.423 -39.675  0.00  0.00    +0.000 HD
BRANCH  42  49
ATOM     44  C   UNL A   1      45.283 -21.944 -42.783  0.00  0.00    -0.039 C 
ATOM     45  C   UNL A   1      45.265 -20.605 -42.097  0.00  0.00    -0.046 A 
ATOM     46  C   UNL A   1      44.347 -19.638 -42.534  0.00  0.00    -0.058 A 
ATOM     47  C   UNL A   1      44.298 -18.382 -41.938  0.00  0.00    -0.060 A 
ATOM     48  C   UNL A   1      45.157 -18.082 -40.885  0.00  0.00    -0.040 A 
ATOM     49  C   UNL A   1      46.066 -19.038 -40.401  0.00  0.00    +0.035 A 
ATOM     50  C   UNL A   1      46.165 -20.290 -41.050  0.00  0.00    -0.026 A 
ATOM     51  C   UNL A   1      47.161 -21.314 -40.563  0.00  0.00    -0.038 C 
ENDBRANCH  42  49
ENDBRANCH  36  42
ENDBRANCH  32  41
ENDBRANCH  31  34
ENDBRANCH  30  31
ENDBRANCH   1  30
TORSDOF 16
ENDMDL
MODEL 12
REMARK VINA RESULT:    -5.590      2.590      5.196
REMARK INTER + INTRA:         -17.706
REMARK INTER:                 -11.637
REMARK INTRA:                  -6.069
REMARK UNBOUND:                -6.886
REMARK  Name = cpd52.pdb
REMARK  18 active torsions:
REMARK  status: ('A' for Active; 'I' for Inactive)
REMARK    1  A    between atoms: C_1  and  C_2
REMARK    2  A    between atoms: C_6  and  N_7
REMARK    3  A    between atoms: N_7  and  C_8
REMARK    4  A    between atoms: C_13  and  C_14
REMARK    5  A    between atoms: N_16  and  C_17
REMARK    6  A    between atoms: C_17  and  C_18
REMARK    7  A    between atoms: C_18  and  C_19
REMARK    8  A    between atoms: N_21  and  C_22
REMARK    9  A    between atoms: C_22  and  C_23
REMARK   10  A    between atoms: C_23  and  C_24
REMARK   11  A    between atoms: C_24  and  C_25
REMARK   12  A    between atoms: C_25  and  C_26
REMARK   13  A    between atoms: C_26  and  C_27
REMARK   14  A    between atoms: C_27  and  C_28
REMARK   15  A    between atoms: C_28  and  C_29
REMARK   16  A    between atoms: C_29  and  N_30
REMARK   17  A    between atoms: N_30  and  C_31
REMARK   18  A    between atoms: C_46  and  C_47
REMARK                            x       y       z     vdW  Elec       q    Type
REMARK                         _______ _______ _______ _____ _____    ______ ____
ROOT
ATOM      1  C   UNL A   1      42.438 -17.700 -33.314  0.00  0.00    +0.215 C 
ATOM      2  O   UNL A   1      41.878 -16.810 -32.684  0.00  0.00    -0.276 OA
ATOM      3  N   UNL A   1      41.920 -18.964 -33.484  0.00  0.00    -0.315 N 
ATOM      4  H   UNL A   1      42.431 -19.621 -34.010  0.00  0.00    +0.000 HD
ENDROOT
BRANCH   3   5
ATOM      5  C   UNL A   1      40.646 -19.364 -32.913  0.00  0.00    +0.012 C 
BRANCH   5   6
ATOM      6  C   UNL A   1      40.532 -20.880 -32.744  0.00  0.00    -0.037 C 
BRANCH   6   7
ATOM      7  C   UNL A   1      39.243 -21.504 -33.289  0.00  0.00    -0.052 C 
BRANCH   7   8
ATOM      8  C   UNL A   1      39.486 -22.699 -34.215  0.00  0.00    -0.053 C 
BRANCH   8   9
ATOM      9  C   UNL A   1      39.436 -22.274 -35.685  0.00  0.00    -0.053 C 
BRANCH   9  10
ATOM     10  C   UNL A   1      40.591 -22.836 -36.517  0.00  0.00    -0.052 C 
BRANCH  10  11
ATOM     11  C   UNL A   1      41.227 -21.809 -37.455  0.00  0.00    -0.037 C 
BRANCH  11  12
ATOM     12  C   UNL A   1      41.362 -20.449 -36.766  0.00  0.00    +0.009 C 
BRANCH  12  13
ATOM     13  N   UNL A   1      40.677 -19.430 -37.577  0.00  0.00    -0.343 N 
ATOM     14  H   UNL A   1      40.278 -19.602 -38.460  0.00  0.00    +0.000 HD
BRANCH  13  15
ATOM     15  C   UNL A   1      40.663 -18.163 -36.923  0.00  0.00    +0.041 A 
ATOM     16  C   UNL A   1      39.558 -17.838 -36.112  0.00  0.00    -0.005 A 
ATOM     17  C   UNL A   1      39.544 -16.581 -35.506  0.00  0.00    +0.047 A 
ATOM     18  N   UNL A   1      40.513 -15.655 -35.702  0.00  0.00    -0.251 NA
ATOM     19  C   UNL A   1      41.552 -15.955 -36.489  0.00  0.00    +0.074 A 
ATOM     20  C   UNL A   1      42.523 -14.980 -36.666  0.00  0.00    -0.017 A 
ATOM     21  C   UNL A   1      43.637 -15.204 -37.470  0.00  0.00    +0.043 A 
ATOM     22 CL   UNL A   1      44.818 -13.969 -37.664  0.00  0.00    -0.083 Cl
ATOM     23  C   UNL A   1      43.798 -16.419 -38.118  0.00  0.00    -0.043 A 
ATOM     24  C   UNL A   1      42.833 -17.411 -37.953  0.00  0.00    -0.049 A 
ATOM     25  C   UNL A   1      41.691 -17.200 -37.139  0.00  0.00    +0.022 A 
ATOM     26  C   UNL A   1      38.406 -16.140 -34.623  0.00  0.00    -0.010 C 
ATOM     27  C   UNL A   1      37.600 -17.303 -34.055  0.00  0.00    -0.047 C 
ATOM     28  C   UNL A   1      37.227 -18.266 -35.172  0.00  0.00    -0.049 C 
ATOM     29  C   UNL A   1      38.483 -18.857 -35.812  0.00  0.00    -0.024 C 
ENDBRANCH  13  15
ENDBRANCH  12  13
ENDBRANCH  11  12
ENDBRANCH  10  11
ENDBRANCH   9  10
ENDBRANCH   8   9
ENDBRANCH   7   8
ENDBRANCH   6   7
ENDBRANCH   5   6
ENDBRANCH   3   5
BRANCH   1  30
ATOM     30  C   UNL A   1      43.788 -17.487 -33.956  0.00  0.00    +0.039 C 
BRANCH  30  31
ATOM     31  C   UNL A   1      44.233 -18.742 -34.689  0.00  0.00    +0.020 C 
BRANCH  31  34
ATOM     32  C   UNL A   1      46.678 -19.351 -34.938  0.00  0.00    +0.246 C 
ATOM     33  O   UNL A   1      47.509 -20.202 -34.629  0.00  0.00    -0.270 OA
ATOM     34  N   UNL A   1      45.522 -19.221 -34.205  0.00  0.00    -0.311 N 
ATOM     35  H   UNL A   1      45.569 -19.478 -33.257  0.00  0.00    +0.000 HD
BRANCH  32  41
ATOM     36  C   UNL A   1      46.935 -19.020 -37.408  0.00  0.00    +0.044 A 
ATOM     37  C   UNL A   1      47.115 -18.135 -38.483  0.00  0.00    -0.040 A 
ATOM     38  C   UNL A   1      47.383 -16.779 -38.270  0.00  0.00    -0.060 A 
ATOM     39  C   UNL A   1      47.459 -16.275 -36.974  0.00  0.00    -0.061 A 
ATOM     40  C   UNL A   1      47.230 -17.123 -35.892  0.00  0.00    -0.048 A 
ATOM     41  C   UNL A   1      46.925 -18.476 -36.107  0.00  0.00    +0.058 A 
BRANCH  36  42
ATOM     42  N   UNL A   1      46.620 -20.389 -37.641  0.00  0.00    -0.314 N 
ATOM     43  H   UNL A   1      46.958 -21.043 -36.987  0.00  0.00    +0.000 HD
BRANCH  42  49
ATOM     44  C   UNL A   1      46.377 -22.862 -41.990  0.00  0.00    -0.039 C 
ATOM     45  C   UNL A   1      45.754 -22.060 -40.880  0.00  0.00    -0.046 A 
ATOM     46  C   UNL A   1      44.391 -21.739 -40.966  0.00  0.00    -0.058 A 
ATOM     47  C   UNL A   1      43.771 -20.991 -39.970  0.00  0.00    -0.060 A 
ATOM     48  C   UNL A   1      44.504 -20.569 -38.865  0.00  0.00    -0.040 A 
ATOM     49  C   UNL A   1      45.862 -20.901 -38.731  0.00  0.00    +0.035 A 
ATOM     50  C   UNL A   1      46.511 -21.600 -39.775  0.00  0.00    -0.026 A 
ATOM     51  C   UNL A   1      47.978 -21.934 -39.660  0.00  0.00    -0.038 C 
ENDBRANCH  42  49
ENDBRANCH  36  42
ENDBRANCH  32  41
ENDBRANCH  31  34
ENDBRANCH  30  31
ENDBRANCH   1  30
TORSDOF 16
ENDMDL
MODEL 13
REMARK VINA RESULT:    -5.562      2.417      4.870
REMARK INTER + INTRA:         -17.651
REMARK INTER:                 -13.071
REMARK INTRA:                  -4.580
REMARK UNBOUND:                -6.886
REMARK  Name = cpd52.pdb
REMARK  18 active torsions:
REMARK  status: ('A' for Active; 'I' for Inactive)
REMARK    1  A    between atoms: C_1  and  C_2
REMARK    2  A    between atoms: C_6  and  N_7
REMARK    3  A    between atoms: N_7  and  C_8
REMARK    4  A    between atoms: C_13  and  C_14
REMARK    5  A    between atoms: N_16  and  C_17
REMARK    6  A    between atoms: C_17  and  C_18
REMARK    7  A    between atoms: C_18  and  C_19
REMARK    8  A    between atoms: N_21  and  C_22
REMARK    9  A    between atoms: C_22  and  C_23
REMARK   10  A    between atoms: C_23  and  C_24
REMARK   11  A    between atoms: C_24  and  C_25
REMARK   12  A    between atoms: C_25  and  C_26
REMARK   13  A    between atoms: C_26  and  C_27
REMARK   14  A    between atoms: C_27  and  C_28
REMARK   15  A    between atoms: C_28  and  C_29
REMARK   16  A    between atoms: C_29  and  N_30
REMARK   17  A    between atoms: N_30  and  C_31
REMARK   18  A    between atoms: C_46  and  C_47
REMARK                            x       y       z     vdW  Elec       q    Type
REMARK                         _______ _______ _______ _____ _____    ______ ____
ROOT
ATOM      1  C   UNL A   1      43.934 -19.063 -33.941  0.00  0.00    +0.215 C 
ATOM      2  O   UNL A   1      44.709 -19.978 -33.685  0.00  0.00    -0.276 OA
ATOM      3  N   UNL A   1      42.610 -19.050 -33.563  0.00  0.00    -0.315 N 
ATOM      4  H   UNL A   1      42.055 -18.272 -33.803  0.00  0.00    +0.000 HD
ENDROOT
BRANCH   3   5
ATOM      5  C   UNL A   1      42.003 -20.142 -32.824  0.00  0.00    +0.012 C 
BRANCH   5   6
ATOM      6  C   UNL A   1      41.406 -21.209 -33.744  0.00  0.00    -0.037 C 
BRANCH   6   7
ATOM      7  C   UNL A   1      40.485 -22.223 -33.059  0.00  0.00    -0.052 C 
BRANCH   7   8
ATOM      8  C   UNL A   1      39.596 -22.998 -34.035  0.00  0.00    -0.053 C 
BRANCH   8   9
ATOM      9  C   UNL A   1      38.114 -22.759 -33.735  0.00  0.00    -0.053 C 
BRANCH   9  10
ATOM     10  C   UNL A   1      37.877 -21.676 -32.680  0.00  0.00    -0.052 C 
BRANCH  10  11
ATOM     11  C   UNL A   1      36.581 -20.891 -32.886  0.00  0.00    -0.037 C 
BRANCH  11  12
ATOM     12  C   UNL A   1      36.819 -19.389 -32.716  0.00  0.00    +0.009 C 
BRANCH  12  13
ATOM     13  N   UNL A   1      36.769 -18.743 -34.037  0.00  0.00    -0.343 N 
ATOM     14  H   UNL A   1      35.950 -18.640 -34.573  0.00  0.00    +0.000 HD
BRANCH  13  15
ATOM     15  C   UNL A   1      38.057 -18.284 -34.443  0.00  0.00    +0.041 A 
ATOM     16  C   UNL A   1      38.728 -18.985 -35.464  0.00  0.00    -0.005 A 
ATOM     17  C   UNL A   1      40.001 -18.543 -35.827  0.00  0.00    +0.047 A 
ATOM     18  N   UNL A   1      40.629 -17.513 -35.213  0.00  0.00    -0.251 NA
ATOM     19  C   UNL A   1      40.001 -16.860 -34.228  0.00  0.00    +0.074 A 
ATOM     20  C   UNL A   1      40.677 -15.810 -33.624  0.00  0.00    -0.017 A 
ATOM     21  C   UNL A   1      40.102 -15.078 -32.589  0.00  0.00    +0.043 A 
ATOM     22 CL   UNL A   1      40.974 -13.785 -31.865  0.00  0.00    -0.083 Cl
ATOM     23  C   UNL A   1      38.828 -15.387 -32.139  0.00  0.00    -0.043 A 
ATOM     24  C   UNL A   1      38.132 -16.438 -32.734  0.00  0.00    -0.049 A 
ATOM     25  C   UNL A   1      38.703 -17.197 -33.788  0.00  0.00    +0.022 A 
ATOM     26  C   UNL A   1      40.799 -19.229 -36.906  0.00  0.00    -0.010 C 
ATOM     27  C   UNL A   1      39.939 -20.042 -37.866  0.00  0.00    -0.047 C 
ATOM     28  C   UNL A   1      38.996 -20.940 -37.079  0.00  0.00    -0.049 C 
ATOM     29  C   UNL A   1      38.047 -20.101 -36.222  0.00  0.00    -0.024 C 
ENDBRANCH  13  15
ENDBRANCH  12  13
ENDBRANCH  11  12
ENDBRANCH  10  11
ENDBRANCH   9  10
ENDBRANCH   8   9
ENDBRANCH   7   8
ENDBRANCH   6   7
ENDBRANCH   5   6
ENDBRANCH   3   5
BRANCH   1  30
ATOM     30  C   UNL A   1      44.371 -17.852 -34.729  0.00  0.00    +0.039 C 
BRANCH  30  31
ATOM     31  C   UNL A   1      45.560 -17.182 -34.061  0.00  0.00    +0.020 C 
BRANCH  31  34
ATOM     32  C   UNL A   1      47.388 -18.478 -35.241  0.00  0.00    +0.246 C 
ATOM     33  O   UNL A   1      48.010 -19.537 -35.211  0.00  0.00    -0.270 OA
ATOM     34  N   UNL A   1      46.751 -18.021 -34.111  0.00  0.00    -0.311 N 
ATOM     35  H   UNL A   1      47.139 -18.289 -33.247  0.00  0.00    +0.000 HD
BRANCH  32  41
ATOM     36  C   UNL A   1      46.885 -18.324 -37.690  0.00  0.00    +0.044 A 
ATOM     37  C   UNL A   1      46.784 -17.527 -38.843  0.00  0.00    -0.040 A 
ATOM     38  C   UNL A   1      47.202 -16.193 -38.841  0.00  0.00    -0.060 A 
ATOM     39  C   UNL A   1      47.715 -15.621 -37.680  0.00  0.00    -0.061 A 
ATOM     40  C   UNL A   1      47.775 -16.375 -36.509  0.00  0.00    -0.048 A 
ATOM     41  C   UNL A   1      47.320 -17.703 -36.501  0.00  0.00    +0.058 A 
BRANCH  36  42
ATOM     42  N   UNL A   1      46.414 -19.668 -37.695  0.00  0.00    -0.314 N 
ATOM     43  H   UNL A   1      46.192 -20.067 -36.822  0.00  0.00    +0.000 HD
BRANCH  42  49
ATOM     44  C   UNL A   1      43.480 -21.519 -41.309  0.00  0.00    -0.039 C 
ATOM     45  C   UNL A   1      44.790 -21.434 -40.572  0.00  0.00    -0.046 A 
ATOM     46  C   UNL A   1      45.849 -22.256 -40.986  0.00  0.00    -0.058 A 
ATOM     47  C   UNL A   1      47.075 -22.220 -40.331  0.00  0.00    -0.060 A 
ATOM     48  C   UNL A   1      47.264 -21.350 -39.262  0.00  0.00    -0.040 A 
ATOM     49  C   UNL A   1      46.236 -20.490 -38.843  0.00  0.00    +0.035 A 
ATOM     50  C   UNL A   1      44.967 -20.573 -39.461  0.00  0.00    -0.026 A 
ATOM     51  C   UNL A   1      43.843 -19.679 -38.997  0.00  0.00    -0.038 C 
ENDBRANCH  42  49
ENDBRANCH  36  42
ENDBRANCH  32  41
ENDBRANCH  31  34
ENDBRANCH  30  31
ENDBRANCH   1  30
TORSDOF 16
ENDMDL
MODEL 14
REMARK VINA RESULT:    -5.486      2.624      7.209
REMARK INTER + INTRA:         -17.503
REMARK INTER:                 -10.383
REMARK INTRA:                  -7.120
REMARK UNBOUND:                -6.886
REMARK  Name = cpd52.pdb
REMARK  18 active torsions:
REMARK  status: ('A' for Active; 'I' for Inactive)
REMARK    1  A    between atoms: C_1  and  C_2
REMARK    2  A    between atoms: C_6  and  N_7
REMARK    3  A    between atoms: N_7  and  C_8
REMARK    4  A    between atoms: C_13  and  C_14
REMARK    5  A    between atoms: N_16  and  C_17
REMARK    6  A    between atoms: C_17  and  C_18
REMARK    7  A    between atoms: C_18  and  C_19
REMARK    8  A    between atoms: N_21  and  C_22
REMARK    9  A    between atoms: C_22  and  C_23
REMARK   10  A    between atoms: C_23  and  C_24
REMARK   11  A    between atoms: C_24  and  C_25
REMARK   12  A    between atoms: C_25  and  C_26
REMARK   13  A    between atoms: C_26  and  C_27
REMARK   14  A    between atoms: C_27  and  C_28
REMARK   15  A    between atoms: C_28  and  C_29
REMARK   16  A    between atoms: C_29  and  N_30
REMARK   17  A    between atoms: N_30  and  C_31
REMARK   18  A    between atoms: C_46  and  C_47
REMARK                            x       y       z     vdW  Elec       q    Type
REMARK                         _______ _______ _______ _____ _____    ______ ____
ROOT
ATOM      1  C   UNL A   1      38.030 -18.409 -35.192  0.00  0.00    +0.215 C 
ATOM      2  O   UNL A   1      39.236 -18.322 -35.396  0.00  0.00    -0.276 OA
ATOM      3  N   UNL A   1      37.469 -19.247 -34.254  0.00  0.00    -0.315 N 
ATOM      4  H   UNL A   1      36.490 -19.252 -34.147  0.00  0.00    +0.000 HD
ENDROOT
BRANCH   3   5
ATOM      5  C   UNL A   1      38.269 -20.123 -33.418  0.00  0.00    +0.012 C 
BRANCH   5   6
ATOM      6  C   UNL A   1      37.545 -21.427 -33.078  0.00  0.00    -0.037 C 
BRANCH   6   7
ATOM      7  C   UNL A   1      38.129 -22.687 -33.726  0.00  0.00    -0.052 C 
BRANCH   7   8
ATOM      8  C   UNL A   1      39.555 -22.500 -34.250  0.00  0.00    -0.053 C 
BRANCH   8   9
ATOM      9  C   UNL A   1      39.662 -22.929 -35.716  0.00  0.00    -0.053 C 
BRANCH   9  10
ATOM     10  C   UNL A   1      39.240 -21.834 -36.699  0.00  0.00    -0.052 C 
BRANCH  10  11
ATOM     11  C   UNL A   1      39.449 -22.214 -38.166  0.00  0.00    -0.037 C 
BRANCH  11  12
ATOM     12  C   UNL A   1      40.939 -22.273 -38.509  0.00  0.00    +0.009 C 
BRANCH  12  13
ATOM     13  N   UNL A   1      41.387 -20.936 -38.930  0.00  0.00    -0.343 N 
ATOM     14  H   UNL A   1      40.824 -20.290 -39.414  0.00  0.00    +0.000 HD
BRANCH  13  15
ATOM     15  C   UNL A   1      42.741 -20.694 -38.550  0.00  0.00    +0.041 A 
ATOM     16  C   UNL A   1      43.756 -20.928 -39.499  0.00  0.00    -0.005 A 
ATOM     17  C   UNL A   1      45.077 -20.718 -39.100  0.00  0.00    +0.047 A 
ATOM     18  N   UNL A   1      45.421 -20.353 -37.843  0.00  0.00    -0.251 NA
ATOM     19  C   UNL A   1      44.458 -20.152 -36.936  0.00  0.00    +0.074 A 
ATOM     20  C   UNL A   1      44.851 -19.779 -35.658  0.00  0.00    -0.017 A 
ATOM     21  C   UNL A   1      43.918 -19.553 -34.651  0.00  0.00    +0.043 A 
ATOM     22 CL   UNL A   1      44.447 -19.093 -33.080  0.00  0.00    -0.083 Cl
ATOM     23  C   UNL A   1      42.564 -19.698 -34.907  0.00  0.00    -0.043 A 
ATOM     24  C   UNL A   1      42.150 -20.072 -36.184  0.00  0.00    -0.049 A 
ATOM     25  C   UNL A   1      43.086 -20.309 -37.223  0.00  0.00    +0.022 A 
ATOM     26  C   UNL A   1      46.232 -20.942 -40.042  0.00  0.00    -0.010 C 
ATOM     27  C   UNL A   1      45.830 -20.892 -41.511  0.00  0.00    -0.047 C 
ATOM     28  C   UNL A   1      44.615 -21.778 -41.743  0.00  0.00    -0.049 C 
ATOM     29  C   UNL A   1      43.421 -21.276 -40.931  0.00  0.00    -0.024 C 
ENDBRANCH  13  15
ENDBRANCH  12  13
ENDBRANCH  11  12
ENDBRANCH  10  11
ENDBRANCH   9  10
ENDBRANCH   8   9
ENDBRANCH   7   8
ENDBRANCH   6   7
ENDBRANCH   5   6
ENDBRANCH   3   5
BRANCH   1  30
ATOM     30  C   UNL A   1      37.032 -17.600 -35.984  0.00  0.00    +0.039 C 
BRANCH  30  31
ATOM     31  C   UNL A   1      36.629 -18.342 -37.248  0.00  0.00    +0.020 C 
BRANCH  31  34
ATOM     32  C   UNL A   1      38.474 -18.402 -38.982  0.00  0.00    +0.246 C 
ATOM     33  O   UNL A   1      39.043 -19.146 -39.777  0.00  0.00    -0.270 OA
ATOM     34  N   UNL A   1      37.781 -18.931 -37.918  0.00  0.00    -0.311 N 
ATOM     35  H   UNL A   1      38.095 -19.798 -37.575  0.00  0.00    +0.000 HD
BRANCH  32  41
ATOM     36  C   UNL A   1      39.579 -16.184 -38.615  0.00  0.00    +0.044 A 
ATOM     37  C   UNL A   1      39.614 -14.806 -38.885  0.00  0.00    -0.040 A 
ATOM     38  C   UNL A   1      38.588 -14.180 -39.599  0.00  0.00    -0.060 A 
ATOM     39  C   UNL A   1      37.511 -14.924 -40.075  0.00  0.00    -0.061 A 
ATOM     40  C   UNL A   1      37.480 -16.302 -39.866  0.00  0.00    -0.048 A 
ATOM     41  C   UNL A   1      38.529 -16.936 -39.181  0.00  0.00    +0.058 A 
BRANCH  36  42
ATOM     42  N   UNL A   1      40.653 -16.815 -37.924  0.00  0.00    -0.314 N 
ATOM     43  H   UNL A   1      40.462 -17.160 -37.022  0.00  0.00    +0.000 HD
BRANCH  42  49
ATOM     44  C   UNL A   1      45.612 -16.547 -37.267  0.00  0.00    -0.039 C 
ATOM     45  C   UNL A   1      44.394 -16.809 -38.112  0.00  0.00    -0.046 A 
ATOM     46  C   UNL A   1      44.574 -17.165 -39.457  0.00  0.00    -0.058 A 
ATOM     47  C   UNL A   1      43.480 -17.409 -40.281  0.00  0.00    -0.060 A 
ATOM     48  C   UNL A   1      42.191 -17.315 -39.765  0.00  0.00    -0.040 A 
ATOM     49  C   UNL A   1      41.977 -16.993 -38.415  0.00  0.00    +0.035 A 
ATOM     50  C   UNL A   1      43.083 -16.677 -37.594  0.00  0.00    -0.026 A 
ATOM     51  C   UNL A   1      42.865 -16.296 -36.150  0.00  0.00    -0.038 C 
ENDBRANCH  42  49
ENDBRANCH  36  42
ENDBRANCH  32  41
ENDBRANCH  31  34
ENDBRANCH  30  31
ENDBRANCH   1  30
TORSDOF 16
ENDMDL
MODEL 15
REMARK VINA RESULT:    -5.478      2.660      7.366
REMARK INTER + INTRA:         -17.487
REMARK INTER:                 -10.695
REMARK INTRA:                  -6.792
REMARK UNBOUND:                -6.886
REMARK  Name = cpd52.pdb
REMARK  18 active torsions:
REMARK  status: ('A' for Active; 'I' for Inactive)
REMARK    1  A    between atoms: C_1  and  C_2
REMARK    2  A    between atoms: C_6  and  N_7
REMARK    3  A    between atoms: N_7  and  C_8
REMARK    4  A    between atoms: C_13  and  C_14
REMARK    5  A    between atoms: N_16  and  C_17
REMARK    6  A    between atoms: C_17  and  C_18
REMARK    7  A    between atoms: C_18  and  C_19
REMARK    8  A    between atoms: N_21  and  C_22
REMARK    9  A    between atoms: C_22  and  C_23
REMARK   10  A    between atoms: C_23  and  C_24
REMARK   11  A    between atoms: C_24  and  C_25
REMARK   12  A    between atoms: C_25  and  C_26
REMARK   13  A    between atoms: C_26  and  C_27
REMARK   14  A    between atoms: C_27  and  C_28
REMARK   15  A    between atoms: C_28  and  C_29
REMARK   16  A    between atoms: C_29  and  N_30
REMARK   17  A    between atoms: N_30  and  C_31
REMARK   18  A    between atoms: C_46  and  C_47
REMARK                            x       y       z     vdW  Elec       q    Type
REMARK                         _______ _______ _______ _____ _____    ______ ____
ROOT
ATOM      1  C   UNL A   1      40.295 -16.917 -32.801  0.00  0.00    +0.215 C 
ATOM      2  O   UNL A   1      41.312 -17.598 -32.726  0.00  0.00    -0.276 OA
ATOM      3  N   UNL A   1      39.020 -17.437 -32.785  0.00  0.00    -0.315 N 
ATOM      4  H   UNL A   1      38.255 -16.819 -32.843  0.00  0.00    +0.000 HD
ENDROOT
BRANCH   3   5
ATOM      5  C   UNL A   1      38.764 -18.862 -32.684  0.00  0.00    +0.012 C 
BRANCH   5   6
ATOM      6  C   UNL A   1      37.325 -19.224 -33.057  0.00  0.00    -0.037 C 
BRANCH   6   7
ATOM      7  C   UNL A   1      36.906 -20.661 -32.729  0.00  0.00    -0.052 C 
BRANCH   7   8
ATOM      8  C   UNL A   1      38.021 -21.687 -32.949  0.00  0.00    -0.053 C 
BRANCH   8   9
ATOM      9  C   UNL A   1      38.141 -22.058 -34.430  0.00  0.00    -0.053 C 
BRANCH   9  10
ATOM     10  C   UNL A   1      39.585 -22.055 -34.938  0.00  0.00    -0.052 C 
BRANCH  10  11
ATOM     11  C   UNL A   1      39.779 -22.841 -36.235  0.00  0.00    -0.037 C 
BRANCH  11  12
ATOM     12  C   UNL A   1      41.199 -22.660 -36.777  0.00  0.00    +0.009 C 
BRANCH  12  13
ATOM     13  N   UNL A   1      41.427 -21.234 -37.057  0.00  0.00    -0.343 N 
ATOM     14  H   UNL A   1      40.799 -20.515 -36.817  0.00  0.00    +0.000 HD
BRANCH  13  15
ATOM     15  C   UNL A   1      42.673 -21.023 -37.720  0.00  0.00    +0.041 A 
ATOM     16  C   UNL A   1      42.743 -21.263 -39.106  0.00  0.00    -0.005 A 
ATOM     17  C   UNL A   1      43.977 -21.085 -39.734  0.00  0.00    +0.047 A 
ATOM     18  N   UNL A   1      45.104 -20.743 -39.065  0.00  0.00    -0.251 NA
ATOM     19  C   UNL A   1      45.042 -20.537 -37.745  0.00  0.00    +0.074 A 
ATOM     20  C   UNL A   1      46.218 -20.189 -37.096  0.00  0.00    -0.017 A 
ATOM     21  C   UNL A   1      46.247 -19.958 -35.724  0.00  0.00    +0.043 A 
ATOM     22 CL   UNL A   1      47.725 -19.530 -34.957  0.00  0.00    -0.083 Cl
ATOM     23  C   UNL A   1      45.088 -20.074 -34.971  0.00  0.00    -0.043 A 
ATOM     24  C   UNL A   1      43.897 -20.422 -35.605  0.00  0.00    -0.049 A 
ATOM     25  C   UNL A   1      43.849 -20.663 -37.002  0.00  0.00    +0.022 A 
ATOM     26  C   UNL A   1      44.155 -21.318 -41.212  0.00  0.00    -0.010 C 
ATOM     27  C   UNL A   1      42.849 -21.240 -41.994  0.00  0.00    -0.047 C 
ATOM     28  C   UNL A   1      41.791 -22.099 -41.318  0.00  0.00    -0.049 C 
ATOM     29  C   UNL A   1      41.503 -21.585 -39.908  0.00  0.00    -0.024 C 
ENDBRANCH  13  15
ENDBRANCH  12  13
ENDBRANCH  11  12
ENDBRANCH  10  11
ENDBRANCH   9  10
ENDBRANCH   8   9
ENDBRANCH   7   8
ENDBRANCH   6   7
ENDBRANCH   5   6
ENDBRANCH   3   5
BRANCH   1  30
ATOM     30  C   UNL A   1      40.356 -15.416 -32.943  0.00  0.00    +0.039 C 
BRANCH  30  31
ATOM     31  C   UNL A   1      39.096 -14.892 -33.612  0.00  0.00    +0.020 C 
BRANCH  31  34
ATOM     32  C   UNL A   1      39.551 -15.021 -36.101  0.00  0.00    +0.246 C 
ATOM     33  O   UNL A   1      40.264 -14.559 -36.988  0.00  0.00    -0.270 OA
ATOM     34  N   UNL A   1      39.378 -14.327 -34.926  0.00  0.00    -0.311 N 
ATOM     35  H   UNL A   1      39.453 -13.347 -34.977  0.00  0.00    +0.000 HD
BRANCH  32  41
ATOM     36  C   UNL A   1      39.657 -17.511 -36.350  0.00  0.00    +0.044 A 
ATOM     37  C   UNL A   1      38.971 -18.730 -36.482  0.00  0.00    -0.040 A 
ATOM     38  C   UNL A   1      37.586 -18.767 -36.664  0.00  0.00    -0.060 A 
ATOM     39  C   UNL A   1      36.852 -17.584 -36.701  0.00  0.00    -0.061 A 
ATOM     40  C   UNL A   1      37.502 -16.365 -36.519  0.00  0.00    -0.048 A 
ATOM     41  C   UNL A   1      38.888 -16.330 -36.299  0.00  0.00    +0.058 A 
BRANCH  36  42
ATOM     42  N   UNL A   1      41.062 -17.490 -36.122  0.00  0.00    -0.314 N 
ATOM     43  H   UNL A   1      41.363 -17.500 -35.184  0.00  0.00    +0.000 HD
BRANCH  42  49
ATOM     44  C   UNL A   1      45.781 -16.541 -37.511  0.00  0.00    -0.039 C 
ATOM     45  C   UNL A   1      44.361 -16.941 -37.810  0.00  0.00    -0.046 A 
ATOM     46  C   UNL A   1      44.006 -17.214 -39.139  0.00  0.00    -0.058 A 
ATOM     47  C   UNL A   1      42.704 -17.578 -39.468  0.00  0.00    -0.060 A 
ATOM     48  C   UNL A   1      41.744 -17.691 -38.467  0.00  0.00    -0.040 A 
ATOM     49  C   UNL A   1      42.074 -17.457 -37.122  0.00  0.00    +0.035 A 
ATOM     50  C   UNL A   1      43.377 -17.019 -36.794  0.00  0.00    -0.026 A 
ATOM     51  C   UNL A   1      43.736 -16.730 -35.357  0.00  0.00    -0.038 C 
ENDBRANCH  42  49
ENDBRANCH  36  42
ENDBRANCH  32  41
ENDBRANCH  31  34
ENDBRANCH  30  31
ENDBRANCH   1  30
TORSDOF 16
ENDMDL
MODEL 16
REMARK VINA RESULT:    -5.475      2.518      4.948
REMARK INTER + INTRA:         -17.483
REMARK INTER:                 -12.302
REMARK INTRA:                  -5.181
REMARK UNBOUND:                -6.886
REMARK  Name = cpd52.pdb
REMARK  18 active torsions:
REMARK  status: ('A' for Active; 'I' for Inactive)
REMARK    1  A    between atoms: C_1  and  C_2
REMARK    2  A    between atoms: C_6  and  N_7
REMARK    3  A    between atoms: N_7  and  C_8
REMARK    4  A    between atoms: C_13  and  C_14
REMARK    5  A    between atoms: N_16  and  C_17
REMARK    6  A    between atoms: C_17  and  C_18
REMARK    7  A    between atoms: C_18  and  C_19
REMARK    8  A    between atoms: N_21  and  C_22
REMARK    9  A    between atoms: C_22  and  C_23
REMARK   10  A    between atoms: C_23  and  C_24
REMARK   11  A    between atoms: C_24  and  C_25
REMARK   12  A    between atoms: C_25  and  C_26
REMARK   13  A    between atoms: C_26  and  C_27
REMARK   14  A    between atoms: C_27  and  C_28
REMARK   15  A    between atoms: C_28  and  C_29
REMARK   16  A    between atoms: C_29  and  N_30
REMARK   17  A    between atoms: N_30  and  C_31
REMARK   18  A    between atoms: C_46  and  C_47
REMARK                            x       y       z     vdW  Elec       q    Type
REMARK                         _______ _______ _______ _____ _____    ______ ____
ROOT
ATOM      1  C   UNL A   1      44.097 -17.943 -32.517  0.00  0.00    +0.215 C 
ATOM      2  O   UNL A   1      45.232 -18.106 -32.083  0.00  0.00    -0.276 OA
ATOM      3  N   UNL A   1      43.577 -16.718 -32.868  0.00  0.00    -0.315 N 
ATOM      4  H   UNL A   1      42.657 -16.674 -33.216  0.00  0.00    +0.000 HD
ENDROOT
BRANCH   3   5
ATOM      5  C   UNL A   1      44.337 -15.487 -32.742  0.00  0.00    +0.012 C 
BRANCH   5   6
ATOM      6  C   UNL A   1      43.517 -14.356 -32.120  0.00  0.00    -0.037 C 
BRANCH   6   7
ATOM      7  C   UNL A   1      42.434 -13.760 -33.025  0.00  0.00    -0.052 C 
BRANCH   7   8
ATOM      8  C   UNL A   1      41.047 -13.724 -32.376  0.00  0.00    -0.053 C 
BRANCH   8   9
ATOM      9  C   UNL A   1      39.996 -14.357 -33.293  0.00  0.00    -0.053 C 
BRANCH   9  10
ATOM     10  C   UNL A   1      38.924 -15.141 -32.532  0.00  0.00    -0.052 C 
BRANCH  10  11
ATOM     11  C   UNL A   1      39.491 -16.232 -31.623  0.00  0.00    -0.037 C 
BRANCH  11  12
ATOM     12  C   UNL A   1      40.108 -17.364 -32.447  0.00  0.00    +0.009 C 
BRANCH  12  13
ATOM     13  N   UNL A   1      39.038 -18.064 -33.176  0.00  0.00    -0.343 N 
ATOM     14  H   UNL A   1      38.081 -17.990 -32.961  0.00  0.00    +0.000 HD
BRANCH  13  15
ATOM     15  C   UNL A   1      39.563 -18.864 -34.235  0.00  0.00    +0.041 A 
ATOM     16  C   UNL A   1      39.774 -20.236 -33.997  0.00  0.00    -0.005 A 
ATOM     17  C   UNL A   1      40.320 -20.998 -35.032  0.00  0.00    +0.047 A 
ATOM     18  N   UNL A   1      40.694 -20.469 -36.221  0.00  0.00    -0.251 NA
ATOM     19  C   UNL A   1      40.514 -19.161 -36.439  0.00  0.00    +0.074 A 
ATOM     20  C   UNL A   1      40.910 -18.658 -37.670  0.00  0.00    -0.017 A 
ATOM     21  C   UNL A   1      40.763 -17.309 -37.982  0.00  0.00    +0.043 A 
ATOM     22 CL   UNL A   1      41.269 -16.724 -39.518  0.00  0.00    -0.083 Cl
ATOM     23  C   UNL A   1      40.212 -16.434 -37.058  0.00  0.00    -0.043 A 
ATOM     24  C   UNL A   1      39.807 -16.922 -35.817  0.00  0.00    -0.049 A 
ATOM     25  C   UNL A   1      39.951 -18.292 -35.481  0.00  0.00    +0.022 A 
ATOM     26  C   UNL A   1      40.585 -22.472 -34.874  0.00  0.00    -0.010 C 
ATOM     27  C   UNL A   1      39.761 -23.117 -33.765  0.00  0.00    -0.047 C 
ATOM     28  C   UNL A   1      39.877 -22.291 -32.492  0.00  0.00    -0.049 C 
ATOM     29  C   UNL A   1      39.317 -20.886 -32.712  0.00  0.00    -0.024 C 
ENDBRANCH  13  15
ENDBRANCH  12  13
ENDBRANCH  11  12
ENDBRANCH  10  11
ENDBRANCH   9  10
ENDBRANCH   8   9
ENDBRANCH   7   8
ENDBRANCH   6   7
ENDBRANCH   5   6
ENDBRANCH   3   5
BRANCH   1  30
ATOM     30  C   UNL A   1      43.142 -19.099 -32.690  0.00  0.00    +0.039 C 
BRANCH  30  31
ATOM     31  C   UNL A   1      43.478 -19.883 -33.948  0.00  0.00    +0.020 C 
BRANCH  31  34
ATOM     32  C   UNL A   1      45.741 -19.925 -35.084  0.00  0.00    +0.246 C 
ATOM     33  O   UNL A   1      46.719 -20.640 -35.287  0.00  0.00    -0.270 OA
ATOM     34  N   UNL A   1      44.901 -20.191 -34.029  0.00  0.00    -0.311 N 
ATOM     35  H   UNL A   1      45.301 -20.635 -33.247  0.00  0.00    +0.000 HD
BRANCH  32  41
ATOM     36  C   UNL A   1      44.852 -19.003 -37.237  0.00  0.00    +0.044 A 
ATOM     37  C   UNL A   1      44.563 -17.879 -38.028  0.00  0.00    -0.040 A 
ATOM     38  C   UNL A   1      44.968 -16.597 -37.642  0.00  0.00    -0.060 A 
ATOM     39  C   UNL A   1      45.655 -16.410 -36.446  0.00  0.00    -0.061 A 
ATOM     40  C   UNL A   1      45.906 -17.503 -35.618  0.00  0.00    -0.048 A 
ATOM     41  C   UNL A   1      45.468 -18.784 -35.988  0.00  0.00    +0.058 A 
BRANCH  36  42
ATOM     42  N   UNL A   1      44.396 -20.297 -37.622  0.00  0.00    -0.314 N 
ATOM     43  H   UNL A   1      44.133 -20.911 -36.898  0.00  0.00    +0.000 HD
BRANCH  42  49
ATOM     44  C   UNL A   1      46.475 -22.349 -41.691  0.00  0.00    -0.039 C 
ATOM     45  C   UNL A   1      45.314 -21.735 -40.956  0.00  0.00    -0.046 A 
ATOM     46  C   UNL A   1      44.100 -21.566 -41.640  0.00  0.00    -0.058 A 
ATOM     47  C   UNL A   1      43.001 -20.995 -41.008  0.00  0.00    -0.060 A 
ATOM     48  C   UNL A   1      43.096 -20.600 -39.677  0.00  0.00    -0.040 A 
ATOM     49  C   UNL A   1      44.286 -20.785 -38.954  0.00  0.00    +0.035 A 
ATOM     50  C   UNL A   1      45.425 -21.301 -39.613  0.00  0.00    -0.026 A 
ATOM     51  C   UNL A   1      46.720 -21.472 -38.858  0.00  0.00    -0.038 C 
ENDBRANCH  42  49
ENDBRANCH  36  42
ENDBRANCH  32  41
ENDBRANCH  31  34
ENDBRANCH  30  31
ENDBRANCH   1  30
TORSDOF 16
ENDMDL
MODEL 17
REMARK VINA RESULT:    -5.461      2.871      8.162
REMARK INTER + INTRA:         -17.455
REMARK INTER:                 -11.585
REMARK INTRA:                  -5.870
REMARK UNBOUND:                -6.886
REMARK  Name = cpd52.pdb
REMARK  18 active torsions:
REMARK  status: ('A' for Active; 'I' for Inactive)
REMARK    1  A    between atoms: C_1  and  C_2
REMARK    2  A    between atoms: C_6  and  N_7
REMARK    3  A    between atoms: N_7  and  C_8
REMARK    4  A    between atoms: C_13  and  C_14
REMARK    5  A    between atoms: N_16  and  C_17
REMARK    6  A    between atoms: C_17  and  C_18
REMARK    7  A    between atoms: C_18  and  C_19
REMARK    8  A    between atoms: N_21  and  C_22
REMARK    9  A    between atoms: C_22  and  C_23
REMARK   10  A    between atoms: C_23  and  C_24
REMARK   11  A    between atoms: C_24  and  C_25
REMARK   12  A    between atoms: C_25  and  C_26
REMARK   13  A    between atoms: C_26  and  C_27
REMARK   14  A    between atoms: C_27  and  C_28
REMARK   15  A    between atoms: C_28  and  C_29
REMARK   16  A    between atoms: C_29  and  N_30
REMARK   17  A    between atoms: N_30  and  C_31
REMARK   18  A    between atoms: C_46  and  C_47
REMARK                            x       y       z     vdW  Elec       q    Type
REMARK                         _______ _______ _______ _____ _____    ______ ____
ROOT
ATOM      1  C   UNL A   1      39.851 -21.571 -35.016  0.00  0.00    +0.215 C 
ATOM      2  O   UNL A   1      40.310 -22.708 -35.008  0.00  0.00    -0.276 OA
ATOM      3  N   UNL A   1      40.106 -20.633 -34.042  0.00  0.00    -0.315 N 
ATOM      4  H   UNL A   1      39.703 -19.739 -34.126  0.00  0.00    +0.000 HD
ENDROOT
BRANCH   3   5
ATOM      5  C   UNL A   1      40.948 -20.916 -32.893  0.00  0.00    +0.012 C 
BRANCH   5   6
ATOM      6  C   UNL A   1      42.223 -20.071 -32.883  0.00  0.00    -0.037 C 
BRANCH   6   7
ATOM      7  C   UNL A   1      43.154 -20.277 -34.083  0.00  0.00    -0.052 C 
BRANCH   7   8
ATOM      8  C   UNL A   1      44.541 -19.658 -33.893  0.00  0.00    -0.053 C 
BRANCH   8   9
ATOM      9  C   UNL A   1      45.415 -19.881 -35.130  0.00  0.00    -0.053 C 
BRANCH   9  10
ATOM     10  C   UNL A   1      46.728 -19.093 -35.094  0.00  0.00    -0.052 C 
BRANCH  10  11
ATOM     11  C   UNL A   1      47.458 -19.057 -36.437  0.00  0.00    -0.037 C 
BRANCH  11  12
ATOM     12  C   UNL A   1      46.597 -19.668 -37.544  0.00  0.00    +0.009 C 
BRANCH  12  13
ATOM     13  N   UNL A   1      47.213 -19.376 -38.848  0.00  0.00    -0.343 N 
ATOM     14  H   UNL A   1      48.179 -19.246 -38.987  0.00  0.00    +0.000 HD
BRANCH  13  15
ATOM     15  C   UNL A   1      46.236 -19.303 -39.884  0.00  0.00    +0.041 A 
ATOM     16  C   UNL A   1      46.216 -20.318 -40.860  0.00  0.00    -0.005 A 
ATOM     17  C   UNL A   1      45.275 -20.214 -41.886  0.00  0.00    +0.047 A 
ATOM     18  N   UNL A   1      44.426 -19.167 -42.008  0.00  0.00    -0.251 NA
ATOM     19  C   UNL A   1      44.459 -18.191 -41.093  0.00  0.00    +0.074 A 
ATOM     20  C   UNL A   1      43.574 -17.135 -41.252  0.00  0.00    -0.017 A 
ATOM     21  C   UNL A   1      43.541 -16.075 -40.350  0.00  0.00    +0.043 A 
ATOM     22 CL   UNL A   1      42.429 -14.784 -40.584  0.00  0.00    -0.083 Cl
ATOM     23  C   UNL A   1      44.403 -16.055 -39.264  0.00  0.00    -0.043 A 
ATOM     24  C   UNL A   1      45.299 -17.107 -39.087  0.00  0.00    -0.049 A 
ATOM     25  C   UNL A   1      45.348 -18.194 -39.997  0.00  0.00    +0.022 A 
ATOM     26  C   UNL A   1      45.177 -21.249 -42.978  0.00  0.00    -0.010 C 
ATOM     27  C   UNL A   1      45.780 -22.594 -42.588  0.00  0.00    -0.047 C 
ATOM     28  C   UNL A   1      47.170 -22.386 -42.007  0.00  0.00    -0.049 C 
ATOM     29  C   UNL A   1      47.100 -21.538 -40.736  0.00  0.00    -0.024 C 
ENDBRANCH  13  15
ENDBRANCH  12  13
ENDBRANCH  11  12
ENDBRANCH  10  11
ENDBRANCH   9  10
ENDBRANCH   8   9
ENDBRANCH   7   8
ENDBRANCH   6   7
ENDBRANCH   5   6
ENDBRANCH   3   5
BRANCH   1  30
ATOM     30  C   UNL A   1      38.928 -21.098 -36.113  0.00  0.00    +0.039 C 
BRANCH  30  31
ATOM     31  C   UNL A   1      39.664 -21.043 -37.441  0.00  0.00    +0.020 C 
BRANCH  31  34
ATOM     32  C   UNL A   1      41.710 -19.582 -37.747  0.00  0.00    +0.246 C 
ATOM     33  O   UNL A   1      42.911 -19.624 -38.005  0.00  0.00    -0.270 OA
ATOM     34  N   UNL A   1      41.070 -20.699 -37.265  0.00  0.00    -0.311 N 
ATOM     35  H   UNL A   1      41.617 -21.334 -36.749  0.00  0.00    +0.000 HD
BRANCH  32  41
ATOM     36  C   UNL A   1      40.749 -17.430 -36.899  0.00  0.00    +0.044 A 
ATOM     37  C   UNL A   1      40.078 -16.228 -37.177  0.00  0.00    -0.040 A 
ATOM     38  C   UNL A   1      39.541 -15.973 -38.443  0.00  0.00    -0.060 A 
ATOM     39  C   UNL A   1      39.679 -16.910 -39.464  0.00  0.00    -0.061 A 
ATOM     40  C   UNL A   1      40.386 -18.087 -39.227  0.00  0.00    -0.048 A 
ATOM     41  C   UNL A   1      40.957 -18.326 -37.967  0.00  0.00    +0.058 A 
BRANCH  36  42
ATOM     42  N   UNL A   1      41.328 -17.657 -35.617  0.00  0.00    -0.314 N 
ATOM     43  H   UNL A   1      40.892 -18.327 -35.043  0.00  0.00    +0.000 HD
BRANCH  42  49
ATOM     44  C   UNL A   1      43.565 -15.054 -31.968  0.00  0.00    -0.039 C 
ATOM     45  C   UNL A   1      43.551 -15.689 -33.333  0.00  0.00    -0.046 A 
ATOM     46  C   UNL A   1      44.688 -15.561 -34.145  0.00  0.00    -0.058 A 
ATOM     47  C   UNL A   1      44.720 -16.121 -35.418  0.00  0.00    -0.060 A 
ATOM     48  C   UNL A   1      43.619 -16.831 -35.889  0.00  0.00    -0.040 A 
ATOM     49  C   UNL A   1      42.478 -17.005 -35.090  0.00  0.00    +0.035 A 
ATOM     50  C   UNL A   1      42.416 -16.378 -33.824  0.00  0.00    -0.026 A 
ATOM     51  C   UNL A   1      41.181 -16.528 -32.969  0.00  0.00    -0.038 C 
ENDBRANCH  42  49
ENDBRANCH  36  42
ENDBRANCH  32  41
ENDBRANCH  31  34
ENDBRANCH  30  31
ENDBRANCH   1  30
TORSDOF 16
ENDMDL
MODEL 18
REMARK VINA RESULT:    -5.365      2.382      4.703
REMARK INTER + INTRA:         -17.269
REMARK INTER:                 -12.483
REMARK INTRA:                  -4.786
REMARK UNBOUND:                -6.886
REMARK  Name = cpd52.pdb
REMARK  18 active torsions:
REMARK  status: ('A' for Active; 'I' for Inactive)
REMARK    1  A    between atoms: C_1  and  C_2
REMARK    2  A    between atoms: C_6  and  N_7
REMARK    3  A    between atoms: N_7  and  C_8
REMARK    4  A    between atoms: C_13  and  C_14
REMARK    5  A    between atoms: N_16  and  C_17
REMARK    6  A    between atoms: C_17  and  C_18
REMARK    7  A    between atoms: C_18  and  C_19
REMARK    8  A    between atoms: N_21  and  C_22
REMARK    9  A    between atoms: C_22  and  C_23
REMARK   10  A    between atoms: C_23  and  C_24
REMARK   11  A    between atoms: C_24  and  C_25
REMARK   12  A    between atoms: C_25  and  C_26
REMARK   13  A    between atoms: C_26  and  C_27
REMARK   14  A    between atoms: C_27  and  C_28
REMARK   15  A    between atoms: C_28  and  C_29
REMARK   16  A    between atoms: C_29  and  N_30
REMARK   17  A    between atoms: N_30  and  C_31
REMARK   18  A    between atoms: C_46  and  C_47
REMARK                            x       y       z     vdW  Elec       q    Type
REMARK                         _______ _______ _______ _____ _____    ______ ____
ROOT
ATOM      1  C   UNL A   1      39.962 -22.096 -37.323  0.00  0.00    +0.215 C 
ATOM      2  O   UNL A   1      40.125 -22.747 -36.297  0.00  0.00    -0.276 OA
ATOM      3  N   UNL A   1      39.172 -20.971 -37.400  0.00  0.00    -0.315 N 
ATOM      4  H   UNL A   1      39.099 -20.500 -38.262  0.00  0.00    +0.000 HD
ENDROOT
BRANCH   3   5
ATOM      5  C   UNL A   1      38.441 -20.455 -36.257  0.00  0.00    +0.012 C 
BRANCH   5   6
ATOM      6  C   UNL A   1      38.767 -18.988 -35.971  0.00  0.00    -0.037 C 
BRANCH   6   7
ATOM      7  C   UNL A   1      37.946 -17.968 -36.767  0.00  0.00    -0.052 C 
BRANCH   7   8
ATOM      8  C   UNL A   1      38.089 -16.533 -36.253  0.00  0.00    -0.053 C 
BRANCH   8   9
ATOM      9  C   UNL A   1      36.761 -16.016 -35.692  0.00  0.00    -0.053 C 
BRANCH   9  10
ATOM     10  C   UNL A   1      35.642 -17.060 -35.730  0.00  0.00    -0.052 C 
BRANCH  10  11
ATOM     11  C   UNL A   1      35.059 -17.384 -34.354  0.00  0.00    -0.037 C 
BRANCH  11  12
ATOM     12  C   UNL A   1      35.621 -18.703 -33.819  0.00  0.00    +0.009 C 
BRANCH  12  13
ATOM     13  N   UNL A   1      36.161 -18.482 -32.468  0.00  0.00    -0.343 N 
ATOM     14  H   UNL A   1      35.607 -18.311 -31.673  0.00  0.00    +0.000 HD
BRANCH  13  15
ATOM     15  C   UNL A   1      37.586 -18.547 -32.456  0.00  0.00    +0.041 A 
ATOM     16  C   UNL A   1      38.312 -17.341 -32.408  0.00  0.00    -0.005 A 
ATOM     17  C   UNL A   1      39.705 -17.420 -32.431  0.00  0.00    +0.047 A 
ATOM     18  N   UNL A   1      40.377 -18.590 -32.545  0.00  0.00    -0.251 NA
ATOM     19  C   UNL A   1      39.687 -19.735 -32.613  0.00  0.00    +0.074 A 
ATOM     20  C   UNL A   1      40.412 -20.912 -32.730  0.00  0.00    -0.017 A 
ATOM     21  C   UNL A   1      39.777 -22.148 -32.811  0.00  0.00    +0.043 A 
ATOM     22 CL   UNL A   1      40.712 -23.584 -32.956  0.00  0.00    -0.083 Cl
ATOM     23  C   UNL A   1      38.393 -22.227 -32.775  0.00  0.00    -0.043 A 
ATOM     24  C   UNL A   1      37.648 -21.055 -32.657  0.00  0.00    -0.049 A 
ATOM     25  C   UNL A   1      38.278 -19.786 -32.576  0.00  0.00    +0.022 A 
ATOM     26  C   UNL A   1      40.569 -16.187 -32.385  0.00  0.00    -0.010 C 
ATOM     27  C   UNL A   1      39.854 -14.972 -31.804  0.00  0.00    -0.047 C 
ATOM     28  C   UNL A   1      38.501 -14.799 -32.479  0.00  0.00    -0.049 C 
ATOM     29  C   UNL A   1      37.612 -16.015 -32.217  0.00  0.00    -0.024 C 
ENDBRANCH  13  15
ENDBRANCH  12  13
ENDBRANCH  11  12
ENDBRANCH  10  11
ENDBRANCH   9  10
ENDBRANCH   8   9
ENDBRANCH   7   8
ENDBRANCH   6   7
ENDBRANCH   5   6
ENDBRANCH   3   5
BRANCH   1  30
ATOM     30  C   UNL A   1      40.614 -22.492 -38.625  0.00  0.00    +0.039 C 
BRANCH  30  31
ATOM     31  C   UNL A   1      42.015 -21.910 -38.718  0.00  0.00    +0.020 C 
BRANCH  31  34
ATOM     32  C   UNL A   1      42.271 -19.483 -38.039  0.00  0.00    +0.246 C 
ATOM     33  O   UNL A   1      41.743 -18.379 -38.143  0.00  0.00    -0.270 OA
ATOM     34  N   UNL A   1      41.986 -20.471 -38.953  0.00  0.00    -0.311 N 
ATOM     35  H   UNL A   1      41.737 -20.177 -39.858  0.00  0.00    +0.000 HD
BRANCH  32  41
ATOM     36  C   UNL A   1      44.598 -19.667 -37.130  0.00  0.00    +0.044 A 
ATOM     37  C   UNL A   1      45.436 -19.869 -36.022  0.00  0.00    -0.040 A 
ATOM     38  C   UNL A   1      44.917 -20.241 -34.778  0.00  0.00    -0.060 A 
ATOM     39  C   UNL A   1      43.544 -20.401 -34.612  0.00  0.00    -0.061 A 
ATOM     40  C   UNL A   1      42.688 -20.155 -35.683  0.00  0.00    -0.048 A 
ATOM     41  C   UNL A   1      43.206 -19.746 -36.921  0.00  0.00    +0.058 A 
BRANCH  36  42
ATOM     42  N   UNL A   1      45.137 -19.247 -38.380  0.00  0.00    -0.314 N 
ATOM     43  H   UNL A   1      45.358 -18.292 -38.473  0.00  0.00    +0.000 HD
BRANCH  42  49
ATOM     44  C   UNL A   1      44.638 -20.212 -43.270  0.00  0.00    -0.039 C 
ATOM     45  C   UNL A   1      45.094 -20.575 -41.883  0.00  0.00    -0.046 A 
ATOM     46  C   UNL A   1      45.717 -21.816 -41.683  0.00  0.00    -0.058 A 
ATOM     47  C   UNL A   1      46.147 -22.201 -40.418  0.00  0.00    -0.060 A 
ATOM     48  C   UNL A   1      45.975 -21.342 -39.338  0.00  0.00    -0.040 A 
ATOM     49  C   UNL A   1      45.386 -20.079 -39.508  0.00  0.00    +0.035 A 
ATOM     50  C   UNL A   1      44.884 -19.713 -40.779  0.00  0.00    -0.026 A 
ATOM     51  C   UNL A   1      44.217 -18.373 -40.969  0.00  0.00    -0.038 C 
ENDBRANCH  42  49
ENDBRANCH  36  42
ENDBRANCH  32  41
ENDBRANCH  31  34
ENDBRANCH  30  31
ENDBRANCH   1  30
TORSDOF 16
ENDMDL
MODEL 19
REMARK VINA RESULT:    -5.242      2.503      5.613
REMARK INTER + INTRA:         -17.032
REMARK INTER:                 -12.274
REMARK INTRA:                  -4.758
REMARK UNBOUND:                -6.886
REMARK  Name = cpd52.pdb
REMARK  18 active torsions:
REMARK  status: ('A' for Active; 'I' for Inactive)
REMARK    1  A    between atoms: C_1  and  C_2
REMARK    2  A    between atoms: C_6  and  N_7
REMARK    3  A    between atoms: N_7  and  C_8
REMARK    4  A    between atoms: C_13  and  C_14
REMARK    5  A    between atoms: N_16  and  C_17
REMARK    6  A    between atoms: C_17  and  C_18
REMARK    7  A    between atoms: C_18  and  C_19
REMARK    8  A    between atoms: N_21  and  C_22
REMARK    9  A    between atoms: C_22  and  C_23
REMARK   10  A    between atoms: C_23  and  C_24
REMARK   11  A    between atoms: C_24  and  C_25
REMARK   12  A    between atoms: C_25  and  C_26
REMARK   13  A    between atoms: C_26  and  C_27
REMARK   14  A    between atoms: C_27  and  C_28
REMARK   15  A    between atoms: C_28  and  C_29
REMARK   16  A    between atoms: C_29  and  N_30
REMARK   17  A    between atoms: N_30  and  C_31
REMARK   18  A    between atoms: C_46  and  C_47
REMARK                            x       y       z     vdW  Elec       q    Type
REMARK                         _______ _______ _______ _____ _____    ______ ____
ROOT
ATOM      1  C   UNL A   1      42.426 -15.596 -35.040  0.00  0.00    +0.215 C 
ATOM      2  O   UNL A   1      42.619 -15.339 -33.856  0.00  0.00    -0.276 OA
ATOM      3  N   UNL A   1      41.368 -16.346 -35.500  0.00  0.00    -0.315 N 
ATOM      4  H   UNL A   1      41.281 -16.501 -36.469  0.00  0.00    +0.000 HD
ENDROOT
BRANCH   3   5
ATOM      5  C   UNL A   1      40.374 -16.917 -34.609  0.00  0.00    +0.012 C 
BRANCH   5   6
ATOM      6  C   UNL A   1      38.998 -17.033 -35.267  0.00  0.00    -0.037 C 
BRANCH   6   7
ATOM      7  C   UNL A   1      38.110 -18.160 -34.730  0.00  0.00    -0.052 C 
BRANCH   7   8
ATOM      8  C   UNL A   1      38.121 -18.272 -33.202  0.00  0.00    -0.053 C 
BRANCH   8   9
ATOM      9  C   UNL A   1      37.967 -19.729 -32.758  0.00  0.00    -0.053 C 
BRANCH   9  10
ATOM     10  C   UNL A   1      39.302 -20.414 -32.458  0.00  0.00    -0.052 C 
BRANCH  10  11
ATOM     11  C   UNL A   1      39.584 -21.625 -33.349  0.00  0.00    -0.037 C 
BRANCH  11  12
ATOM     12  C   UNL A   1      40.961 -21.512 -34.005  0.00  0.00    +0.009 C 
BRANCH  12  13
ATOM     13  N   UNL A   1      41.028 -20.256 -34.768  0.00  0.00    -0.343 N 
ATOM     14  H   UNL A   1      40.426 -19.489 -34.627  0.00  0.00    +0.000 HD
BRANCH  13  15
ATOM     15  C   UNL A   1      42.072 -20.288 -35.740  0.00  0.00    +0.041 A 
ATOM     16  C   UNL A   1      41.803 -20.869 -36.995  0.00  0.00    -0.005 A 
ATOM     17  C   UNL A   1      42.845 -20.922 -37.922  0.00  0.00    +0.047 A 
ATOM     18  N   UNL A   1      44.099 -20.489 -37.650  0.00  0.00    -0.251 NA
ATOM     19  C   UNL A   1      44.360 -19.957 -36.451  0.00  0.00    +0.074 A 
ATOM     20  C   UNL A   1      45.657 -19.525 -36.212  0.00  0.00    -0.017 A 
ATOM     21  C   UNL A   1      46.019 -18.962 -34.991  0.00  0.00    +0.043 A 
ATOM     22 CL   UNL A   1      47.637 -18.440 -34.734  0.00  0.00    -0.083 Cl
ATOM     23  C   UNL A   1      45.080 -18.821 -33.981  0.00  0.00    -0.043 A 
ATOM     24  C   UNL A   1      43.772 -19.248 -34.203  0.00  0.00    -0.049 A 
ATOM     25  C   UNL A   1      43.385 -19.826 -35.439  0.00  0.00    +0.022 A 
ATOM     26  C   UNL A   1      42.657 -21.526 -39.289  0.00  0.00    -0.010 C 
ATOM     27  C   UNL A   1      41.199 -21.572 -39.732  0.00  0.00    -0.047 C 
ATOM     28  C   UNL A   1      40.344 -22.175 -38.627  0.00  0.00    -0.049 C 
ATOM     29  C   UNL A   1      40.407 -21.310 -37.368  0.00  0.00    -0.024 C 
ENDBRANCH  13  15
ENDBRANCH  12  13
ENDBRANCH  11  12
ENDBRANCH  10  11
ENDBRANCH   9  10
ENDBRANCH   8   9
ENDBRANCH   7   8
ENDBRANCH   6   7
ENDBRANCH   5   6
ENDBRANCH   3   5
BRANCH   1  30
ATOM     30  C   UNL A   1      43.369 -15.117 -36.117  0.00  0.00    +0.039 C 
BRANCH  30  31
ATOM     31  C   UNL A   1      44.077 -16.295 -36.767  0.00  0.00    +0.020 C 
BRANCH  31  34
ATOM     32  C   UNL A   1      43.455 -16.636 -39.199  0.00  0.00    +0.246 C 
ATOM     33  O   UNL A   1      42.493 -16.714 -39.959  0.00  0.00    -0.270 OA
ATOM     34  N   UNL A   1      43.289 -16.866 -37.853  0.00  0.00    -0.311 N 
ATOM     35  H   UNL A   1      42.563 -17.479 -37.596  0.00  0.00    +0.000 HD
BRANCH  32  41
ATOM     36  C   UNL A   1      45.764 -17.283 -39.920  0.00  0.00    +0.044 A 
ATOM     37  C   UNL A   1      46.991 -16.901 -40.488  0.00  0.00    -0.040 A 
ATOM     38  C   UNL A   1      47.276 -15.561 -40.765  0.00  0.00    -0.060 A 
ATOM     39  C   UNL A   1      46.333 -14.574 -40.494  0.00  0.00    -0.061 A 
ATOM     40  C   UNL A   1      45.088 -14.933 -39.980  0.00  0.00    -0.048 A 
ATOM     41  C   UNL A   1      44.788 -16.283 -39.737  0.00  0.00    +0.058 A 
BRANCH  36  42
ATOM     42  N   UNL A   1      45.471 -18.657 -39.684  0.00  0.00    -0.314 N 
ATOM     43  H   UNL A   1      45.362 -18.936 -38.746  0.00  0.00    +0.000 HD
BRANCH  42  49
ATOM     44  C   UNL A   1      46.969 -22.946 -41.795  0.00  0.00    -0.039 C 
ATOM     45  C   UNL A   1      46.086 -21.728 -41.739  0.00  0.00    -0.046 A 
ATOM     46  C   UNL A   1      45.133 -21.542 -42.752  0.00  0.00    -0.058 A 
ATOM     47  C   UNL A   1      44.301 -20.427 -42.749  0.00  0.00    -0.060 A 
ATOM     48  C   UNL A   1      44.400 -19.492 -41.724  0.00  0.00    -0.040 A 
ATOM     49  C   UNL A   1      45.320 -19.664 -40.677  0.00  0.00    +0.035 A 
ATOM     50  C   UNL A   1      46.215 -20.759 -40.714  0.00  0.00    -0.026 A 
ATOM     51  C   UNL A   1      47.232 -20.938 -39.614  0.00  0.00    -0.038 C 
ENDBRANCH  42  49
ENDBRANCH  36  42
ENDBRANCH  32  41
ENDBRANCH  31  34
ENDBRANCH  30  31
ENDBRANCH   1  30
TORSDOF 16
ENDMDL
MODEL 20
REMARK VINA RESULT:    -5.112      2.772      5.392
REMARK INTER + INTRA:         -16.781
REMARK INTER:                 -10.294
REMARK INTRA:                  -6.486
REMARK UNBOUND:                -6.886
REMARK  Name = cpd52.pdb
REMARK  18 active torsions:
REMARK  status: ('A' for Active; 'I' for Inactive)
REMARK    1  A    between atoms: C_1  and  C_2
REMARK    2  A    between atoms: C_6  and  N_7
REMARK    3  A    between atoms: N_7  and  C_8
REMARK    4  A    between atoms: C_13  and  C_14
REMARK    5  A    between atoms: N_16  and  C_17
REMARK    6  A    between atoms: C_17  and  C_18
REMARK    7  A    between atoms: C_18  and  C_19
REMARK    8  A    between atoms: N_21  and  C_22
REMARK    9  A    between atoms: C_22  and  C_23
REMARK   10  A    between atoms: C_23  and  C_24
REMARK   11  A    between atoms: C_24  and  C_25
REMARK   12  A    between atoms: C_25  and  C_26
REMARK   13  A    between atoms: C_26  and  C_27
REMARK   14  A    between atoms: C_27  and  C_28
REMARK   15  A    between atoms: C_28  and  C_29
REMARK   16  A    between atoms: C_29  and  N_30
REMARK   17  A    between atoms: N_30  and  C_31
REMARK   18  A    between atoms: C_46  and  C_47
REMARK                            x       y       z     vdW  Elec       q    Type
REMARK                         _______ _______ _______ _____ _____    ______ ____
ROOT
ATOM      1  C   UNL A   1      41.280 -15.459 -38.296  0.00  0.00    +0.215 C 
ATOM      2  O   UNL A   1      40.963 -14.342 -37.900  0.00  0.00    -0.276 OA
ATOM      3  N   UNL A   1      41.669 -16.485 -37.465  0.00  0.00    -0.315 N 
ATOM      4  H   UNL A   1      41.901 -17.356 -37.863  0.00  0.00    +0.000 HD
ENDROOT
BRANCH   3   5
ATOM      5  C   UNL A   1      41.749 -16.330 -36.024  0.00  0.00    +0.012 C 
BRANCH   5   6
ATOM      6  C   UNL A   1      40.593 -17.022 -35.298  0.00  0.00    -0.037 C 
BRANCH   6   7
ATOM      7  C   UNL A   1      41.008 -18.035 -34.226  0.00  0.00    -0.052 C 
BRANCH   7   8
ATOM      8  C   UNL A   1      42.102 -19.002 -34.689  0.00  0.00    -0.053 C 
BRANCH   8   9
ATOM      9  C   UNL A   1      42.082 -20.289 -33.859  0.00  0.00    -0.053 C 
BRANCH   9  10
ATOM     10  C   UNL A   1      40.903 -20.364 -32.886  0.00  0.00    -0.052 C 
BRANCH  10  11
ATOM     11  C   UNL A   1      39.858 -21.412 -33.269  0.00  0.00    -0.037 C 
BRANCH  11  12
ATOM     12  C   UNL A   1      38.674 -20.765 -33.991  0.00  0.00    +0.009 C 
BRANCH  12  13
ATOM     13  N   UNL A   1      38.488 -21.425 -35.293  0.00  0.00    -0.343 N 
ATOM     14  H   UNL A   1      38.155 -22.344 -35.405  0.00  0.00    +0.000 HD
BRANCH  13  15
ATOM     15  C   UNL A   1      38.851 -20.566 -36.372  0.00  0.00    +0.041 A 
ATOM     16  C   UNL A   1      40.081 -20.789 -37.022  0.00  0.00    -0.005 A 
ATOM     17  C   UNL A   1      40.437 -19.918 -38.054  0.00  0.00    +0.047 A 
ATOM     18  N   UNL A   1      39.683 -18.855 -38.417  0.00  0.00    -0.251 NA
ATOM     19  C   UNL A   1      38.525 -18.630 -37.785  0.00  0.00    +0.074 A 
ATOM     20  C   UNL A   1      37.781 -17.529 -38.186  0.00  0.00    -0.017 A 
ATOM     21  C   UNL A   1      36.566 -17.218 -37.582  0.00  0.00    +0.043 A 
ATOM     22 CL   UNL A   1      35.675 -15.844 -38.107  0.00  0.00    -0.083 Cl
ATOM     23  C   UNL A   1      36.072 -18.009 -36.557  0.00  0.00    -0.043 A 
ATOM     24  C   UNL A   1      36.805 -19.119 -36.141  0.00  0.00    -0.049 A 
ATOM     25  C   UNL A   1      38.046 -19.451 -36.743  0.00  0.00    +0.022 A 
ATOM     26  C   UNL A   1      41.732 -20.073 -38.808  0.00  0.00    -0.010 C 
ATOM     27  C   UNL A   1      42.316 -21.479 -38.719  0.00  0.00    -0.047 C 
ATOM     28  C   UNL A   1      42.346 -21.934 -37.268  0.00  0.00    -0.049 C 
ATOM     29  C   UNL A   1      40.929 -21.996 -36.696  0.00  0.00    -0.024 C 
ENDBRANCH  13  15
ENDBRANCH  12  13
ENDBRANCH  11  12
ENDBRANCH  10  11
ENDBRANCH   9  10
ENDBRANCH   8   9
ENDBRANCH   7   8
ENDBRANCH   6   7
ENDBRANCH   5   6
ENDBRANCH   3   5
BRANCH   1  30
ATOM     30  C   UNL A   1      41.290 -15.805 -39.765  0.00  0.00    +0.039 C 
BRANCH  30  31
ATOM     31  C   UNL A   1      42.348 -16.856 -40.056  0.00  0.00    +0.020 C 
BRANCH  31  34
ATOM     32  C   UNL A   1      44.752 -16.887 -40.853  0.00  0.00    +0.246 C 
ATOM     33  O   UNL A   1      45.782 -16.218 -40.874  0.00  0.00    -0.270 OA
ATOM     34  N   UNL A   1      43.536 -16.272 -40.667  0.00  0.00    -0.311 N 
ATOM     35  H   UNL A   1      43.460 -15.342 -40.978  0.00  0.00    +0.000 HD
BRANCH  32  41
ATOM     36  C   UNL A   1      45.625 -19.125 -40.142  0.00  0.00    +0.044 A 
ATOM     37  C   UNL A   1      45.615 -20.520 -40.308  0.00  0.00    -0.040 A 
ATOM     38  C   UNL A   1      44.927 -21.120 -41.366  0.00  0.00    -0.060 A 
ATOM     39  C   UNL A   1      44.219 -20.338 -42.274  0.00  0.00    -0.061 A 
ATOM     40  C   UNL A   1      44.169 -18.956 -42.101  0.00  0.00    -0.048 A 
ATOM     41  C   UNL A   1      44.829 -18.357 -41.017  0.00  0.00    +0.058 A 
BRANCH  36  42
ATOM     42  N   UNL A   1      46.294 -18.531 -39.034  0.00  0.00    -0.314 N 
ATOM     43  H   UNL A   1      47.016 -17.893 -39.238  0.00  0.00    +0.000 HD
BRANCH  42  49
ATOM     44  C   UNL A   1      45.163 -16.835 -34.458  0.00  0.00    -0.039 C 
ATOM     45  C   UNL A   1      45.519 -17.939 -35.418  0.00  0.00    -0.046 A 
ATOM     46  C   UNL A   1      45.661 -19.243 -34.919  0.00  0.00    -0.058 A 
ATOM     47  C   UNL A   1      45.998 -20.295 -35.763  0.00  0.00    -0.060 A 
ATOM     48  C   UNL A   1      46.183 -20.059 -37.122  0.00  0.00    -0.040 A 
ATOM     49  C   UNL A   1      46.017 -18.773 -37.660  0.00  0.00    +0.035 A 
ATOM     50  C   UNL A   1      45.743 -17.690 -36.793  0.00  0.00    -0.026 A 
ATOM     51  C   UNL A   1      45.597 -16.296 -37.353  0.00  0.00    -0.038 C 
ENDBRANCH  42  49
ENDBRANCH  36  42
ENDBRANCH  32  41
ENDBRANCH  31  34
ENDBRANCH  30  31
ENDBRANCH   1  30
TORSDOF 16
ENDMDL
