MODEL 1
REMARK VINA RESULT:    -7.182      0.000      0.000
REMARK INTER + INTRA:          -8.654
REMARK INTER:                  -8.441
REMARK INTRA:                  -0.213
REMARK UNBOUND:                -0.213
REMARK  Name = cpd167.pdb
REMARK  6 active torsions:
REMARK  status: ('A' for Active; 'I' for Inactive)
REMARK    1  A    between atoms: C_1  and  N_2
REMARK    2  A    between atoms: N_2  and  C_3
REMARK    3  A    between atoms: N_2  and  C_4
REMARK    4  A    between atoms: N_2  and  C_5
REMARK    5  A    between atoms: C_9  and  C_10
REMARK    6  A    between atoms: C_10  and  C_12
REMARK                            x       y       z     vdW  Elec       q    Type
REMARK                         _______ _______ _______ _____ _____    ______ ____
ROOT
ATOM      1  C   UNL A   1      63.796 -23.726  -8.632  0.00  0.00    +0.016 A 
ATOM      2  C   UNL A   1      63.652 -22.842  -7.426  0.00  0.00    -0.042 A 
ATOM      3  C   UNL A   1      63.771 -23.299  -6.105  0.00  0.00    -0.059 A 
ATOM      4  C   UNL A   1      64.039 -24.643  -5.829  0.00  0.00    -0.051 A 
ATOM      5  C   UNL A   1      64.196 -25.577  -6.857  0.00  0.00    +0.028 A 
ATOM      6  C   UNL A   1      64.081 -25.149  -8.201  0.00  0.00    -0.031 A 
ENDROOT
BRANCH   1   8
ATOM      7  C   UNL A   1      64.368 -24.137  -9.858  0.00  0.00    -0.015 C 
ATOM      8  N   UNL A   1      63.720 -23.427  -9.583  0.00  0.00    -0.390 NA
ATOM      9  C   UNL A   1      63.643 -23.127 -10.534  0.00  0.00    -0.015 C 
ATOM     10  C   UNL A   1      63.071 -22.717  -9.307  0.00  0.00    -0.015 C 
ENDBRANCH   1   8
BRANCH   5  11
ATOM     11  C   UNL A   1      64.485 -27.024  -6.610  0.00  0.00    +0.265 C 
ATOM     12  O   UNL A   1      65.643 -27.405  -6.801  0.00  0.00    -0.283 OA
BRANCH  11  13
ATOM     13  C   UNL A   1      63.353 -27.929  -6.143  0.00  0.00    +0.455 C 
ATOM     14  F   UNL A   1      62.242 -27.782  -6.915  0.00  0.00    -0.163 F 
ATOM     15  F   UNL A   1      62.971 -27.639  -4.868  0.00  0.00    -0.163 F 
ATOM     16  F   UNL A   1      63.673 -29.248  -6.164  0.00  0.00    -0.163 F 
ENDBRANCH  11  13
ENDBRANCH   5  11
TORSDOF 3
ENDMDL
MODEL 2
REMARK VINA RESULT:    -7.024     34.132     35.230
REMARK INTER + INTRA:          -8.469
REMARK INTER:                  -8.424
REMARK INTRA:                  -0.045
REMARK UNBOUND:                -0.213
REMARK  Name = cpd167.pdb
REMARK  6 active torsions:
REMARK  status: ('A' for Active; 'I' for Inactive)
REMARK    1  A    between atoms: C_1  and  N_2
REMARK    2  A    between atoms: N_2  and  C_3
REMARK    3  A    between atoms: N_2  and  C_4
REMARK    4  A    between atoms: N_2  and  C_5
REMARK    5  A    between atoms: C_9  and  C_10
REMARK    6  A    between atoms: C_10  and  C_12
REMARK                            x       y       z     vdW  Elec       q    Type
REMARK                         _______ _______ _______ _____ _____    ______ ____
ROOT
ATOM      1  C   UNL A   1      37.894 -36.501 -30.079  0.00  0.00    +0.016 A 
ATOM      2  C   UNL A   1      37.691 -37.361 -28.864  0.00  0.00    -0.042 A 
ATOM      3  C   UNL A   1      38.689 -38.173 -28.307  0.00  0.00    -0.059 A 
ATOM      4  C   UNL A   1      39.970 -38.228 -28.868  0.00  0.00    -0.051 A 
ATOM      5  C   UNL A   1      40.298 -37.478 -30.001  0.00  0.00    +0.028 A 
ATOM      6  C   UNL A   1      39.312 -36.649 -30.588  0.00  0.00    -0.031 A 
ENDROOT
BRANCH   1   8
ATOM      7  C   UNL A   1      36.521 -36.255 -29.848  0.00  0.00    -0.015 C 
ATOM      8  N   UNL A   1      37.202 -35.911 -30.495  0.00  0.00    -0.390 NA
ATOM      9  C   UNL A   1      36.510 -35.321 -30.910  0.00  0.00    -0.015 C 
ATOM     10  C   UNL A   1      37.883 -35.567 -31.141  0.00  0.00    -0.015 C 
ENDBRANCH   1   8
BRANCH   5  11
ATOM     11  C   UNL A   1      41.653 -37.502 -30.634  0.00  0.00    +0.265 C 
ATOM     12  O   UNL A   1      42.127 -38.609 -30.899  0.00  0.00    -0.283 OA
BRANCH  11  13
ATOM     13  C   UNL A   1      42.357 -36.181 -30.910  0.00  0.00    +0.455 C 
ATOM     14  F   UNL A   1      41.906 -35.601 -32.056  0.00  0.00    -0.163 F 
ATOM     15  F   UNL A   1      43.699 -36.352 -31.074  0.00  0.00    -0.163 F 
ATOM     16  F   UNL A   1      42.198 -35.267 -29.920  0.00  0.00    -0.163 F 
ENDBRANCH  11  13
ENDBRANCH   5  11
TORSDOF 3
ENDMDL
MODEL 3
REMARK VINA RESULT:    -6.893     35.243     36.383
REMARK INTER + INTRA:          -8.315
REMARK INTER:                  -8.122
REMARK INTRA:                  -0.194
REMARK UNBOUND:                -0.213
REMARK  Name = cpd167.pdb
REMARK  6 active torsions:
REMARK  status: ('A' for Active; 'I' for Inactive)
REMARK    1  A    between atoms: C_1  and  N_2
REMARK    2  A    between atoms: N_2  and  C_3
REMARK    3  A    between atoms: N_2  and  C_4
REMARK    4  A    between atoms: N_2  and  C_5
REMARK    5  A    between atoms: C_9  and  C_10
REMARK    6  A    between atoms: C_10  and  C_12
REMARK                            x       y       z     vdW  Elec       q    Type
REMARK                         _______ _______ _______ _____ _____    ______ ____
ROOT
ATOM      1  C   UNL A   1      37.523 -37.671 -29.548  0.00  0.00    +0.016 A 
ATOM      2  C   UNL A   1      38.676 -38.158 -28.719  0.00  0.00    -0.042 A 
ATOM      3  C   UNL A   1      40.022 -37.951 -29.055  0.00  0.00    -0.059 A 
ATOM      4  C   UNL A   1      40.376 -37.255 -30.216  0.00  0.00    -0.051 A 
ATOM      5  C   UNL A   1      39.402 -36.746 -31.081  0.00  0.00    +0.028 A 
ATOM      6  C   UNL A   1      38.035 -36.939 -30.770  0.00  0.00    -0.031 A 
ENDROOT
BRANCH   1   8
ATOM      7  C   UNL A   1      36.548 -36.931 -28.839  0.00  0.00    -0.015 C 
ATOM      8  N   UNL A   1      36.556 -37.802 -29.330  0.00  0.00    -0.390 NA
ATOM      9  C   UNL A   1      35.588 -37.933 -29.113  0.00  0.00    -0.015 C 
ATOM     10  C   UNL A   1      36.563 -38.673 -29.822  0.00  0.00    -0.015 C 
ENDBRANCH   1   8
BRANCH   5  11
ATOM     11  C   UNL A   1      39.732 -35.995 -32.331  0.00  0.00    +0.265 C 
ATOM     12  O   UNL A   1      38.892 -35.189 -32.739  0.00  0.00    -0.283 OA
BRANCH  11  13
ATOM     13  C   UNL A   1      41.065 -36.262 -33.018  0.00  0.00    +0.455 C 
ATOM     14  F   UNL A   1      42.006 -35.344 -32.663  0.00  0.00    -0.163 F 
ATOM     15  F   UNL A   1      40.955 -36.189 -34.374  0.00  0.00    -0.163 F 
ATOM     16  F   UNL A   1      41.583 -37.483 -32.733  0.00  0.00    -0.163 F 
ENDBRANCH  11  13
ENDBRANCH   5  11
TORSDOF 3
ENDMDL
MODEL 4
REMARK VINA RESULT:    -6.882     29.894     30.958
REMARK INTER + INTRA:          -8.302
REMARK INTER:                  -7.962
REMARK INTRA:                  -0.340
REMARK UNBOUND:                -0.213
REMARK  Name = cpd167.pdb
REMARK  6 active torsions:
REMARK  status: ('A' for Active; 'I' for Inactive)
REMARK    1  A    between atoms: C_1  and  N_2
REMARK    2  A    between atoms: N_2  and  C_3
REMARK    3  A    between atoms: N_2  and  C_4
REMARK    4  A    between atoms: N_2  and  C_5
REMARK    5  A    between atoms: C_9  and  C_10
REMARK    6  A    between atoms: C_10  and  C_12
REMARK                            x       y       z     vdW  Elec       q    Type
REMARK                         _______ _______ _______ _____ _____    ______ ____
ROOT
ATOM      1  C   UNL A   1      49.206 -38.249 -29.926  0.00  0.00    +0.016 A 
ATOM      2  C   UNL A   1      48.517 -36.917 -29.845  0.00  0.00    -0.042 A 
ATOM      3  C   UNL A   1      47.175 -36.753 -29.471  0.00  0.00    -0.059 A 
ATOM      4  C   UNL A   1      46.380 -37.855 -29.140  0.00  0.00    -0.051 A 
ATOM      5  C   UNL A   1      46.893 -39.155 -29.173  0.00  0.00    +0.028 A 
ATOM      6  C   UNL A   1      48.243 -39.354 -29.548  0.00  0.00    -0.031 A 
ENDROOT
BRANCH   1   8
ATOM      7  C   UNL A   1      49.863 -38.807 -31.047  0.00  0.00    -0.015 C 
ATOM      8  N   UNL A   1      50.160 -38.394 -30.186  0.00  0.00    -0.390 NA
ATOM      9  C   UNL A   1      51.115 -38.538 -30.446  0.00  0.00    -0.015 C 
ATOM     10  C   UNL A   1      50.457 -37.981 -29.325  0.00  0.00    -0.015 C 
ENDBRANCH   1   8
BRANCH   5  11
ATOM     11  C   UNL A   1      46.082 -40.363 -28.826  0.00  0.00    +0.265 C 
ATOM     12  O   UNL A   1      45.896 -40.588 -27.628  0.00  0.00    -0.283 OA
BRANCH  11  13
ATOM     13  C   UNL A   1      45.538 -41.230 -29.954  0.00  0.00    +0.455 C 
ATOM     14  F   UNL A   1      44.304 -40.820 -30.354  0.00  0.00    -0.163 F 
ATOM     15  F   UNL A   1      45.400 -42.529 -29.566  0.00  0.00    -0.163 F 
ATOM     16  F   UNL A   1      46.327 -41.235 -31.058  0.00  0.00    -0.163 F 
ENDBRANCH  11  13
ENDBRANCH   5  11
TORSDOF 3
ENDMDL
MODEL 5
REMARK VINA RESULT:    -6.878     30.566     31.629
REMARK INTER + INTRA:          -8.297
REMARK INTER:                  -7.908
REMARK INTRA:                  -0.389
REMARK UNBOUND:                -0.213
REMARK  Name = cpd167.pdb
REMARK  6 active torsions:
REMARK  status: ('A' for Active; 'I' for Inactive)
REMARK    1  A    between atoms: C_1  and  N_2
REMARK    2  A    between atoms: N_2  and  C_3
REMARK    3  A    between atoms: N_2  and  C_4
REMARK    4  A    between atoms: N_2  and  C_5
REMARK    5  A    between atoms: C_9  and  C_10
REMARK    6  A    between atoms: C_10  and  C_12
REMARK                            x       y       z     vdW  Elec       q    Type
REMARK                         _______ _______ _______ _____ _____    ______ ____
ROOT
ATOM      1  C   UNL A   1      45.731 -41.046 -29.835  0.00  0.00    +0.016 A 
ATOM      2  C   UNL A   1      44.763 -39.899 -29.770  0.00  0.00    -0.042 A 
ATOM      3  C   UNL A   1      45.137 -38.576 -29.496  0.00  0.00    -0.059 A 
ATOM      4  C   UNL A   1      46.475 -38.239 -29.262  0.00  0.00    -0.051 A 
ATOM      5  C   UNL A   1      47.482 -39.208 -29.291  0.00  0.00    +0.028 A 
ATOM      6  C   UNL A   1      47.137 -40.553 -29.564  0.00  0.00    -0.031 A 
ENDROOT
BRANCH   1   8
ATOM      7  C   UNL A   1      45.958 -41.932 -30.914  0.00  0.00    -0.015 C 
ATOM      8  N   UNL A   1      45.492 -41.997 -30.031  0.00  0.00    -0.390 NA
ATOM      9  C   UNL A   1      45.252 -42.948 -30.228  0.00  0.00    -0.015 C 
ATOM     10  C   UNL A   1      45.026 -42.062 -29.149  0.00  0.00    -0.015 C 
ENDBRANCH   1   8
BRANCH   5  11
ATOM     11  C   UNL A   1      48.924 -38.896 -29.049  0.00  0.00    +0.265 C 
ATOM     12  O   UNL A   1      49.296 -38.837 -27.875  0.00  0.00    -0.283 OA
BRANCH  11  13
ATOM     13  C   UNL A   1      49.838 -38.673 -30.247  0.00  0.00    +0.455 C 
ATOM     14  F   UNL A   1      51.151 -38.728 -29.895  0.00  0.00    -0.163 F 
ATOM     15  F   UNL A   1      49.645 -37.444 -30.804  0.00  0.00    -0.163 F 
ATOM     16  F   UNL A   1      49.659 -39.582 -31.238  0.00  0.00    -0.163 F 
ENDBRANCH  11  13
ENDBRANCH   5  11
TORSDOF 3
ENDMDL
MODEL 6
REMARK VINA RESULT:    -6.774     34.630     35.772
REMARK INTER + INTRA:          -8.175
REMARK INTER:                  -7.919
REMARK INTRA:                  -0.256
REMARK UNBOUND:                -0.213
REMARK  Name = cpd167.pdb
REMARK  6 active torsions:
REMARK  status: ('A' for Active; 'I' for Inactive)
REMARK    1  A    between atoms: C_1  and  N_2
REMARK    2  A    between atoms: N_2  and  C_3
REMARK    3  A    between atoms: N_2  and  C_4
REMARK    4  A    between atoms: N_2  and  C_5
REMARK    5  A    between atoms: C_9  and  C_10
REMARK    6  A    between atoms: C_10  and  C_12
REMARK                            x       y       z     vdW  Elec       q    Type
REMARK                         _______ _______ _______ _____ _____    ______ ____
ROOT
ATOM      1  C   UNL A   1      37.542 -36.521 -30.730  0.00  0.00    +0.016 A 
ATOM      2  C   UNL A   1      37.824 -35.444 -31.738  0.00  0.00    -0.042 A 
ATOM      3  C   UNL A   1      39.111 -35.107 -32.181  0.00  0.00    -0.059 A 
ATOM      4  C   UNL A   1      40.239 -35.778 -31.695  0.00  0.00    -0.051 A 
ATOM      5  C   UNL A   1      40.122 -36.804 -30.752  0.00  0.00    +0.028 A 
ATOM      6  C   UNL A   1      38.836 -37.166 -30.284  0.00  0.00    -0.031 A 
ENDROOT
BRANCH   1   8
ATOM      7  C   UNL A   1      36.774 -37.709 -30.752  0.00  0.00    -0.015 C 
ATOM      8  N   UNL A   1      36.635 -36.783 -30.400  0.00  0.00    -0.390 NA
ATOM      9  C   UNL A   1      35.728 -37.045 -30.070  0.00  0.00    -0.015 C 
ATOM     10  C   UNL A   1      36.496 -35.858 -30.048  0.00  0.00    -0.015 C 
ENDBRANCH   1   8
BRANCH   5  11
ATOM     11  C   UNL A   1      41.297 -37.551 -30.206  0.00  0.00    +0.265 C 
ATOM     12  O   UNL A   1      41.214 -37.952 -29.043  0.00  0.00    -0.283 OA
BRANCH  11  13
ATOM     13  C   UNL A   1      42.508 -37.771 -31.103  0.00  0.00    +0.455 C 
ATOM     14  F   UNL A   1      43.225 -38.862 -30.721  0.00  0.00    -0.163 F 
ATOM     15  F   UNL A   1      43.367 -36.715 -31.054  0.00  0.00    -0.163 F 
ATOM     16  F   UNL A   1      42.185 -37.951 -32.409  0.00  0.00    -0.163 F 
ENDBRANCH  11  13
ENDBRANCH   5  11
TORSDOF 3
ENDMDL
MODEL 7
REMARK VINA RESULT:    -6.431      3.244      4.874
REMARK INTER + INTRA:          -7.772
REMARK INTER:                  -7.467
REMARK INTRA:                  -0.305
REMARK UNBOUND:                -0.213
REMARK  Name = cpd167.pdb
REMARK  6 active torsions:
REMARK  status: ('A' for Active; 'I' for Inactive)
REMARK    1  A    between atoms: C_1  and  N_2
REMARK    2  A    between atoms: N_2  and  C_3
REMARK    3  A    between atoms: N_2  and  C_4
REMARK    4  A    between atoms: N_2  and  C_5
REMARK    5  A    between atoms: C_9  and  C_10
REMARK    6  A    between atoms: C_10  and  C_12
REMARK                            x       y       z     vdW  Elec       q    Type
REMARK                         _______ _______ _______ _____ _____    ______ ____
ROOT
ATOM      1  C   UNL A   1      63.950 -26.116  -6.055  0.00  0.00    +0.016 A 
ATOM      2  C   UNL A   1      64.575 -25.308  -4.954  0.00  0.00    -0.042 A 
ATOM      3  C   UNL A   1      64.905 -23.950  -5.074  0.00  0.00    -0.059 A 
ATOM      4  C   UNL A   1      64.661 -23.251  -6.260  0.00  0.00    -0.051 A 
ATOM      5  C   UNL A   1      64.083 -23.880  -7.367  0.00  0.00    +0.028 A 
ATOM      6  C   UNL A   1      63.739 -25.250  -7.279  0.00  0.00    -0.031 A 
ENDROOT
BRANCH   1   8
ATOM      7  C   UNL A   1      62.866 -26.839  -5.505  0.00  0.00    -0.015 C 
ATOM      8  N   UNL A   1      63.702 -27.083  -5.996  0.00  0.00    -0.390 NA
ATOM      9  C   UNL A   1      63.454 -28.050  -5.936  0.00  0.00    -0.015 C 
ATOM     10  C   UNL A   1      64.538 -27.328  -6.486  0.00  0.00    -0.015 C 
ENDBRANCH   1   8
BRANCH   5  11
ATOM     11  C   UNL A   1      63.801 -23.174  -8.655  0.00  0.00    +0.265 C 
ATOM     12  O   UNL A   1      63.372 -22.020  -8.579  0.00  0.00    -0.283 OA
BRANCH  11  13
ATOM     13  C   UNL A   1      64.059 -23.907  -9.965  0.00  0.00    +0.455 C 
ATOM     14  F   UNL A   1      65.204 -24.641  -9.913  0.00  0.00    -0.163 F 
ATOM     15  F   UNL A   1      64.210 -23.039 -11.004  0.00  0.00    -0.163 F 
ATOM     16  F   UNL A   1      63.062 -24.759 -10.311  0.00  0.00    -0.163 F 
ENDBRANCH  11  13
ENDBRANCH   5  11
TORSDOF 3
ENDMDL
MODEL 8
REMARK VINA RESULT:    -6.398      1.277      2.616
REMARK INTER + INTRA:          -7.733
REMARK INTER:                  -7.252
REMARK INTRA:                  -0.480
REMARK UNBOUND:                -0.213
REMARK  Name = cpd167.pdb
REMARK  6 active torsions:
REMARK  status: ('A' for Active; 'I' for Inactive)
REMARK    1  A    between atoms: C_1  and  N_2
REMARK    2  A    between atoms: N_2  and  C_3
REMARK    3  A    between atoms: N_2  and  C_4
REMARK    4  A    between atoms: N_2  and  C_5
REMARK    5  A    between atoms: C_9  and  C_10
REMARK    6  A    between atoms: C_10  and  C_12
REMARK                            x       y       z     vdW  Elec       q    Type
REMARK                         _______ _______ _______ _____ _____    ______ ____
ROOT
ATOM      1  C   UNL A   1      63.836 -22.947  -6.512  0.00  0.00    +0.016 A 
ATOM      2  C   UNL A   1      63.406 -22.816  -7.946  0.00  0.00    -0.042 A 
ATOM      3  C   UNL A   1      63.349 -23.892  -8.844  0.00  0.00    -0.059 A 
ATOM      4  C   UNL A   1      63.697 -25.186  -8.443  0.00  0.00    -0.051 A 
ATOM      5  C   UNL A   1      64.115 -25.451  -7.136  0.00  0.00    +0.028 A 
ATOM      6  C   UNL A   1      64.185 -24.387  -6.205  0.00  0.00    -0.031 A 
ENDROOT
BRANCH   1   8
ATOM      7  C   UNL A   1      63.004 -22.482  -5.468  0.00  0.00    -0.015 C 
ATOM      8  N   UNL A   1      63.883 -22.199  -5.851  0.00  0.00    -0.390 NA
ATOM      9  C   UNL A   1      63.930 -21.451  -5.189  0.00  0.00    -0.015 C 
ATOM     10  C   UNL A   1      64.763 -21.916  -6.233  0.00  0.00    -0.015 C 
ENDBRANCH   1   8
BRANCH   5  11
ATOM     11  C   UNL A   1      64.495 -26.817  -6.660  0.00  0.00    +0.265 C 
ATOM     12  O   UNL A   1      65.691 -27.115  -6.708  0.00  0.00    -0.283 OA
BRANCH  11  13
ATOM     13  C   UNL A   1      63.402 -27.748  -6.152  0.00  0.00    +0.455 C 
ATOM     14  F   UNL A   1      62.306 -27.723  -6.958  0.00  0.00    -0.163 F 
ATOM     15  F   UNL A   1      62.970 -27.384  -4.912  0.00  0.00    -0.163 F 
ATOM     16  F   UNL A   1      63.794 -29.043  -6.063  0.00  0.00    -0.163 F 
ENDBRANCH  11  13
ENDBRANCH   5  11
TORSDOF 3
ENDMDL
MODEL 9
REMARK VINA RESULT:    -6.290     35.105     36.177
REMARK INTER + INTRA:          -7.607
REMARK INTER:                  -7.251
REMARK INTRA:                  -0.355
REMARK UNBOUND:                -0.213
REMARK  Name = cpd167.pdb
REMARK  6 active torsions:
REMARK  status: ('A' for Active; 'I' for Inactive)
REMARK    1  A    between atoms: C_1  and  N_2
REMARK    2  A    between atoms: N_2  and  C_3
REMARK    3  A    between atoms: N_2  and  C_4
REMARK    4  A    between atoms: N_2  and  C_5
REMARK    5  A    between atoms: C_9  and  C_10
REMARK    6  A    between atoms: C_10  and  C_12
REMARK                            x       y       z     vdW  Elec       q    Type
REMARK                         _______ _______ _______ _____ _____    ______ ____
ROOT
ATOM      1  C   UNL A   1      39.453 -35.872 -31.507  0.00  0.00    +0.016 A 
ATOM      2  C   UNL A   1      38.235 -35.012 -31.696  0.00  0.00    -0.042 A 
ATOM      3  C   UNL A   1      37.045 -35.175 -30.972  0.00  0.00    -0.059 A 
ATOM      4  C   UNL A   1      36.923 -36.177 -30.003  0.00  0.00    -0.051 A 
ATOM      5  C   UNL A   1      37.979 -37.049 -29.724  0.00  0.00    +0.028 A 
ATOM      6  C   UNL A   1      39.193 -36.911 -30.438  0.00  0.00    -0.031 A 
ENDROOT
BRANCH   1   8
ATOM      7  C   UNL A   1      40.805 -35.679 -31.141  0.00  0.00    -0.015 C 
ATOM      8  N   UNL A   1      40.314 -35.775 -32.007  0.00  0.00    -0.390 NA
ATOM      9  C   UNL A   1      41.175 -35.678 -32.506  0.00  0.00    -0.015 C 
ATOM     10  C   UNL A   1      39.822 -35.871 -32.872  0.00  0.00    -0.015 C 
ENDBRANCH   1   8
BRANCH   5  11
ATOM     11  C   UNL A   1      37.895 -38.132 -28.697  0.00  0.00    +0.265 C 
ATOM     12  O   UNL A   1      38.597 -38.006 -27.690  0.00  0.00    -0.283 OA
BRANCH  11  13
ATOM     13  C   UNL A   1      36.962 -39.310 -28.946  0.00  0.00    +0.455 C 
ATOM     14  F   UNL A   1      36.550 -39.358 -30.243  0.00  0.00    -0.163 F 
ATOM     15  F   UNL A   1      35.832 -39.224 -28.191  0.00  0.00    -0.163 F 
ATOM     16  F   UNL A   1      37.526 -40.513 -28.670  0.00  0.00    -0.163 F 
ENDBRANCH  11  13
ENDBRANCH   5  11
TORSDOF 3
ENDMDL
MODEL 10
REMARK VINA RESULT:    -5.942      2.966      4.572
REMARK INTER + INTRA:          -7.197
REMARK INTER:                  -6.693
REMARK INTRA:                  -0.504
REMARK UNBOUND:                -0.213
REMARK  Name = cpd167.pdb
REMARK  6 active torsions:
REMARK  status: ('A' for Active; 'I' for Inactive)
REMARK    1  A    between atoms: C_1  and  N_2
REMARK    2  A    between atoms: N_2  and  C_3
REMARK    3  A    between atoms: N_2  and  C_4
REMARK    4  A    between atoms: N_2  and  C_5
REMARK    5  A    between atoms: C_9  and  C_10
REMARK    6  A    between atoms: C_10  and  C_12
REMARK                            x       y       z     vdW  Elec       q    Type
REMARK                         _______ _______ _______ _____ _____    ______ ____
ROOT
ATOM      1  C   UNL A   1      64.285 -23.787  -5.108  0.00  0.00    +0.016 A 
ATOM      2  C   UNL A   1      64.071 -25.193  -4.623  0.00  0.00    -0.042 A 
ATOM      3  C   UNL A   1      63.911 -26.296  -5.474  0.00  0.00    -0.059 A 
ATOM      4  C   UNL A   1      63.944 -26.144  -6.864  0.00  0.00    -0.051 A 
ATOM      5  C   UNL A   1      64.136 -24.891  -7.452  0.00  0.00    +0.028 A 
ATOM      6  C   UNL A   1      64.300 -23.757  -6.621  0.00  0.00    -0.031 A 
ENDROOT
BRANCH   1   8
ATOM      7  C   UNL A   1      63.426 -22.792  -4.587  0.00  0.00    -0.015 C 
ATOM      8  N   UNL A   1      64.405 -22.984  -4.524  0.00  0.00    -0.390 NA
ATOM      9  C   UNL A   1      64.525 -22.182  -3.940  0.00  0.00    -0.015 C 
ATOM     10  C   UNL A   1      65.384 -23.177  -4.460  0.00  0.00    -0.015 C 
ENDBRANCH   1   8
BRANCH   5  11
ATOM     11  C   UNL A   1      64.181 -24.680  -8.932  0.00  0.00    +0.265 C 
ATOM     12  O   UNL A   1      65.212 -25.025  -9.516  0.00  0.00    -0.283 OA
BRANCH  11  13
ATOM     13  C   UNL A   1      62.972 -24.065  -9.623  0.00  0.00    +0.455 C 
ATOM     14  F   UNL A   1      63.185 -22.758  -9.940  0.00  0.00    -0.163 F 
ATOM     15  F   UNL A   1      61.871 -24.086  -8.821  0.00  0.00    -0.163 F 
ATOM     16  F   UNL A   1      62.628 -24.696 -10.774  0.00  0.00    -0.163 F 
ENDBRANCH  11  13
ENDBRANCH   5  11
TORSDOF 3
ENDMDL
MODEL 11
REMARK VINA RESULT:    -5.889     37.809     38.717
REMARK INTER + INTRA:          -7.135
REMARK INTER:                  -6.631
REMARK INTRA:                  -0.504
REMARK UNBOUND:                -0.213
REMARK  Name = cpd167.pdb
REMARK  6 active torsions:
REMARK  status: ('A' for Active; 'I' for Inactive)
REMARK    1  A    between atoms: C_1  and  N_2
REMARK    2  A    between atoms: N_2  and  C_3
REMARK    3  A    between atoms: N_2  and  C_4
REMARK    4  A    between atoms: N_2  and  C_5
REMARK    5  A    between atoms: C_9  and  C_10
REMARK    6  A    between atoms: C_10  and  C_12
REMARK                            x       y       z     vdW  Elec       q    Type
REMARK                         _______ _______ _______ _____ _____    ______ ____
ROOT
ATOM      1  C   UNL A   1      45.398 -18.163 -40.825  0.00  0.00    +0.016 A 
ATOM      2  C   UNL A   1      44.286 -18.337 -41.821  0.00  0.00    -0.042 A 
ATOM      3  C   UNL A   1      44.224 -19.389 -42.746  0.00  0.00    -0.059 A 
ATOM      4  C   UNL A   1      45.224 -20.366 -42.794  0.00  0.00    -0.051 A 
ATOM      5  C   UNL A   1      46.317 -20.328 -41.924  0.00  0.00    +0.028 A 
ATOM      6  C   UNL A   1      46.410 -19.278 -40.980  0.00  0.00    -0.031 A 
ENDROOT
BRANCH   1   8
ATOM      7  C   UNL A   1      45.965 -16.868 -40.816  0.00  0.00    -0.015 C 
ATOM      8  N   UNL A   1      45.465 -17.426 -40.154  0.00  0.00    -0.390 NA
ATOM      9  C   UNL A   1      45.532 -16.688 -39.482  0.00  0.00    -0.015 C 
ATOM     10  C   UNL A   1      44.965 -17.983 -39.491  0.00  0.00    -0.015 C 
ENDBRANCH   1   8
BRANCH   5  11
ATOM     11  C   UNL A   1      47.408 -21.351 -41.937  0.00  0.00    +0.265 C 
ATOM     12  O   UNL A   1      48.563 -20.937 -42.063  0.00  0.00    -0.283 OA
BRANCH  11  13
ATOM     13  C   UNL A   1      47.037 -22.821 -41.794  0.00  0.00    +0.455 C 
ATOM     14  F   UNL A   1      46.115 -23.013 -40.812  0.00  0.00    -0.163 F 
ATOM     15  F   UNL A   1      48.117 -23.581 -41.457  0.00  0.00    -0.163 F 
ATOM     16  F   UNL A   1      46.520 -23.359 -42.927  0.00  0.00    -0.163 F 
ENDBRANCH  11  13
ENDBRANCH   5  11
TORSDOF 3
ENDMDL
MODEL 12
REMARK VINA RESULT:    -5.870      2.267      3.294
REMARK INTER + INTRA:          -7.112
REMARK INTER:                  -6.717
REMARK INTRA:                  -0.396
REMARK UNBOUND:                -0.213
REMARK  Name = cpd167.pdb
REMARK  6 active torsions:
REMARK  status: ('A' for Active; 'I' for Inactive)
REMARK    1  A    between atoms: C_1  and  N_2
REMARK    2  A    between atoms: N_2  and  C_3
REMARK    3  A    between atoms: N_2  and  C_4
REMARK    4  A    between atoms: N_2  and  C_5
REMARK    5  A    between atoms: C_9  and  C_10
REMARK    6  A    between atoms: C_10  and  C_12
REMARK                            x       y       z     vdW  Elec       q    Type
REMARK                         _______ _______ _______ _____ _____    ______ ____
ROOT
ATOM      1  C   UNL A   1      63.372 -21.670  -8.670  0.00  0.00    +0.016 A 
ATOM      2  C   UNL A   1      63.395 -21.977 -10.141  0.00  0.00    -0.042 A 
ATOM      3  C   UNL A   1      63.453 -23.277 -10.666  0.00  0.00    -0.059 A 
ATOM      4  C   UNL A   1      63.492 -24.393  -9.824  0.00  0.00    -0.051 A 
ATOM      5  C   UNL A   1      63.476 -24.253  -8.433  0.00  0.00    +0.028 A 
ATOM      6  C   UNL A   1      63.419 -22.955  -7.872  0.00  0.00    -0.031 A 
ENDROOT
BRANCH   1   8
ATOM      7  C   UNL A   1      64.177 -20.931  -7.774  0.00  0.00    -0.015 C 
ATOM      8  N   UNL A   1      63.327 -20.755  -8.270  0.00  0.00    -0.390 NA
ATOM      9  C   UNL A   1      63.283 -19.840  -7.869  0.00  0.00    -0.015 C 
ATOM     10  C   UNL A   1      62.477 -20.579  -8.766  0.00  0.00    -0.015 C 
ENDBRANCH   1   8
BRANCH   5  11
ATOM     11  C   UNL A   1      63.514 -25.416  -7.494  0.00  0.00    +0.265 C 
ATOM     12  O   UNL A   1      62.441 -25.972  -7.246  0.00  0.00    -0.283 OA
BRANCH  11  13
ATOM     13  C   UNL A   1      64.853 -25.842  -6.907  0.00  0.00    +0.455 C 
ATOM     14  F   UNL A   1      64.966 -25.484  -5.599  0.00  0.00    -0.163 F 
ATOM     15  F   UNL A   1      65.896 -25.250  -7.554  0.00  0.00    -0.163 F 
ATOM     16  F   UNL A   1      65.067 -27.181  -6.967  0.00  0.00    -0.163 F 
ENDBRANCH  11  13
ENDBRANCH   5  11
TORSDOF 3
ENDMDL
MODEL 13
REMARK VINA RESULT:    -5.831     37.349     38.288
REMARK INTER + INTRA:          -7.067
REMARK INTER:                  -6.541
REMARK INTRA:                  -0.525
REMARK UNBOUND:                -0.213
REMARK  Name = cpd167.pdb
REMARK  6 active torsions:
REMARK  status: ('A' for Active; 'I' for Inactive)
REMARK    1  A    between atoms: C_1  and  N_2
REMARK    2  A    between atoms: N_2  and  C_3
REMARK    3  A    between atoms: N_2  and  C_4
REMARK    4  A    between atoms: N_2  and  C_5
REMARK    5  A    between atoms: C_9  and  C_10
REMARK    6  A    between atoms: C_10  and  C_12
REMARK                            x       y       z     vdW  Elec       q    Type
REMARK                         _______ _______ _______ _____ _____    ______ ____
ROOT
ATOM      1  C   UNL A   1      44.356 -20.543 -40.270  0.00  0.00    +0.016 A 
ATOM      2  C   UNL A   1      43.514 -21.187 -41.334  0.00  0.00    -0.042 A 
ATOM      3  C   UNL A   1      44.040 -21.919 -42.409  0.00  0.00    -0.059 A 
ATOM      4  C   UNL A   1      45.420 -22.096 -42.552  0.00  0.00    -0.051 A 
ATOM      5  C   UNL A   1      46.321 -21.551 -41.633  0.00  0.00    +0.028 A 
ATOM      6  C   UNL A   1      45.822 -20.806 -40.538  0.00  0.00    -0.031 A 
ENDROOT
BRANCH   1   8
ATOM      7  C   UNL A   1      44.086 -19.176 -40.025  0.00  0.00    -0.015 C 
ATOM      8  N   UNL A   1      44.007 -20.019 -39.492  0.00  0.00    -0.390 NA
ATOM      9  C   UNL A   1      43.658 -19.496 -38.715  0.00  0.00    -0.015 C 
ATOM     10  C   UNL A   1      43.928 -20.862 -38.960  0.00  0.00    -0.015 C 
ENDBRANCH   1   8
BRANCH   5  11
ATOM     11  C   UNL A   1      47.803 -21.717 -41.743  0.00  0.00    +0.265 C 
ATOM     12  O   UNL A   1      48.454 -20.724 -42.080  0.00  0.00    -0.283 OA
BRANCH  11  13
ATOM     13  C   UNL A   1      48.414 -23.078 -41.438  0.00  0.00    +0.455 C 
ATOM     14  F   UNL A   1      48.528 -23.840 -42.560  0.00  0.00    -0.163 F 
ATOM     15  F   UNL A   1      47.644 -23.791 -40.570  0.00  0.00    -0.163 F 
ATOM     16  F   UNL A   1      49.653 -23.002 -40.889  0.00  0.00    -0.163 F 
ENDBRANCH  11  13
ENDBRANCH   5  11
TORSDOF 3
ENDMDL
MODEL 14
REMARK VINA RESULT:    -5.747     37.323     38.696
REMARK INTER + INTRA:          -6.968
REMARK INTER:                  -6.504
REMARK INTRA:                  -0.464
REMARK UNBOUND:                -0.213
REMARK  Name = cpd167.pdb
REMARK  6 active torsions:
REMARK  status: ('A' for Active; 'I' for Inactive)
REMARK    1  A    between atoms: C_1  and  N_2
REMARK    2  A    between atoms: N_2  and  C_3
REMARK    3  A    between atoms: N_2  and  C_4
REMARK    4  A    between atoms: N_2  and  C_5
REMARK    5  A    between atoms: C_9  and  C_10
REMARK    6  A    between atoms: C_10  and  C_12
REMARK                            x       y       z     vdW  Elec       q    Type
REMARK                         _______ _______ _______ _____ _____    ______ ____
ROOT
ATOM      1  C   UNL A   1      46.472 -21.880 -41.019  0.00  0.00    +0.016 A 
ATOM      2  C   UNL A   1      46.391 -20.744 -41.999  0.00  0.00    -0.042 A 
ATOM      3  C   UNL A   1      45.264 -19.923 -42.150  0.00  0.00    -0.059 A 
ATOM      4  C   UNL A   1      44.118 -20.122 -41.372  0.00  0.00    -0.051 A 
ATOM      5  C   UNL A   1      44.056 -21.143 -40.420  0.00  0.00    +0.028 A 
ATOM      6  C   UNL A   1      45.176 -21.990 -40.244  0.00  0.00    -0.031 A 
ENDROOT
BRANCH   1   8
ATOM      7  C   UNL A   1      46.944 -23.063 -41.633  0.00  0.00    -0.015 C 
ATOM      8  N   UNL A   1      47.263 -22.478 -40.888  0.00  0.00    -0.390 NA
ATOM      9  C   UNL A   1      48.054 -23.076 -40.757  0.00  0.00    -0.015 C 
ATOM     10  C   UNL A   1      47.582 -21.892 -40.143  0.00  0.00    -0.015 C 
ENDBRANCH   1   8
BRANCH   5  11
ATOM     11  C   UNL A   1      42.855 -21.392 -39.565  0.00  0.00    +0.265 C 
ATOM     12  O   UNL A   1      42.969 -21.165 -38.358  0.00  0.00    -0.283 OA
BRANCH  11  13
ATOM     13  C   UNL A   1      41.579 -21.901 -40.222  0.00  0.00    +0.455 C 
ATOM     14  F   UNL A   1      40.573 -20.988 -40.141  0.00  0.00    -0.163 F 
ATOM     15  F   UNL A   1      41.117 -23.030 -39.615  0.00  0.00    -0.163 F 
ATOM     16  F   UNL A   1      41.732 -22.200 -41.537  0.00  0.00    -0.163 F 
ENDBRANCH  11  13
ENDBRANCH   5  11
TORSDOF 3
ENDMDL
MODEL 15
REMARK VINA RESULT:    -5.736     36.753     38.188
REMARK INTER + INTRA:          -6.954
REMARK INTER:                  -6.631
REMARK INTRA:                  -0.323
REMARK UNBOUND:                -0.213
REMARK  Name = cpd167.pdb
REMARK  6 active torsions:
REMARK  status: ('A' for Active; 'I' for Inactive)
REMARK    1  A    between atoms: C_1  and  N_2
REMARK    2  A    between atoms: N_2  and  C_3
REMARK    3  A    between atoms: N_2  and  C_4
REMARK    4  A    between atoms: N_2  and  C_5
REMARK    5  A    between atoms: C_9  and  C_10
REMARK    6  A    between atoms: C_10  and  C_12
REMARK                            x       y       z     vdW  Elec       q    Type
REMARK                         _______ _______ _______ _____ _____    ______ ____
ROOT
ATOM      1  C   UNL A   1      45.186 -19.807 -40.112  0.00  0.00    +0.016 A 
ATOM      2  C   UNL A   1      44.359 -19.336 -41.275  0.00  0.00    -0.042 A 
ATOM      3  C   UNL A   1      44.368 -19.947 -42.537  0.00  0.00    -0.059 A 
ATOM      4  C   UNL A   1      45.172 -21.063 -42.792  0.00  0.00    -0.051 A 
ATOM      5  C   UNL A   1      45.993 -21.607 -41.799  0.00  0.00    +0.028 A 
ATOM      6  C   UNL A   1      46.007 -21.013 -40.515  0.00  0.00    -0.031 A 
ENDROOT
BRANCH   1   8
ATOM      7  C   UNL A   1      46.019 -18.879 -39.445  0.00  0.00    -0.015 C 
ATOM      8  N   UNL A   1      45.196 -19.392 -39.202  0.00  0.00    -0.390 NA
ATOM      9  C   UNL A   1      45.206 -18.978 -38.292  0.00  0.00    -0.015 C 
ATOM     10  C   UNL A   1      44.372 -19.906 -38.960  0.00  0.00    -0.015 C 
ENDBRANCH   1   8
BRANCH   5  11
ATOM     11  C   UNL A   1      46.867 -22.800 -42.024  0.00  0.00    +0.265 C 
ATOM     12  O   UNL A   1      46.369 -23.753 -42.627  0.00  0.00    -0.283 OA
BRANCH  11  13
ATOM     13  C   UNL A   1      48.298 -22.768 -41.505  0.00  0.00    +0.455 C 
ATOM     14  F   UNL A   1      48.348 -22.949 -40.157  0.00  0.00    -0.163 F 
ATOM     15  F   UNL A   1      48.895 -21.568 -41.750  0.00  0.00    -0.163 F 
ATOM     16  F   UNL A   1      49.093 -23.719 -42.058  0.00  0.00    -0.163 F 
ENDBRANCH  11  13
ENDBRANCH   5  11
TORSDOF 3
ENDMDL
MODEL 16
REMARK VINA RESULT:    -5.683      3.890      5.263
REMARK INTER + INTRA:          -6.893
REMARK INTER:                  -6.661
REMARK INTRA:                  -0.233
REMARK UNBOUND:                -0.213
REMARK  Name = cpd167.pdb
REMARK  6 active torsions:
REMARK  status: ('A' for Active; 'I' for Inactive)
REMARK    1  A    between atoms: C_1  and  N_2
REMARK    2  A    between atoms: N_2  and  C_3
REMARK    3  A    between atoms: N_2  and  C_4
REMARK    4  A    between atoms: N_2  and  C_5
REMARK    5  A    between atoms: C_9  and  C_10
REMARK    6  A    between atoms: C_10  and  C_12
REMARK                            x       y       z     vdW  Elec       q    Type
REMARK                         _______ _______ _______ _____ _____    ______ ____
ROOT
ATOM      1  C   UNL A   1      63.984 -25.768  -6.714  0.00  0.00    +0.016 A 
ATOM      2  C   UNL A   1      63.820 -24.781  -5.594  0.00  0.00    -0.042 A 
ATOM      3  C   UNL A   1      63.551 -23.418  -5.788  0.00  0.00    -0.059 A 
ATOM      4  C   UNL A   1      63.414 -22.887  -7.075  0.00  0.00    -0.051 A 
ATOM      5  C   UNL A   1      63.542 -23.693  -8.209  0.00  0.00    +0.028 A 
ATOM      6  C   UNL A   1      63.815 -25.072  -8.048  0.00  0.00    -0.031 A 
ENDROOT
BRANCH   1   8
ATOM      7  C   UNL A   1      63.193 -26.923  -6.512  0.00  0.00    -0.015 C 
ATOM      8  N   UNL A   1      64.173 -26.744  -6.604  0.00  0.00    -0.390 NA
ATOM      9  C   UNL A   1      64.361 -27.720  -6.494  0.00  0.00    -0.015 C 
ATOM     10  C   UNL A   1      65.152 -26.565  -6.696  0.00  0.00    -0.015 C 
ENDBRANCH   1   8
BRANCH   5  11
ATOM     11  C   UNL A   1      63.402 -23.171  -9.604  0.00  0.00    +0.265 C 
ATOM     12  O   UNL A   1      63.522 -23.985 -10.522  0.00  0.00    -0.283 OA
BRANCH  11  13
ATOM     13  C   UNL A   1      63.121 -21.688  -9.807  0.00  0.00    +0.455 C 
ATOM     14  F   UNL A   1      61.837 -21.371  -9.484  0.00  0.00    -0.163 F 
ATOM     15  F   UNL A   1      63.288 -21.319 -11.108  0.00  0.00    -0.163 F 
ATOM     16  F   UNL A   1      63.922 -20.881  -9.066  0.00  0.00    -0.163 F 
ENDBRANCH  11  13
ENDBRANCH   5  11
TORSDOF 3
ENDMDL
MODEL 17
REMARK VINA RESULT:    -5.598     37.815     39.258
REMARK INTER + INTRA:          -6.793
REMARK INTER:                  -6.326
REMARK INTRA:                  -0.467
REMARK UNBOUND:                -0.213
REMARK  Name = cpd167.pdb
REMARK  6 active torsions:
REMARK  status: ('A' for Active; 'I' for Inactive)
REMARK    1  A    between atoms: C_1  and  N_2
REMARK    2  A    between atoms: N_2  and  C_3
REMARK    3  A    between atoms: N_2  and  C_4
REMARK    4  A    between atoms: N_2  and  C_5
REMARK    5  A    between atoms: C_9  and  C_10
REMARK    6  A    between atoms: C_10  and  C_12
REMARK                            x       y       z     vdW  Elec       q    Type
REMARK                         _______ _______ _______ _____ _____    ______ ____
ROOT
ATOM      1  C   UNL A   1      46.418 -21.698 -41.617  0.00  0.00    +0.016 A 
ATOM      2  C   UNL A   1      45.404 -22.012 -42.680  0.00  0.00    -0.042 A 
ATOM      3  C   UNL A   1      44.494 -21.076 -43.191  0.00  0.00    -0.059 A 
ATOM      4  C   UNL A   1      44.480 -19.756 -42.727  0.00  0.00    -0.051 A 
ATOM      5  C   UNL A   1      45.370 -19.326 -41.738  0.00  0.00    +0.028 A 
ATOM      6  C   UNL A   1      46.300 -20.247 -41.201  0.00  0.00    -0.031 A 
ENDROOT
BRANCH   1   8
ATOM      7  C   UNL A   1      46.378 -22.700 -40.620  0.00  0.00    -0.015 C 
ATOM      8  N   UNL A   1      47.080 -22.344 -41.238  0.00  0.00    -0.390 NA
ATOM      9  C   UNL A   1      47.742 -22.991 -40.859  0.00  0.00    -0.015 C 
ATOM     10  C   UNL A   1      47.781 -21.989 -41.856  0.00  0.00    -0.015 C 
ENDBRANCH   1   8
BRANCH   5  11
ATOM     11  C   UNL A   1      45.394 -17.926 -41.212  0.00  0.00    +0.265 C 
ATOM     12  O   UNL A   1      46.500 -17.396 -41.080  0.00  0.00    -0.283 OA
BRANCH  11  13
ATOM     13  C   UNL A   1      44.073 -17.246 -40.877  0.00  0.00    +0.455 C 
ATOM     14  F   UNL A   1      43.456 -16.771 -41.993  0.00  0.00    -0.163 F 
ATOM     15  F   UNL A   1      44.255 -16.173 -40.058  0.00  0.00    -0.163 F 
ATOM     16  F   UNL A   1      43.187 -18.065 -40.257  0.00  0.00    -0.163 F 
ENDBRANCH  11  13
ENDBRANCH   5  11
TORSDOF 3
ENDMDL
MODEL 18
REMARK VINA RESULT:    -5.294     34.790     36.573
REMARK INTER + INTRA:          -6.435
REMARK INTER:                  -5.980
REMARK INTRA:                  -0.455
REMARK UNBOUND:                -0.213
REMARK  Name = cpd167.pdb
REMARK  6 active torsions:
REMARK  status: ('A' for Active; 'I' for Inactive)
REMARK    1  A    between atoms: C_1  and  N_2
REMARK    2  A    between atoms: N_2  and  C_3
REMARK    3  A    between atoms: N_2  and  C_4
REMARK    4  A    between atoms: N_2  and  C_5
REMARK    5  A    between atoms: C_9  and  C_10
REMARK    6  A    between atoms: C_10  and  C_12
REMARK                            x       y       z     vdW  Elec       q    Type
REMARK                         _______ _______ _______ _____ _____    ______ ____
ROOT
ATOM      1  C   UNL A   1      46.468 -19.637 -37.916  0.00  0.00    +0.016 A 
ATOM      2  C   UNL A   1      46.606 -18.329 -38.643  0.00  0.00    -0.042 A 
ATOM      3  C   UNL A   1      46.834 -18.224 -40.023  0.00  0.00    -0.059 A 
ATOM      4  C   UNL A   1      46.947 -19.365 -40.824  0.00  0.00    -0.051 A 
ATOM      5  C   UNL A   1      46.838 -20.647 -40.278  0.00  0.00    +0.028 A 
ATOM      6  C   UNL A   1      46.610 -20.788 -38.889  0.00  0.00    -0.031 A 
ENDROOT
BRANCH   1   8
ATOM      7  C   UNL A   1      45.381 -20.078 -37.127  0.00  0.00    -0.015 C 
ATOM      8  N   UNL A   1      46.302 -19.740 -36.935  0.00  0.00    -0.390 NA
ATOM      9  C   UNL A   1      46.137 -19.844 -35.955  0.00  0.00    -0.015 C 
ATOM     10  C   UNL A   1      47.224 -19.402 -36.744  0.00  0.00    -0.015 C 
ENDBRANCH   1   8
BRANCH   5  11
ATOM     11  C   UNL A   1      46.950 -21.895 -41.094  0.00  0.00    +0.265 C 
ATOM     12  O   UNL A   1      45.924 -22.295 -41.650  0.00  0.00    -0.283 OA
BRANCH  11  13
ATOM     13  C   UNL A   1      48.302 -22.589 -41.193  0.00  0.00    +0.455 C 
ATOM     14  F   UNL A   1      48.317 -23.523 -42.183  0.00  0.00    -0.163 F 
ATOM     15  F   UNL A   1      48.612 -23.250 -40.042  0.00  0.00    -0.163 F 
ATOM     16  F   UNL A   1      49.328 -21.737 -41.443  0.00  0.00    -0.163 F 
ENDBRANCH  11  13
ENDBRANCH   5  11
TORSDOF 3
ENDMDL
MODEL 19
REMARK VINA RESULT:    -5.283     37.463     38.590
REMARK INTER + INTRA:          -6.423
REMARK INTER:                  -5.977
REMARK INTRA:                  -0.445
REMARK UNBOUND:                -0.213
REMARK  Name = cpd167.pdb
REMARK  6 active torsions:
REMARK  status: ('A' for Active; 'I' for Inactive)
REMARK    1  A    between atoms: C_1  and  N_2
REMARK    2  A    between atoms: N_2  and  C_3
REMARK    3  A    between atoms: N_2  and  C_4
REMARK    4  A    between atoms: N_2  and  C_5
REMARK    5  A    between atoms: C_9  and  C_10
REMARK    6  A    between atoms: C_10  and  C_12
REMARK                            x       y       z     vdW  Elec       q    Type
REMARK                         _______ _______ _______ _____ _____    ______ ____
ROOT
ATOM      1  C   UNL A   1      46.394 -21.368 -41.629  0.00  0.00    +0.016 A 
ATOM      2  C   UNL A   1      45.408 -21.309 -42.761  0.00  0.00    -0.042 A 
ATOM      3  C   UNL A   1      44.521 -20.242 -42.968  0.00  0.00    -0.059 A 
ATOM      4  C   UNL A   1      44.505 -19.140 -42.107  0.00  0.00    -0.051 A 
ATOM      5  C   UNL A   1      45.370 -19.064 -41.011  0.00  0.00    +0.028 A 
ATOM      6  C   UNL A   1      46.277 -20.124 -40.774  0.00  0.00    -0.031 A 
ENDROOT
BRANCH   1   8
ATOM      7  C   UNL A   1      47.781 -21.555 -41.833  0.00  0.00    -0.015 C 
ATOM      8  N   UNL A   1      47.039 -22.113 -41.461  0.00  0.00    -0.390 NA
ATOM      9  C   UNL A   1      47.684 -22.859 -41.292  0.00  0.00    -0.015 C 
ATOM     10  C   UNL A   1      46.297 -22.671 -41.088  0.00  0.00    -0.015 C 
ENDBRANCH   1   8
BRANCH   5  11
ATOM     11  C   UNL A   1      45.391 -17.906 -40.065  0.00  0.00    +0.265 C 
ATOM     12  O   UNL A   1      44.352 -17.671 -39.444  0.00  0.00    -0.283 OA
BRANCH  11  13
ATOM     13  C   UNL A   1      46.674 -17.098 -39.923  0.00  0.00    +0.455 C 
ATOM     14  F   UNL A   1      46.416 -15.781 -39.696  0.00  0.00    -0.163 F 
ATOM     15  F   UNL A   1      47.427 -17.148 -41.058  0.00  0.00    -0.163 F 
ATOM     16  F   UNL A   1      47.469 -17.522 -38.909  0.00  0.00    -0.163 F 
ENDBRANCH  11  13
ENDBRANCH   5  11
TORSDOF 3
ENDMDL
MODEL 20
REMARK VINA RESULT:    -5.200      3.358      4.834
REMARK INTER + INTRA:          -6.325
REMARK INTER:                  -5.895
REMARK INTRA:                  -0.429
REMARK UNBOUND:                -0.213
REMARK  Name = cpd167.pdb
REMARK  6 active torsions:
REMARK  status: ('A' for Active; 'I' for Inactive)
REMARK    1  A    between atoms: C_1  and  N_2
REMARK    2  A    between atoms: N_2  and  C_3
REMARK    3  A    between atoms: N_2  and  C_4
REMARK    4  A    between atoms: N_2  and  C_5
REMARK    5  A    between atoms: C_9  and  C_10
REMARK    6  A    between atoms: C_10  and  C_12
REMARK                            x       y       z     vdW  Elec       q    Type
REMARK                         _______ _______ _______ _____ _____    ______ ____
ROOT
ATOM      1  C   UNL A   1      63.204 -25.809  -6.937  0.00  0.00    +0.016 A 
ATOM      2  C   UNL A   1      63.094 -25.080  -8.246  0.00  0.00    -0.042 A 
ATOM      3  C   UNL A   1      63.248 -23.693  -8.383  0.00  0.00    -0.059 A 
ATOM      4  C   UNL A   1      63.522 -22.886  -7.273  0.00  0.00    -0.051 A 
ATOM      5  C   UNL A   1      63.651 -23.432  -5.993  0.00  0.00    +0.028 A 
ATOM      6  C   UNL A   1      63.501 -24.829  -5.822  0.00  0.00    -0.031 A 
ENDROOT
BRANCH   1   8
ATOM      7  C   UNL A   1      62.147 -26.734  -7.101  0.00  0.00    -0.015 C 
ATOM      8  N   UNL A   1      63.103 -26.796  -6.812  0.00  0.00    -0.390 NA
ATOM      9  C   UNL A   1      63.001 -27.783  -6.688  0.00  0.00    -0.015 C 
ATOM     10  C   UNL A   1      64.058 -26.857  -6.524  0.00  0.00    -0.015 C 
ENDBRANCH   1   8
BRANCH   5  11
ATOM     11  C   UNL A   1      63.946 -22.610  -4.779  0.00  0.00    +0.265 C 
ATOM     12  O   UNL A   1      63.066 -21.832  -4.402  0.00  0.00    -0.283 OA
BRANCH  11  13
ATOM     13  C   UNL A   1      65.292 -22.779  -4.088  0.00  0.00    +0.455 C 
ATOM     14  F   UNL A   1      65.656 -21.654  -3.414  0.00  0.00    -0.163 F 
ATOM     15  F   UNL A   1      66.289 -23.025  -4.984  0.00  0.00    -0.163 F 
ATOM     16  F   UNL A   1      65.314 -23.797  -3.191  0.00  0.00    -0.163 F 
ENDBRANCH  11  13
ENDBRANCH   5  11
TORSDOF 3
ENDMDL
