REMARK  Name = cpd167.pdb
REMARK  6 active torsions:
REMARK  status: ('A' for Active; 'I' for Inactive)
REMARK    1  A    between atoms: C_1  and  N_2
REMARK    2  A    between atoms: N_2  and  C_3
REMARK    3  A    between atoms: N_2  and  C_4
REMARK    4  A    between atoms: N_2  and  C_5
REMARK    5  A    between atoms: C_9  and  C_10
REMARK    6  A    between atoms: C_10  and  C_12
REMARK                            x       y       z     vdW  Elec       q    Type
REMARK                         _______ _______ _______ _____ _____    ______ ____
ROOT
ATOM      1  C   UNL A   1       0.000   0.000   0.000  0.00  0.00    +0.016 A 
ATOM      2  C   UNL A   1      -0.871  -0.004  -1.224  0.00  0.00    -0.042 A 
ATOM      3  C   UNL A   1      -2.273   0.001  -1.184  0.00  0.00    -0.059 A 
ATOM      4  C   UNL A   1      -2.959   0.012   0.035  0.00  0.00    -0.051 A 
ATOM      5  C   UNL A   1      -2.273   0.017   1.253  0.00  0.00    +0.028 A 
ATOM      6  C   UNL A   1      -0.858   0.011   1.247  0.00  0.00    -0.031 A 
ENDROOT
BRANCH   1   8
ATOM      7  C   UNL A   1       1.000  -1.000   0.000  0.00  0.00    -0.015 C 
ATOM      8  N   UNL A   1       1.000   0.000   0.000  0.00  0.00    -0.390 NA
ATOM      9  C   UNL A   1       2.000   0.000   0.000  0.00  0.00    -0.015 C 
ATOM     10  C   UNL A   1       1.000   1.000   0.000  0.00  0.00    -0.015 C 
ENDBRANCH   1   8
BRANCH   5  11
ATOM     11  C   UNL A   1      -2.963   0.031   2.580  0.00  0.00    +0.265 C 
ATOM     12  O   UNL A   1      -2.247   0.012   3.584  0.00  0.00    -0.283 OA
BRANCH  11  13
ATOM     13  C   UNL A   1      -4.485   0.069   2.615  0.00  0.00    +0.455 C 
ATOM     14  F   UNL A   1      -5.029  -1.013   1.994  0.00  0.00    -0.163 F 
ATOM     15  F   UNL A   1      -4.975   1.164   1.969  0.00  0.00    -0.163 F 
ATOM     16  F   UNL A   1      -4.995   0.097   3.872  0.00  0.00    -0.163 F 
ENDBRANCH  11  13
ENDBRANCH   5  11
TORSDOF 3
