@<TRIPOS>MOLECULE
*****
 16 16 0 0 0
SMALL
GASTEIGER

@<TRIPOS>ATOM
      1 C           1.0000   -1.0000    0.0000 C.3     1  UNL1        0.3353
      2 N           1.0000    0.0000    0.0000 N.pl3   1  UNL1       -0.3100
      3 C           2.0000    0.0000    0.0000 C.3     1  UNL1        0.3353
      4 C           1.0000    1.0000    0.0000 C.3     1  UNL1        0.3353
      5 C           0.0000    0.0000    0.0000 C.ar    1  UNL1        0.1660
      6 C          -0.5000   -0.8660    0.0000 C.ar    1  UNL1        0.0630
      7 C          -1.5000   -0.8660    0.0000 C.ar    1  UNL1        0.0060
      8 C          -2.0000   -0.0000    0.0000 C.ar    1  UNL1        0.0035
      9 C          -1.5000    0.8660    0.0000 C.ar    1  UNL1        0.0488
     10 C          -2.0000    1.7321    0.0000 C.2     1  UNL1        0.2668
     11 O          -1.5000    2.5981    0.0000 O.2     1  UNL1       -0.2825
     12 C          -3.0000    1.7321    0.0000 C.3     1  UNL1        0.4555
     13 F          -3.8660    1.2321    0.0000 F       1  UNL1       -0.1631
     14 F          -3.0000    0.7321    0.0000 F       1  UNL1       -0.1631
     15 F          -3.5000    2.5981    0.0000 F       1  UNL1       -0.1631
     16 C          -0.5000    0.8660    0.0000 C.ar    1  UNL1        0.0661
@<TRIPOS>UNITY_ATOM_ATTR
2 1
charge 1
@<TRIPOS>BOND
     1     1     2    1
     2     2     3    1
     3     2     4    1
     4     2     5    1
     5     5     6   ar
     6     6     7   ar
     7     7     8   ar
     8     8     9   ar
     9     9    10    1
    10    10    11    2
    11    10    12    1
    12    12    13    1
    13    12    14    1
    14    12    15    1
    15     9    16   ar
    16     5    16   ar
