REMARK  Name = cpd43.pdb
REMARK  19 active torsions:
REMARK  status: ('A' for Active; 'I' for Inactive)
REMARK    1  A    between atoms: C_1  and  C_2
REMARK    2  A    between atoms: C_6  and  N_7
REMARK    3  A    between atoms: N_7  and  C_8
REMARK    4  A    between atoms: C_13  and  C_14
REMARK    5  A    between atoms: N_16  and  C_17
REMARK    6  A    between atoms: C_17  and  C_18
REMARK    7  A    between atoms: C_18  and  C_19
REMARK    8  A    between atoms: C_19  and  C_20
REMARK    9  A    between atoms: N_22  and  C_23
REMARK   10  A    between atoms: C_23  and  C_24
REMARK   11  A    between atoms: C_24  and  C_25
REMARK   12  A    between atoms: C_25  and  C_26
REMARK   13  A    between atoms: C_26  and  C_27
REMARK   14  A    between atoms: C_27  and  C_28
REMARK   15  A    between atoms: C_28  and  C_29
REMARK   16  A    between atoms: C_29  and  C_30
REMARK   17  A    between atoms: C_30  and  N_31
REMARK   18  A    between atoms: N_31  and  C_32
REMARK   19  A    between atoms: C_46  and  C_47
REMARK                            x       y       z     vdW  Elec       q    Type
REMARK                         _______ _______ _______ _____ _____    ______ ____
ROOT
ATOM      1  C   UNL A   1       5.062   5.086  -2.598  0.00  0.00    +0.213 C 
ATOM      2  O   UNL A   1       6.054   4.919  -3.301  0.00  0.00    -0.276 OA
ATOM      3  N   UNL A   1       4.971   6.057  -1.628  0.00  0.00    -0.315 N 
ATOM      4  H   UNL A   1       4.155   6.109  -1.080  0.00  0.00    +0.000 HD
ENDROOT
BRANCH   1   5
ATOM      5  C   UNL A   1       3.813   4.247  -2.768  0.00  0.00    +0.025 C 
BRANCH   5   6
ATOM      6  C   UNL A   1       3.417   3.517  -1.486  0.00  0.00    -0.029 C 
BRANCH   6   7
ATOM      7  C   UNL A   1       2.345   2.454  -1.724  0.00  0.00    +0.012 C 
BRANCH   7  10
ATOM      8  C   UNL A   1       0.162   3.759  -1.737  0.00  0.00    +0.246 C 
ATOM      9  O   UNL A   1      -0.625   4.399  -2.426  0.00  0.00    -0.270 OA
ATOM     10  N   UNL A   1       1.137   2.995  -2.328  0.00  0.00    -0.311 N 
ATOM     11  H   UNL A   1       1.002   2.787  -3.281  0.00  0.00    +0.000 HD
BRANCH   8  17
ATOM     12  C   UNL A   1      -0.258   2.709   0.520  0.00  0.00    +0.044 A 
ATOM     13  C   UNL A   1      -0.284   2.884   1.914  0.00  0.00    -0.040 A 
ATOM     14  C   UNL A   1      -0.076   4.140   2.495  0.00  0.00    -0.060 A 
ATOM     15  C   UNL A   1       0.180   5.249   1.694  0.00  0.00    -0.061 A 
ATOM     16  C   UNL A   1       0.253   5.097   0.312  0.00  0.00    -0.048 A 
ATOM     17  C   UNL A   1       0.073   3.830  -0.266  0.00  0.00    +0.058 A 
BRANCH  12  18
ATOM     18  N   UNL A   1      -0.451   1.421  -0.044  0.00  0.00    -0.314 N 
ATOM     19  H   UNL A   1       0.065   1.217  -0.857  0.00  0.00    +0.000 HD
BRANCH  18  25
ATOM     20  C   UNL A   1      -1.560  -3.438   0.395  0.00  0.00    -0.039 C 
ATOM     21  C   UNL A   1      -1.876  -1.979   0.590  0.00  0.00    -0.046 A 
ATOM     22  C   UNL A   1      -3.112  -1.630   1.155  0.00  0.00    -0.058 A 
ATOM     23  C   UNL A   1      -3.459  -0.295   1.337  0.00  0.00    -0.060 A 
ATOM     24  C   UNL A   1      -2.570   0.709   0.963  0.00  0.00    -0.040 A 
ATOM     25  C   UNL A   1      -1.308   0.394   0.437  0.00  0.00    +0.035 A 
ATOM     26  C   UNL A   1      -0.957  -0.962   0.239  0.00  0.00    -0.026 A 
ATOM     27  C   UNL A   1       0.373  -1.311  -0.384  0.00  0.00    -0.038 C 
ENDBRANCH  18  25
ENDBRANCH  12  18
ENDBRANCH   8  17
ENDBRANCH   7  10
ENDBRANCH   6   7
ENDBRANCH   5   6
ENDBRANCH   1   5
BRANCH   3  28
ATOM     28  C   UNL A   1       6.040   7.005  -1.388  0.00  0.00    +0.012 C 
BRANCH  28  29
ATOM     29  C   UNL A   1       7.224   6.378  -0.654  0.00  0.00    -0.037 C 
BRANCH  29  30
ATOM     30  C   UNL A   1       8.282   7.429  -0.316  0.00  0.00    -0.052 C 
BRANCH  30  31
ATOM     31  C   UNL A   1       9.542   6.791   0.274  0.00  0.00    -0.053 C 
BRANCH  31  32
ATOM     32  C   UNL A   1      10.561   7.859   0.679  0.00  0.00    -0.053 C 
BRANCH  32  33
ATOM     33  C   UNL A   1      11.868   7.273   1.221  0.00  0.00    -0.052 C 
BRANCH  33  34
ATOM     34  C   UNL A   1      12.736   6.642   0.129  0.00  0.00    -0.037 C 
BRANCH  34  35
ATOM     35  C   UNL A   1      14.073   6.153   0.690  0.00  0.00    +0.009 C 
BRANCH  35  36
ATOM     36  N   UNL A   1      14.881   5.615  -0.413  0.00  0.00    -0.343 N 
ATOM     37  H   UNL A   1      14.608   5.638  -1.358  0.00  0.00    +0.000 HD
BRANCH  36  38
ATOM     38  C   UNL A   1      16.109   5.056   0.050  0.00  0.00    +0.041 A 
ATOM     39  C   UNL A   1      17.280   5.839   0.109  0.00  0.00    -0.005 A 
ATOM     40  C   UNL A   1      18.433   5.239   0.625  0.00  0.00    +0.047 A 
ATOM     41  N   UNL A   1      18.460   3.975   1.110  0.00  0.00    -0.251 NA
ATOM     42  C   UNL A   1      17.343   3.236   1.065  0.00  0.00    +0.073 A 
ATOM     43  C   UNL A   1      17.394   1.936   1.551  0.00  0.00    -0.036 A 
ATOM     44  C   UNL A   1      16.281   1.092   1.526  0.00  0.00    -0.060 A 
ATOM     45  C   UNL A   1      15.084   1.553   0.998  0.00  0.00    -0.061 A 
ATOM     46  C   UNL A   1      15.011   2.855   0.507  0.00  0.00    -0.051 A 
ATOM     47  C   UNL A   1      16.131   3.722   0.542  0.00  0.00    +0.021 A 
ATOM     48  C   UNL A   1      19.736   5.988   0.740  0.00  0.00    -0.010 C 
ATOM     49  C   UNL A   1      19.817   7.204  -0.175  0.00  0.00    -0.047 C 
ATOM     50  C   UNL A   1      18.560   8.045  -0.019  0.00  0.00    -0.049 C 
ATOM     51  C   UNL A   1      17.326   7.247  -0.437  0.00  0.00    -0.024 C 
ENDBRANCH  36  38
ENDBRANCH  35  36
ENDBRANCH  34  35
ENDBRANCH  33  34
ENDBRANCH  32  33
ENDBRANCH  31  32
ENDBRANCH  30  31
ENDBRANCH  29  30
ENDBRANCH  28  29
ENDBRANCH   3  28
TORSDOF 17
