MODEL 1
REMARK VINA RESULT:    -6.697      0.000      0.000
REMARK INTER + INTRA:         -19.050
REMARK INTER:                 -13.353
REMARK INTRA:                  -5.698
REMARK UNBOUND:                -5.698
REMARK  Name = cpd43.pdb
REMARK  19 active torsions:
REMARK  status: ('A' for Active; 'I' for Inactive)
REMARK    1  A    between atoms: C_1  and  C_2
REMARK    2  A    between atoms: C_6  and  N_7
REMARK    3  A    between atoms: N_7  and  C_8
REMARK    4  A    between atoms: C_13  and  C_14
REMARK    5  A    between atoms: N_16  and  C_17
REMARK    6  A    between atoms: C_17  and  C_18
REMARK    7  A    between atoms: C_18  and  C_19
REMARK    8  A    between atoms: C_19  and  C_20
REMARK    9  A    between atoms: N_22  and  C_23
REMARK   10  A    between atoms: C_23  and  C_24
REMARK   11  A    between atoms: C_24  and  C_25
REMARK   12  A    between atoms: C_25  and  C_26
REMARK   13  A    between atoms: C_26  and  C_27
REMARK   14  A    between atoms: C_27  and  C_28
REMARK   15  A    between atoms: C_28  and  C_29
REMARK   16  A    between atoms: C_29  and  C_30
REMARK   17  A    between atoms: C_30  and  N_31
REMARK   18  A    between atoms: N_31  and  C_32
REMARK   19  A    between atoms: C_46  and  C_47
REMARK                            x       y       z     vdW  Elec       q    Type
REMARK                         _______ _______ _______ _____ _____    ______ ____
ROOT
ATOM      1  C   UNL A   1      46.884 -20.214 -39.100  0.00  0.00    +0.213 C 
ATOM      2  O   UNL A   1      47.225 -21.392 -39.136  0.00  0.00    -0.276 OA
ATOM      3  N   UNL A   1      46.913 -19.379 -40.192  0.00  0.00    -0.315 N 
ATOM      4  H   UNL A   1      46.656 -18.435 -40.078  0.00  0.00    +0.000 HD
ENDROOT
BRANCH   1   5
ATOM      5  C   UNL A   1      46.354 -19.576 -37.833  0.00  0.00    +0.025 C 
BRANCH   5   6
ATOM      6  C   UNL A   1      47.468 -19.048 -36.931  0.00  0.00    -0.029 C 
BRANCH   6   7
ATOM      7  C   UNL A   1      47.392 -19.615 -35.513  0.00  0.00    +0.012 C 
BRANCH   7  10
ATOM      8  C   UNL A   1      45.791 -18.321 -34.020  0.00  0.00    +0.246 C 
ATOM      9  O   UNL A   1      45.678 -17.681 -32.980  0.00  0.00    -0.270 OA
ATOM     10  N   UNL A   1      47.035 -18.612 -34.522  0.00  0.00    -0.311 N 
ATOM     11  H   UNL A   1      47.779 -18.075 -34.166  0.00  0.00    +0.000 HD
BRANCH   8  17
ATOM     12  C   UNL A   1      43.825 -17.960 -35.562  0.00  0.00    +0.044 A 
ATOM     13  C   UNL A   1      42.711 -18.528 -36.203  0.00  0.00    -0.040 A 
ATOM     14  C   UNL A   1      42.320 -19.848 -35.952  0.00  0.00    -0.060 A 
ATOM     15  C   UNL A   1      43.045 -20.636 -35.063  0.00  0.00    -0.061 A 
ATOM     16  C   UNL A   1      44.177 -20.113 -34.445  0.00  0.00    -0.048 A 
ATOM     17  C   UNL A   1      44.584 -18.798 -34.722  0.00  0.00    +0.058 A 
BRANCH  12  18
ATOM     18  N   UNL A   1      44.214 -16.625 -35.850  0.00  0.00    -0.314 N 
ATOM     19  H   UNL A   1      43.788 -15.919 -35.312  0.00  0.00    +0.000 HD
BRANCH  18  25
ATOM     20  C   UNL A   1      45.482 -16.016 -40.651  0.00  0.00    -0.039 C 
ATOM     21  C   UNL A   1      45.788 -15.965 -39.178  0.00  0.00    -0.046 A 
ATOM     22  C   UNL A   1      47.081 -15.600 -38.774  0.00  0.00    -0.058 A 
ATOM     23  C   UNL A   1      47.420 -15.557 -37.425  0.00  0.00    -0.060 A 
ATOM     24  C   UNL A   1      46.466 -15.873 -36.462  0.00  0.00    -0.040 A 
ATOM     25  C   UNL A   1      45.151 -16.198 -36.829  0.00  0.00    +0.035 A 
ATOM     26  C   UNL A   1      44.807 -16.254 -38.200  0.00  0.00    -0.026 A 
ATOM     27  C   UNL A   1      43.413 -16.664 -38.609  0.00  0.00    -0.038 C 
ENDBRANCH  18  25
ENDBRANCH  12  18
ENDBRANCH   8  17
ENDBRANCH   7  10
ENDBRANCH   6   7
ENDBRANCH   5   6
ENDBRANCH   1   5
BRANCH   3  28
ATOM     28  C   UNL A   1      47.311 -19.845 -41.505  0.00  0.00    +0.012 C 
BRANCH  28  29
ATOM     29  C   UNL A   1      46.114 -20.185 -42.392  0.00  0.00    -0.037 C 
BRANCH  29  30
ATOM     30  C   UNL A   1      44.856 -19.453 -41.924  0.00  0.00    -0.052 C 
BRANCH  30  31
ATOM     31  C   UNL A   1      43.777 -20.431 -41.454  0.00  0.00    -0.053 C 
BRANCH  31  32
ATOM     32  C   UNL A   1      43.274 -20.064 -40.056  0.00  0.00    -0.053 C 
BRANCH  32  33
ATOM     33  C   UNL A   1      42.967 -21.285 -39.183  0.00  0.00    -0.052 C 
BRANCH  33  34
ATOM     34  C   UNL A   1      41.757 -22.081 -39.678  0.00  0.00    -0.037 C 
BRANCH  34  35
ATOM     35  C   UNL A   1      40.967 -22.681 -38.512  0.00  0.00    +0.009 C 
BRANCH  35  36
ATOM     36  N   UNL A   1      39.568 -22.244 -38.613  0.00  0.00    -0.343 N 
ATOM     37  H   UNL A   1      38.933 -22.581 -39.284  0.00  0.00    +0.000 HD
BRANCH  36  38
ATOM     38  C   UNL A   1      39.241 -21.273 -37.621  0.00  0.00    +0.041 A 
ATOM     39  C   UNL A   1      38.969 -21.662 -36.293  0.00  0.00    -0.005 A 
ATOM     40  C   UNL A   1      38.709 -20.651 -35.363  0.00  0.00    +0.047 A 
ATOM     41  N   UNL A   1      38.757 -19.332 -35.667  0.00  0.00    -0.251 NA
ATOM     42  C   UNL A   1      39.028 -18.962 -36.926  0.00  0.00    +0.073 A 
ATOM     43  C   UNL A   1      39.056 -17.606 -37.222  0.00  0.00    -0.036 A 
ATOM     44  C   UNL A   1      39.313 -17.135 -38.512  0.00  0.00    -0.060 A 
ATOM     45  C   UNL A   1      39.545 -18.039 -39.538  0.00  0.00    -0.061 A 
ATOM     46  C   UNL A   1      39.523 -19.405 -39.261  0.00  0.00    -0.051 A 
ATOM     47  C   UNL A   1      39.278 -19.890 -37.953  0.00  0.00    +0.021 A 
ATOM     48  C   UNL A   1      38.415 -20.956 -33.917  0.00  0.00    -0.010 C 
ATOM     49  C   UNL A   1      37.941 -22.386 -33.686  0.00  0.00    -0.047 C 
ATOM     50  C   UNL A   1      38.882 -23.355 -34.383  0.00  0.00    -0.049 C 
ATOM     51  C   UNL A   1      38.875 -23.116 -35.892  0.00  0.00    -0.024 C 
ENDBRANCH  36  38
ENDBRANCH  35  36
ENDBRANCH  34  35
ENDBRANCH  33  34
ENDBRANCH  32  33
ENDBRANCH  31  32
ENDBRANCH  30  31
ENDBRANCH  29  30
ENDBRANCH  28  29
ENDBRANCH   3  28
TORSDOF 17
ENDMDL
MODEL 2
REMARK VINA RESULT:    -6.657      2.439      6.490
REMARK INTER + INTRA:         -18.970
REMARK INTER:                 -14.235
REMARK INTRA:                  -4.735
REMARK UNBOUND:                -5.698
REMARK  Name = cpd43.pdb
REMARK  19 active torsions:
REMARK  status: ('A' for Active; 'I' for Inactive)
REMARK    1  A    between atoms: C_1  and  C_2
REMARK    2  A    between atoms: C_6  and  N_7
REMARK    3  A    between atoms: N_7  and  C_8
REMARK    4  A    between atoms: C_13  and  C_14
REMARK    5  A    between atoms: N_16  and  C_17
REMARK    6  A    between atoms: C_17  and  C_18
REMARK    7  A    between atoms: C_18  and  C_19
REMARK    8  A    between atoms: C_19  and  C_20
REMARK    9  A    between atoms: N_22  and  C_23
REMARK   10  A    between atoms: C_23  and  C_24
REMARK   11  A    between atoms: C_24  and  C_25
REMARK   12  A    between atoms: C_25  and  C_26
REMARK   13  A    between atoms: C_26  and  C_27
REMARK   14  A    between atoms: C_27  and  C_28
REMARK   15  A    between atoms: C_28  and  C_29
REMARK   16  A    between atoms: C_29  and  C_30
REMARK   17  A    between atoms: C_30  and  N_31
REMARK   18  A    between atoms: N_31  and  C_32
REMARK   19  A    between atoms: C_46  and  C_47
REMARK                            x       y       z     vdW  Elec       q    Type
REMARK                         _______ _______ _______ _____ _____    ______ ____
ROOT
ATOM      1  C   UNL A   1      41.737 -18.157 -37.972  0.00  0.00    +0.213 C 
ATOM      2  O   UNL A   1      41.280 -17.130 -38.465  0.00  0.00    -0.276 OA
ATOM      3  N   UNL A   1      41.083 -18.898 -37.015  0.00  0.00    -0.315 N 
ATOM      4  H   UNL A   1      41.528 -19.692 -36.641  0.00  0.00    +0.000 HD
ENDROOT
BRANCH   1   5
ATOM      5  C   UNL A   1      43.068 -18.729 -38.411  0.00  0.00    +0.025 C 
BRANCH   5   6
ATOM      6  C   UNL A   1      43.091 -20.256 -38.376  0.00  0.00    -0.029 C 
BRANCH   6   7
ATOM      7  C   UNL A   1      43.621 -20.864 -39.674  0.00  0.00    +0.012 C 
BRANCH   7  10
ATOM      8  C   UNL A   1      44.575 -19.951 -41.848  0.00  0.00    +0.246 C 
ATOM      9  O   UNL A   1      44.373 -19.212 -42.805  0.00  0.00    -0.270 OA
ATOM     10  N   UNL A   1      43.772 -19.883 -40.738  0.00  0.00    -0.311 N 
ATOM     11  H   UNL A   1      43.228 -19.066 -40.650  0.00  0.00    +0.000 HD
BRANCH   8  17
ATOM     12  C   UNL A   1      46.959 -20.652 -41.398  0.00  0.00    +0.044 A 
ATOM     13  C   UNL A   1      47.920 -21.673 -41.475  0.00  0.00    -0.040 A 
ATOM     14  C   UNL A   1      47.641 -22.892 -42.104  0.00  0.00    -0.060 A 
ATOM     15  C   UNL A   1      46.386 -23.123 -42.657  0.00  0.00    -0.061 A 
ATOM     16  C   UNL A   1      45.400 -22.145 -42.560  0.00  0.00    -0.048 A 
ATOM     17  C   UNL A   1      45.674 -20.935 -41.902  0.00  0.00    +0.058 A 
BRANCH  12  18
ATOM     18  N   UNL A   1      47.259 -19.433 -40.737  0.00  0.00    -0.314 N 
ATOM     19  H   UNL A   1      47.733 -18.752 -41.267  0.00  0.00    +0.000 HD
BRANCH  18  25
ATOM     20  C   UNL A   1      46.697 -15.960 -37.179  0.00  0.00    -0.039 C 
ATOM     21  C   UNL A   1      46.742 -17.390 -37.646  0.00  0.00    -0.046 A 
ATOM     22  C   UNL A   1      46.595 -18.411 -36.694  0.00  0.00    -0.058 A 
ATOM     23  C   UNL A   1      46.650 -19.749 -37.072  0.00  0.00    -0.060 A 
ATOM     24  C   UNL A   1      46.845 -20.083 -38.409  0.00  0.00    -0.040 A 
ATOM     25  C   UNL A   1      46.951 -19.088 -39.393  0.00  0.00    +0.035 A 
ATOM     26  C   UNL A   1      46.908 -17.727 -39.010  0.00  0.00    -0.026 A 
ATOM     27  C   UNL A   1      47.083 -16.648 -40.051  0.00  0.00    -0.038 C 
ENDBRANCH  18  25
ENDBRANCH  12  18
ENDBRANCH   8  17
ENDBRANCH   7  10
ENDBRANCH   6   7
ENDBRANCH   5   6
ENDBRANCH   1   5
BRANCH   3  28
ATOM     28  C   UNL A   1      39.761 -18.544 -36.540  0.00  0.00    +0.012 C 
BRANCH  28  29
ATOM     29  C   UNL A   1      38.719 -19.615 -36.859  0.00  0.00    -0.037 C 
BRANCH  29  30
ATOM     30  C   UNL A   1      37.606 -19.631 -35.810  0.00  0.00    -0.052 C 
BRANCH  30  31
ATOM     31  C   UNL A   1      36.786 -18.339 -35.839  0.00  0.00    -0.053 C 
BRANCH  31  32
ATOM     32  C   UNL A   1      36.719 -17.699 -34.451  0.00  0.00    -0.053 C 
BRANCH  32  33
ATOM     33  C   UNL A   1      37.773 -16.609 -34.235  0.00  0.00    -0.052 C 
BRANCH  33  34
ATOM     34  C   UNL A   1      38.858 -17.020 -33.237  0.00  0.00    -0.037 C 
BRANCH  34  35
ATOM     35  C   UNL A   1      38.396 -18.179 -32.352  0.00  0.00    +0.009 C 
BRANCH  35  36
ATOM     36  N   UNL A   1      39.574 -18.807 -31.739  0.00  0.00    -0.343 N 
ATOM     37  H   UNL A   1      39.922 -18.574 -30.849  0.00  0.00    +0.000 HD
BRANCH  36  38
ATOM     38  C   UNL A   1      40.154 -19.795 -32.590  0.00  0.00    +0.041 A 
ATOM     39  C   UNL A   1      39.409 -20.920 -32.999  0.00  0.00    -0.005 A 
ATOM     40  C   UNL A   1      40.025 -21.818 -33.877  0.00  0.00    +0.047 A 
ATOM     41  N   UNL A   1      41.267 -21.630 -34.382  0.00  0.00    -0.251 NA
ATOM     42  C   UNL A   1      41.969 -20.554 -34.002  0.00  0.00    +0.073 A 
ATOM     43  C   UNL A   1      43.248 -20.386 -34.518  0.00  0.00    -0.036 A 
ATOM     44  C   UNL A   1      44.054 -19.302 -34.161  0.00  0.00    -0.060 A 
ATOM     45  C   UNL A   1      43.576 -18.360 -33.263  0.00  0.00    -0.061 A 
ATOM     46  C   UNL A   1      42.295 -18.508 -32.735  0.00  0.00    -0.051 A 
ATOM     47  C   UNL A   1      41.465 -19.597 -33.103  0.00  0.00    +0.021 A 
ATOM     48  C   UNL A   1      39.316 -23.048 -34.382  0.00  0.00    -0.010 C 
ATOM     49  C   UNL A   1      38.145 -23.474 -33.506  0.00  0.00    -0.047 C 
ATOM     50  C   UNL A   1      37.256 -22.273 -33.223  0.00  0.00    -0.049 C 
ATOM     51  C   UNL A   1      38.029 -21.203 -32.455  0.00  0.00    -0.024 C 
ENDBRANCH  36  38
ENDBRANCH  35  36
ENDBRANCH  34  35
ENDBRANCH  33  34
ENDBRANCH  32  33
ENDBRANCH  31  32
ENDBRANCH  30  31
ENDBRANCH  29  30
ENDBRANCH  28  29
ENDBRANCH   3  28
TORSDOF 17
ENDMDL
MODEL 3
REMARK VINA RESULT:    -6.623      2.031      5.960
REMARK INTER + INTRA:         -18.903
REMARK INTER:                 -12.999
REMARK INTRA:                  -5.905
REMARK UNBOUND:                -5.698
REMARK  Name = cpd43.pdb
REMARK  19 active torsions:
REMARK  status: ('A' for Active; 'I' for Inactive)
REMARK    1  A    between atoms: C_1  and  C_2
REMARK    2  A    between atoms: C_6  and  N_7
REMARK    3  A    between atoms: N_7  and  C_8
REMARK    4  A    between atoms: C_13  and  C_14
REMARK    5  A    between atoms: N_16  and  C_17
REMARK    6  A    between atoms: C_17  and  C_18
REMARK    7  A    between atoms: C_18  and  C_19
REMARK    8  A    between atoms: C_19  and  C_20
REMARK    9  A    between atoms: N_22  and  C_23
REMARK   10  A    between atoms: C_23  and  C_24
REMARK   11  A    between atoms: C_24  and  C_25
REMARK   12  A    between atoms: C_25  and  C_26
REMARK   13  A    between atoms: C_26  and  C_27
REMARK   14  A    between atoms: C_27  and  C_28
REMARK   15  A    between atoms: C_28  and  C_29
REMARK   16  A    between atoms: C_29  and  C_30
REMARK   17  A    between atoms: C_30  and  N_31
REMARK   18  A    between atoms: N_31  and  C_32
REMARK   19  A    between atoms: C_46  and  C_47
REMARK                            x       y       z     vdW  Elec       q    Type
REMARK                         _______ _______ _______ _____ _____    ______ ____
ROOT
ATOM      1  C   UNL A   1      45.469 -19.421 -34.746  0.00  0.00    +0.213 C 
ATOM      2  O   UNL A   1      45.258 -20.181 -33.806  0.00  0.00    -0.276 OA
ATOM      3  N   UNL A   1      44.859 -18.197 -34.887  0.00  0.00    -0.315 N 
ATOM      4  H   UNL A   1      45.052 -17.656 -35.686  0.00  0.00    +0.000 HD
ENDROOT
BRANCH   1   5
ATOM      5  C   UNL A   1      46.467 -19.756 -35.834  0.00  0.00    +0.025 C 
BRANCH   5   6
ATOM      6  C   UNL A   1      45.816 -19.885 -37.210  0.00  0.00    -0.029 C 
BRANCH   6   7
ATOM      7  C   UNL A   1      46.788 -20.395 -38.273  0.00  0.00    +0.012 C 
BRANCH   7  10
ATOM      8  C   UNL A   1      47.078 -19.321 -40.560  0.00  0.00    +0.246 C 
ATOM      9  O   UNL A   1      47.196 -18.263 -41.168  0.00  0.00    -0.270 OA
ATOM     10  N   UNL A   1      47.215 -19.354 -39.195  0.00  0.00    -0.311 N 
ATOM     11  H   UNL A   1      47.658 -18.574 -38.788  0.00  0.00    +0.000 HD
BRANCH   8  17
ATOM     12  C   UNL A   1      45.463 -20.859 -41.743  0.00  0.00    +0.044 A 
ATOM     13  C   UNL A   1      45.286 -22.052 -42.464  0.00  0.00    -0.040 A 
ATOM     14  C   UNL A   1      46.341 -22.950 -42.657  0.00  0.00    -0.060 A 
ATOM     15  C   UNL A   1      47.605 -22.667 -42.148  0.00  0.00    -0.061 A 
ATOM     16  C   UNL A   1      47.819 -21.472 -41.465  0.00  0.00    -0.048 A 
ATOM     17  C   UNL A   1      46.765 -20.559 -41.298  0.00  0.00    +0.058 A 
BRANCH  12  18
ATOM     18  N   UNL A   1      44.382 -19.954 -41.579  0.00  0.00    -0.314 N 
ATOM     19  H   UNL A   1      44.137 -19.416 -42.366  0.00  0.00    +0.000 HD
BRANCH  18  25
ATOM     20  C   UNL A   1      42.520 -16.842 -38.131  0.00  0.00    -0.039 C 
ATOM     21  C   UNL A   1      42.763 -18.220 -38.686  0.00  0.00    -0.046 A 
ATOM     22  C   UNL A   1      42.320 -19.328 -37.947  0.00  0.00    -0.058 A 
ATOM     23  C   UNL A   1      42.539 -20.623 -38.407  0.00  0.00    -0.060 A 
ATOM     24  C   UNL A   1      43.198 -20.826 -39.617  0.00  0.00    -0.040 A 
ATOM     25  C   UNL A   1      43.614 -19.740 -40.402  0.00  0.00    +0.035 A 
ATOM     26  C   UNL A   1      43.404 -18.423 -39.931  0.00  0.00    -0.026 A 
ATOM     27  C   UNL A   1      43.904 -17.248 -40.737  0.00  0.00    -0.038 C 
ENDBRANCH  18  25
ENDBRANCH  12  18
ENDBRANCH   8  17
ENDBRANCH   7  10
ENDBRANCH   6   7
ENDBRANCH   5   6
ENDBRANCH   1   5
BRANCH   3  28
ATOM     28  C   UNL A   1      43.940 -17.678 -33.894  0.00  0.00    +0.012 C 
BRANCH  28  29
ATOM     29  C   UNL A   1      42.599 -17.264 -34.498  0.00  0.00    -0.037 C 
BRANCH  29  30
ATOM     30  C   UNL A   1      41.484 -18.219 -34.071  0.00  0.00    -0.052 C 
BRANCH  30  31
ATOM     31  C   UNL A   1      41.816 -18.920 -32.751  0.00  0.00    -0.053 C 
BRANCH  31  32
ATOM     32  C   UNL A   1      41.286 -20.356 -32.743  0.00  0.00    -0.053 C 
BRANCH  32  33
ATOM     33  C   UNL A   1      41.579 -21.117 -34.040  0.00  0.00    -0.052 C 
BRANCH  33  34
ATOM     34  C   UNL A   1      40.380 -21.927 -34.539  0.00  0.00    -0.037 C 
BRANCH  34  35
ATOM     35  C   UNL A   1      39.933 -21.468 -35.928  0.00  0.00    +0.009 C 
BRANCH  35  36
ATOM     36  N   UNL A   1      38.536 -21.018 -35.852  0.00  0.00    -0.343 N 
ATOM     37  H   UNL A   1      37.769 -21.621 -35.727  0.00  0.00    +0.000 HD
BRANCH  36  38
ATOM     38  C   UNL A   1      38.426 -19.601 -35.981  0.00  0.00    +0.041 A 
ATOM     39  C   UNL A   1      38.555 -18.980 -37.240  0.00  0.00    -0.005 A 
ATOM     40  C   UNL A   1      38.380 -17.594 -37.297  0.00  0.00    +0.047 A 
ATOM     41  N   UNL A   1      38.047 -16.841 -36.222  0.00  0.00    -0.251 NA
ATOM     42  C   UNL A   1      37.911 -17.435 -35.028  0.00  0.00    +0.073 A 
ATOM     43  C   UNL A   1      37.586 -16.645 -33.933  0.00  0.00    -0.036 A 
ATOM     44  C   UNL A   1      37.443 -17.180 -32.650  0.00  0.00    -0.060 A 
ATOM     45  C   UNL A   1      37.633 -18.540 -32.450  0.00  0.00    -0.061 A 
ATOM     46  C   UNL A   1      37.959 -19.350 -33.536  0.00  0.00    -0.051 A 
ATOM     47  C   UNL A   1      38.091 -18.818 -34.842  0.00  0.00    +0.021 A 
ATOM     48  C   UNL A   1      38.489 -16.831 -38.592  0.00  0.00    -0.010 C 
ATOM     49  C   UNL A   1      39.269 -17.576 -39.669  0.00  0.00    -0.047 C 
ATOM     50  C   UNL A   1      38.745 -18.999 -39.786  0.00  0.00    -0.049 C 
ATOM     51  C   UNL A   1      38.950 -19.755 -38.475  0.00  0.00    -0.024 C 
ENDBRANCH  36  38
ENDBRANCH  35  36
ENDBRANCH  34  35
ENDBRANCH  33  34
ENDBRANCH  32  33
ENDBRANCH  31  32
ENDBRANCH  30  31
ENDBRANCH  29  30
ENDBRANCH  28  29
ENDBRANCH   3  28
TORSDOF 17
ENDMDL
MODEL 4
REMARK VINA RESULT:    -6.539      2.153      5.667
REMARK INTER + INTRA:         -18.735
REMARK INTER:                 -13.148
REMARK INTRA:                  -5.587
REMARK UNBOUND:                -5.698
REMARK  Name = cpd43.pdb
REMARK  19 active torsions:
REMARK  status: ('A' for Active; 'I' for Inactive)
REMARK    1  A    between atoms: C_1  and  C_2
REMARK    2  A    between atoms: C_6  and  N_7
REMARK    3  A    between atoms: N_7  and  C_8
REMARK    4  A    between atoms: C_13  and  C_14
REMARK    5  A    between atoms: N_16  and  C_17
REMARK    6  A    between atoms: C_17  and  C_18
REMARK    7  A    between atoms: C_18  and  C_19
REMARK    8  A    between atoms: C_19  and  C_20
REMARK    9  A    between atoms: N_22  and  C_23
REMARK   10  A    between atoms: C_23  and  C_24
REMARK   11  A    between atoms: C_24  and  C_25
REMARK   12  A    between atoms: C_25  and  C_26
REMARK   13  A    between atoms: C_26  and  C_27
REMARK   14  A    between atoms: C_27  and  C_28
REMARK   15  A    between atoms: C_28  and  C_29
REMARK   16  A    between atoms: C_29  and  C_30
REMARK   17  A    between atoms: C_30  and  N_31
REMARK   18  A    between atoms: N_31  and  C_32
REMARK   19  A    between atoms: C_46  and  C_47
REMARK                            x       y       z     vdW  Elec       q    Type
REMARK                         _______ _______ _______ _____ _____    ______ ____
ROOT
ATOM      1  C   UNL A   1      45.253 -17.317 -34.275  0.00  0.00    +0.213 C 
ATOM      2  O   UNL A   1      45.841 -17.948 -33.402  0.00  0.00    -0.276 OA
ATOM      3  N   UNL A   1      44.007 -16.761 -34.103  0.00  0.00    -0.315 N 
ATOM      4  H   UNL A   1      43.583 -16.297 -34.861  0.00  0.00    +0.000 HD
ENDROOT
BRANCH   1   5
ATOM      5  C   UNL A   1      45.877 -17.057 -35.630  0.00  0.00    +0.025 C 
BRANCH   5   6
ATOM      6  C   UNL A   1      45.032 -16.125 -36.497  0.00  0.00    -0.029 C 
BRANCH   6   7
ATOM      7  C   UNL A   1      45.372 -16.239 -37.982  0.00  0.00    +0.012 C 
BRANCH   7  10
ATOM      8  C   UNL A   1      43.119 -17.156 -38.724  0.00  0.00    +0.246 C 
ATOM      9  O   UNL A   1      42.066 -16.900 -39.299  0.00  0.00    -0.270 OA
ATOM     10  N   UNL A   1      44.190 -16.305 -38.828  0.00  0.00    -0.311 N 
ATOM     11  H   UNL A   1      44.154 -15.657 -39.569  0.00  0.00    +0.000 HD
BRANCH   8  17
ATOM     12  C   UNL A   1      44.055 -19.454 -38.257  0.00  0.00    +0.044 A 
ATOM     13  C   UNL A   1      44.101 -20.551 -37.380  0.00  0.00    -0.040 A 
ATOM     14  C   UNL A   1      43.289 -20.609 -36.242  0.00  0.00    -0.060 A 
ATOM     15  C   UNL A   1      42.423 -19.561 -35.945  0.00  0.00    -0.061 A 
ATOM     16  C   UNL A   1      42.387 -18.443 -36.773  0.00  0.00    -0.048 A 
ATOM     17  C   UNL A   1      43.224 -18.374 -37.898  0.00  0.00    +0.058 A 
BRANCH  12  18
ATOM     18  N   UNL A   1      44.904 -19.409 -39.393  0.00  0.00    -0.314 N 
ATOM     19  H   UNL A   1      45.521 -18.644 -39.449  0.00  0.00    +0.000 HD
BRANCH  18  25
ATOM     20  C   UNL A   1      47.250 -23.147 -41.750  0.00  0.00    -0.039 C 
ATOM     21  C   UNL A   1      46.146 -22.129 -41.641  0.00  0.00    -0.046 A 
ATOM     22  C   UNL A   1      45.218 -22.030 -42.688  0.00  0.00    -0.058 A 
ATOM     23  C   UNL A   1      44.192 -21.091 -42.643  0.00  0.00    -0.060 A 
ATOM     24  C   UNL A   1      44.076 -20.244 -41.545  0.00  0.00    -0.040 A 
ATOM     25  C   UNL A   1      44.960 -20.347 -40.460  0.00  0.00    +0.035 A 
ATOM     26  C   UNL A   1      46.012 -21.292 -40.508  0.00  0.00    -0.026 A 
ATOM     27  C   UNL A   1      47.005 -21.369 -39.374  0.00  0.00    -0.038 C 
ENDBRANCH  18  25
ENDBRANCH  12  18
ENDBRANCH   8  17
ENDBRANCH   7  10
ENDBRANCH   6   7
ENDBRANCH   5   6
ENDBRANCH   1   5
BRANCH   3  28
ATOM     28  C   UNL A   1      43.299 -16.837 -32.842  0.00  0.00    +0.012 C 
BRANCH  28  29
ATOM     29  C   UNL A   1      42.368 -18.046 -32.766  0.00  0.00    -0.037 C 
BRANCH  29  30
ATOM     30  C   UNL A   1      40.903 -17.620 -32.862  0.00  0.00    -0.052 C 
BRANCH  30  31
ATOM     31  C   UNL A   1      39.962 -18.827 -32.835  0.00  0.00    -0.053 C 
BRANCH  31  32
ATOM     32  C   UNL A   1      40.750 -20.139 -32.826  0.00  0.00    -0.053 C 
BRANCH  32  33
ATOM     33  C   UNL A   1      39.860 -21.380 -32.931  0.00  0.00    -0.052 C 
BRANCH  33  34
ATOM     34  C   UNL A   1      40.581 -22.580 -33.550  0.00  0.00    -0.037 C 
BRANCH  34  35
ATOM     35  C   UNL A   1      40.435 -22.596 -35.073  0.00  0.00    +0.009 C 
BRANCH  35  36
ATOM     36  N   UNL A   1      39.048 -22.253 -35.419  0.00  0.00    -0.343 N 
ATOM     37  H   UNL A   1      38.258 -22.661 -34.998  0.00  0.00    +0.000 HD
BRANCH  36  38
ATOM     38  C   UNL A   1      38.985 -21.256 -36.438  0.00  0.00    +0.041 A 
ATOM     39  C   UNL A   1      38.201 -20.098 -36.265  0.00  0.00    -0.005 A 
ATOM     40  C   UNL A   1      38.231 -19.139 -37.283  0.00  0.00    +0.047 A 
ATOM     41  N   UNL A   1      39.007 -19.251 -38.386  0.00  0.00    -0.251 NA
ATOM     42  C   UNL A   1      39.762 -20.347 -38.544  0.00  0.00    +0.073 A 
ATOM     43  C   UNL A   1      40.538 -20.452 -39.691  0.00  0.00    -0.036 A 
ATOM     44  C   UNL A   1      41.340 -21.568 -39.942  0.00  0.00    -0.060 A 
ATOM     45  C   UNL A   1      41.366 -22.612 -39.029  0.00  0.00    -0.061 A 
ATOM     46  C   UNL A   1      40.596 -22.525 -37.871  0.00  0.00    -0.051 A 
ATOM     47  C   UNL A   1      39.792 -21.391 -37.601  0.00  0.00    +0.021 A 
ATOM     48  C   UNL A   1      37.436 -17.861 -37.195  0.00  0.00    -0.010 C 
ATOM     49  C   UNL A   1      36.274 -17.938 -36.212  0.00  0.00    -0.047 C 
ATOM     50  C   UNL A   1      36.763 -18.499 -34.887  0.00  0.00    -0.049 C 
ATOM     51  C   UNL A   1      37.293 -19.920 -35.070  0.00  0.00    -0.024 C 
ENDBRANCH  36  38
ENDBRANCH  35  36
ENDBRANCH  34  35
ENDBRANCH  33  34
ENDBRANCH  32  33
ENDBRANCH  31  32
ENDBRANCH  30  31
ENDBRANCH  29  30
ENDBRANCH  28  29
ENDBRANCH   3  28
TORSDOF 17
ENDMDL
MODEL 5
REMARK VINA RESULT:    -6.494      2.071      5.677
REMARK INTER + INTRA:         -18.645
REMARK INTER:                 -13.378
REMARK INTRA:                  -5.267
REMARK UNBOUND:                -5.698
REMARK  Name = cpd43.pdb
REMARK  19 active torsions:
REMARK  status: ('A' for Active; 'I' for Inactive)
REMARK    1  A    between atoms: C_1  and  C_2
REMARK    2  A    between atoms: C_6  and  N_7
REMARK    3  A    between atoms: N_7  and  C_8
REMARK    4  A    between atoms: C_13  and  C_14
REMARK    5  A    between atoms: N_16  and  C_17
REMARK    6  A    between atoms: C_17  and  C_18
REMARK    7  A    between atoms: C_18  and  C_19
REMARK    8  A    between atoms: C_19  and  C_20
REMARK    9  A    between atoms: N_22  and  C_23
REMARK   10  A    between atoms: C_23  and  C_24
REMARK   11  A    between atoms: C_24  and  C_25
REMARK   12  A    between atoms: C_25  and  C_26
REMARK   13  A    between atoms: C_26  and  C_27
REMARK   14  A    between atoms: C_27  and  C_28
REMARK   15  A    between atoms: C_28  and  C_29
REMARK   16  A    between atoms: C_29  and  C_30
REMARK   17  A    between atoms: C_30  and  N_31
REMARK   18  A    between atoms: N_31  and  C_32
REMARK   19  A    between atoms: C_46  and  C_47
REMARK                            x       y       z     vdW  Elec       q    Type
REMARK                         _______ _______ _______ _____ _____    ______ ____
ROOT
ATOM      1  C   UNL A   1      41.153 -16.533 -37.869  0.00  0.00    +0.213 C 
ATOM      2  O   UNL A   1      40.806 -15.356 -37.827  0.00  0.00    -0.276 OA
ATOM      3  N   UNL A   1      40.275 -17.580 -38.029  0.00  0.00    -0.315 N 
ATOM      4  H   UNL A   1      40.623 -18.500 -38.019  0.00  0.00    +0.000 HD
ENDROOT
BRANCH   1   5
ATOM      5  C   UNL A   1      42.609 -16.940 -37.789  0.00  0.00    +0.025 C 
BRANCH   5   6
ATOM      6  C   UNL A   1      43.087 -17.130 -36.350  0.00  0.00    -0.029 C 
BRANCH   6   7
ATOM      7  C   UNL A   1      44.505 -16.605 -36.129  0.00  0.00    +0.012 C 
BRANCH   7  10
ATOM      8  C   UNL A   1      46.666 -17.821 -36.695  0.00  0.00    +0.246 C 
ATOM      9  O   UNL A   1      47.534 -18.580 -36.278  0.00  0.00    -0.270 OA
ATOM     10  N   UNL A   1      45.489 -17.671 -36.007  0.00  0.00    -0.311 N 
ATOM     11  H   UNL A   1      45.283 -18.372 -35.347  0.00  0.00    +0.000 HD
BRANCH   8  17
ATOM     12  C   UNL A   1      46.434 -17.486 -39.186  0.00  0.00    +0.044 A 
ATOM     13  C   UNL A   1      46.688 -16.656 -40.292  0.00  0.00    -0.040 A 
ATOM     14  C   UNL A   1      47.449 -15.488 -40.168  0.00  0.00    -0.060 A 
ATOM     15  C   UNL A   1      47.960 -15.113 -38.929  0.00  0.00    -0.061 A 
ATOM     16  C   UNL A   1      47.689 -15.894 -37.808  0.00  0.00    -0.048 A 
ATOM     17  C   UNL A   1      46.901 -17.050 -37.931  0.00  0.00    +0.058 A 
BRANCH  12  18
ATOM     18  N   UNL A   1      45.642 -18.654 -39.334  0.00  0.00    -0.314 N 
ATOM     19  H   UNL A   1      44.714 -18.597 -39.011  0.00  0.00    +0.000 HD
BRANCH  18  25
ATOM     20  C   UNL A   1      45.222 -22.116 -42.922  0.00  0.00    -0.039 C 
ATOM     21  C   UNL A   1      45.784 -21.612 -41.619  0.00  0.00    -0.046 A 
ATOM     22  C   UNL A   1      46.634 -22.453 -40.885  0.00  0.00    -0.058 A 
ATOM     23  C   UNL A   1      47.162 -22.042 -39.666  0.00  0.00    -0.060 A 
ATOM     24  C   UNL A   1      46.853 -20.779 -39.168  0.00  0.00    -0.040 A 
ATOM     25  C   UNL A   1      46.043 -19.896 -39.897  0.00  0.00    +0.035 A 
ATOM     26  C   UNL A   1      45.494 -20.316 -41.131  0.00  0.00    -0.026 A 
ATOM     27  C   UNL A   1      44.570 -19.398 -41.895  0.00  0.00    -0.038 C 
ENDBRANCH  18  25
ENDBRANCH  12  18
ENDBRANCH   8  17
ENDBRANCH   7  10
ENDBRANCH   6   7
ENDBRANCH   5   6
ENDBRANCH   1   5
BRANCH   3  28
ATOM     28  C   UNL A   1      38.853 -17.369 -38.209  0.00  0.00    +0.012 C 
BRANCH  28  29
ATOM     29  C   UNL A   1      38.011 -18.465 -37.557  0.00  0.00    -0.037 C 
BRANCH  29  30
ATOM     30  C   UNL A   1      38.884 -19.412 -36.732  0.00  0.00    -0.052 C 
BRANCH  30  31
ATOM     31  C   UNL A   1      38.577 -19.300 -35.236  0.00  0.00    -0.053 C 
BRANCH  31  32
ATOM     32  C   UNL A   1      39.714 -18.594 -34.494  0.00  0.00    -0.053 C 
BRANCH  32  33
ATOM     33  C   UNL A   1      39.951 -19.146 -33.085  0.00  0.00    -0.052 C 
BRANCH  33  34
ATOM     34  C   UNL A   1      41.387 -19.631 -32.869  0.00  0.00    -0.037 C 
BRANCH  34  35
ATOM     35  C   UNL A   1      42.110 -19.849 -34.200  0.00  0.00    +0.009 C 
BRANCH  35  36
ATOM     36  N   UNL A   1      42.384 -21.284 -34.360  0.00  0.00    -0.343 N 
ATOM     37  H   UNL A   1      43.082 -21.770 -33.866  0.00  0.00    +0.000 HD
BRANCH  36  38
ATOM     38  C   UNL A   1      41.516 -21.888 -35.318  0.00  0.00    +0.041 A 
ATOM     39  C   UNL A   1      40.364 -22.588 -34.906  0.00  0.00    -0.005 A 
ATOM     40  C   UNL A   1      39.532 -23.106 -35.903  0.00  0.00    +0.047 A 
ATOM     41  N   UNL A   1      39.754 -22.924 -37.226  0.00  0.00    -0.251 NA
ATOM     42  C   UNL A   1      40.843 -22.247 -37.617  0.00  0.00    +0.073 A 
ATOM     43  C   UNL A   1      41.063 -22.084 -38.978  0.00  0.00    -0.036 A 
ATOM     44  C   UNL A   1      42.182 -21.408 -39.471  0.00  0.00    -0.060 A 
ATOM     45  C   UNL A   1      43.110 -20.882 -38.585  0.00  0.00    -0.061 A 
ATOM     46  C   UNL A   1      42.906 -21.032 -37.214  0.00  0.00    -0.051 A 
ATOM     47  C   UNL A   1      41.767 -21.704 -36.706  0.00  0.00    +0.021 A 
ATOM     48  C   UNL A   1      38.271 -23.864 -35.572  0.00  0.00    -0.010 C 
ATOM     49  C   UNL A   1      38.260 -24.429 -34.157  0.00  0.00    -0.047 C 
ATOM     50  C   UNL A   1      38.650 -23.341 -33.170  0.00  0.00    -0.049 C 
ATOM     51  C   UNL A   1      40.069 -22.849 -33.447  0.00  0.00    -0.024 C 
ENDBRANCH  36  38
ENDBRANCH  35  36
ENDBRANCH  34  35
ENDBRANCH  33  34
ENDBRANCH  32  33
ENDBRANCH  31  32
ENDBRANCH  30  31
ENDBRANCH  29  30
ENDBRANCH  28  29
ENDBRANCH   3  28
TORSDOF 17
ENDMDL
MODEL 6
REMARK VINA RESULT:    -6.464      2.305      5.707
REMARK INTER + INTRA:         -18.586
REMARK INTER:                 -11.923
REMARK INTRA:                  -6.663
REMARK UNBOUND:                -5.698
REMARK  Name = cpd43.pdb
REMARK  19 active torsions:
REMARK  status: ('A' for Active; 'I' for Inactive)
REMARK    1  A    between atoms: C_1  and  C_2
REMARK    2  A    between atoms: C_6  and  N_7
REMARK    3  A    between atoms: N_7  and  C_8
REMARK    4  A    between atoms: C_13  and  C_14
REMARK    5  A    between atoms: N_16  and  C_17
REMARK    6  A    between atoms: C_17  and  C_18
REMARK    7  A    between atoms: C_18  and  C_19
REMARK    8  A    between atoms: C_19  and  C_20
REMARK    9  A    between atoms: N_22  and  C_23
REMARK   10  A    between atoms: C_23  and  C_24
REMARK   11  A    between atoms: C_24  and  C_25
REMARK   12  A    between atoms: C_25  and  C_26
REMARK   13  A    between atoms: C_26  and  C_27
REMARK   14  A    between atoms: C_27  and  C_28
REMARK   15  A    between atoms: C_28  and  C_29
REMARK   16  A    between atoms: C_29  and  C_30
REMARK   17  A    between atoms: C_30  and  N_31
REMARK   18  A    between atoms: N_31  and  C_32
REMARK   19  A    between atoms: C_46  and  C_47
REMARK                            x       y       z     vdW  Elec       q    Type
REMARK                         _______ _______ _______ _____ _____    ______ ____
ROOT
ATOM      1  C   UNL A   1      41.230 -15.245 -38.866  0.00  0.00    +0.213 C 
ATOM      2  O   UNL A   1      40.461 -14.293 -38.773  0.00  0.00    -0.276 OA
ATOM      3  N   UNL A   1      40.834 -16.557 -38.749  0.00  0.00    -0.315 N 
ATOM      4  H   UNL A   1      41.514 -17.267 -38.802  0.00  0.00    +0.000 HD
ENDROOT
BRANCH   1   5
ATOM      5  C   UNL A   1      42.702 -15.055 -39.163  0.00  0.00    +0.025 C 
BRANCH   5   6
ATOM      6  C   UNL A   1      43.582 -16.079 -38.449  0.00  0.00    -0.029 C 
BRANCH   6   7
ATOM      7  C   UNL A   1      44.287 -15.495 -37.225  0.00  0.00    +0.012 C 
BRANCH   7  10
ATOM      8  C   UNL A   1      46.647 -16.425 -37.399  0.00  0.00    +0.246 C 
ATOM      9  O   UNL A   1      47.770 -16.243 -37.856  0.00  0.00    -0.270 OA
ATOM     10  N   UNL A   1      45.729 -15.405 -37.392  0.00  0.00    -0.311 N 
ATOM     11  H   UNL A   1      46.092 -14.498 -37.517  0.00  0.00    +0.000 HD
BRANCH   8  17
ATOM     12  C   UNL A   1      46.228 -18.896 -37.698  0.00  0.00    +0.044 A 
ATOM     13  C   UNL A   1      45.892 -20.116 -37.087  0.00  0.00    -0.040 A 
ATOM     14  C   UNL A   1      45.533 -20.180 -35.735  0.00  0.00    -0.060 A 
ATOM     15  C   UNL A   1      45.519 -19.025 -34.959  0.00  0.00    -0.061 A 
ATOM     16  C   UNL A   1      45.888 -17.809 -35.527  0.00  0.00    -0.048 A 
ATOM     17  C   UNL A   1      46.276 -17.753 -36.876  0.00  0.00    +0.058 A 
BRANCH  12  18
ATOM     18  N   UNL A   1      46.609 -18.861 -39.064  0.00  0.00    -0.314 N 
ATOM     19  H   UNL A   1      47.545 -18.623 -39.252  0.00  0.00    +0.000 HD
BRANCH  18  25
ATOM     20  C   UNL A   1      45.192 -21.933 -42.751  0.00  0.00    -0.039 C 
ATOM     21  C   UNL A   1      45.146 -20.613 -42.028  0.00  0.00    -0.046 A 
ATOM     22  C   UNL A   1      44.355 -19.583 -42.561  0.00  0.00    -0.058 A 
ATOM     23  C   UNL A   1      44.296 -18.339 -41.942  0.00  0.00    -0.060 A 
ATOM     24  C   UNL A   1      45.021 -18.111 -40.775  0.00  0.00    -0.040 A 
ATOM     25  C   UNL A   1      45.786 -19.132 -40.191  0.00  0.00    +0.035 A 
ATOM     26  C   UNL A   1      45.858 -20.394 -40.825  0.00  0.00    -0.026 A 
ATOM     27  C   UNL A   1      46.727 -21.481 -40.239  0.00  0.00    -0.038 C 
ENDBRANCH  18  25
ENDBRANCH  12  18
ENDBRANCH   8  17
ENDBRANCH   7  10
ENDBRANCH   6   7
ENDBRANCH   5   6
ENDBRANCH   1   5
BRANCH   3  28
ATOM     28  C   UNL A   1      39.447 -16.926 -38.550  0.00  0.00    +0.012 C 
BRANCH  28  29
ATOM     29  C   UNL A   1      39.110 -17.161 -37.079  0.00  0.00    -0.037 C 
BRANCH  29  30
ATOM     30  C   UNL A   1      38.640 -18.597 -36.844  0.00  0.00    -0.052 C 
BRANCH  30  31
ATOM     31  C   UNL A   1      38.345 -18.858 -35.365  0.00  0.00    -0.053 C 
BRANCH  31  32
ATOM     32  C   UNL A   1      37.267 -19.933 -35.201  0.00  0.00    -0.053 C 
BRANCH  32  33
ATOM     33  C   UNL A   1      37.717 -21.114 -34.336  0.00  0.00    -0.052 C 
BRANCH  33  34
ATOM     34  C   UNL A   1      38.833 -21.937 -34.985  0.00  0.00    -0.037 C 
BRANCH  34  35
ATOM     35  C   UNL A   1      40.027 -22.103 -34.043  0.00  0.00    +0.009 C 
BRANCH  35  36
ATOM     36  N   UNL A   1      41.238 -22.319 -34.846  0.00  0.00    -0.343 N 
ATOM     37  H   UNL A   1      41.728 -23.172 -34.885  0.00  0.00    +0.000 HD
BRANCH  36  38
ATOM     38  C   UNL A   1      41.617 -21.147 -35.564  0.00  0.00    +0.041 A 
ATOM     39  C   UNL A   1      41.732 -21.167 -36.969  0.00  0.00    -0.005 A 
ATOM     40  C   UNL A   1      42.055 -19.966 -37.608  0.00  0.00    +0.047 A 
ATOM     41  N   UNL A   1      42.210 -18.792 -36.951  0.00  0.00    -0.251 NA
ATOM     42  C   UNL A   1      42.088 -18.772 -35.617  0.00  0.00    +0.073 A 
ATOM     43  C   UNL A   1      42.267 -17.562 -34.959  0.00  0.00    -0.036 A 
ATOM     44  C   UNL A   1      42.176 -17.455 -33.569  0.00  0.00    -0.060 A 
ATOM     45  C   UNL A   1      41.902 -18.584 -32.812  0.00  0.00    -0.061 A 
ATOM     46  C   UNL A   1      41.717 -19.808 -33.453  0.00  0.00    -0.051 A 
ATOM     47  C   UNL A   1      41.794 -19.922 -34.863  0.00  0.00    +0.021 A 
ATOM     48  C   UNL A   1      42.194 -19.875 -39.106  0.00  0.00    -0.010 C 
ATOM     49  C   UNL A   1      42.451 -21.222 -39.772  0.00  0.00    -0.047 C 
ATOM     50  C   UNL A   1      41.442 -22.242 -39.267  0.00  0.00    -0.049 C 
ATOM     51  C   UNL A   1      41.596 -22.447 -37.761  0.00  0.00    -0.024 C 
ENDBRANCH  36  38
ENDBRANCH  35  36
ENDBRANCH  34  35
ENDBRANCH  33  34
ENDBRANCH  32  33
ENDBRANCH  31  32
ENDBRANCH  30  31
ENDBRANCH  29  30
ENDBRANCH  28  29
ENDBRANCH   3  28
TORSDOF 17
ENDMDL
MODEL 7
REMARK VINA RESULT:    -6.455      2.043      5.980
REMARK INTER + INTRA:         -18.568
REMARK INTER:                 -12.616
REMARK INTRA:                  -5.952
REMARK UNBOUND:                -5.698
REMARK  Name = cpd43.pdb
REMARK  19 active torsions:
REMARK  status: ('A' for Active; 'I' for Inactive)
REMARK    1  A    between atoms: C_1  and  C_2
REMARK    2  A    between atoms: C_6  and  N_7
REMARK    3  A    between atoms: N_7  and  C_8
REMARK    4  A    between atoms: C_13  and  C_14
REMARK    5  A    between atoms: N_16  and  C_17
REMARK    6  A    between atoms: C_17  and  C_18
REMARK    7  A    between atoms: C_18  and  C_19
REMARK    8  A    between atoms: C_19  and  C_20
REMARK    9  A    between atoms: N_22  and  C_23
REMARK   10  A    between atoms: C_23  and  C_24
REMARK   11  A    between atoms: C_24  and  C_25
REMARK   12  A    between atoms: C_25  and  C_26
REMARK   13  A    between atoms: C_26  and  C_27
REMARK   14  A    between atoms: C_27  and  C_28
REMARK   15  A    between atoms: C_28  and  C_29
REMARK   16  A    between atoms: C_29  and  C_30
REMARK   17  A    between atoms: C_30  and  N_31
REMARK   18  A    between atoms: N_31  and  C_32
REMARK   19  A    between atoms: C_46  and  C_47
REMARK                            x       y       z     vdW  Elec       q    Type
REMARK                         _______ _______ _______ _____ _____    ______ ____
ROOT
ATOM      1  C   UNL A   1      45.441 -18.192 -34.882  0.00  0.00    +0.213 C 
ATOM      2  O   UNL A   1      46.373 -17.968 -34.117  0.00  0.00    -0.276 OA
ATOM      3  N   UNL A   1      44.169 -18.507 -34.462  0.00  0.00    -0.315 N 
ATOM      4  H   UNL A   1      43.480 -18.707 -35.135  0.00  0.00    +0.000 HD
ENDROOT
BRANCH   1   5
ATOM      5  C   UNL A   1      45.602 -18.100 -36.385  0.00  0.00    +0.025 C 
BRANCH   5   6
ATOM      6  C   UNL A   1      46.956 -17.524 -36.796  0.00  0.00    -0.029 C 
BRANCH   6   7
ATOM      7  C   UNL A   1      46.844 -16.101 -37.344  0.00  0.00    +0.012 C 
BRANCH   7  10
ATOM      8  C   UNL A   1      46.636 -15.782 -39.859  0.00  0.00    +0.246 C 
ATOM      9  O   UNL A   1      47.199 -15.389 -40.875  0.00  0.00    -0.270 OA
ATOM     10  N   UNL A   1      47.349 -15.979 -38.703  0.00  0.00    -0.311 N 
ATOM     11  H   UNL A   1      48.327 -16.045 -38.807  0.00  0.00    +0.000 HD
BRANCH   8  17
ATOM     12  C   UNL A   1      44.588 -16.982 -40.719  0.00  0.00    +0.044 A 
ATOM     13  C   UNL A   1      43.196 -17.149 -40.629  0.00  0.00    -0.040 A 
ATOM     14  C   UNL A   1      42.416 -16.334 -39.800  0.00  0.00    -0.060 A 
ATOM     15  C   UNL A   1      43.015 -15.343 -39.027  0.00  0.00    -0.061 A 
ATOM     16  C   UNL A   1      44.398 -15.184 -39.065  0.00  0.00    -0.048 A 
ATOM     17  C   UNL A   1      45.180 -16.022 -39.875  0.00  0.00    +0.058 A 
BRANCH  12  18
ATOM     18  N   UNL A   1      45.359 -17.835 -41.551  0.00  0.00    -0.314 N 
ATOM     19  H   UNL A   1      46.068 -17.405 -42.082  0.00  0.00    +0.000 HD
BRANCH  18  25
ATOM     20  C   UNL A   1      46.774 -22.479 -40.338  0.00  0.00    -0.039 C 
ATOM     21  C   UNL A   1      45.962 -21.505 -41.151  0.00  0.00    -0.046 A 
ATOM     22  C   UNL A   1      45.136 -22.006 -42.169  0.00  0.00    -0.058 A 
ATOM     23  C   UNL A   1      44.382 -21.146 -42.960  0.00  0.00    -0.060 A 
ATOM     24  C   UNL A   1      44.439 -19.772 -42.739  0.00  0.00    -0.040 A 
ATOM     25  C   UNL A   1      45.220 -19.242 -41.701  0.00  0.00    +0.035 A 
ATOM     26  C   UNL A   1      45.997 -20.113 -40.902  0.00  0.00    -0.026 A 
ATOM     27  C   UNL A   1      46.889 -19.548 -39.823  0.00  0.00    -0.038 C 
ENDBRANCH  18  25
ENDBRANCH  12  18
ENDBRANCH   8  17
ENDBRANCH   7  10
ENDBRANCH   6   7
ENDBRANCH   5   6
ENDBRANCH   1   5
BRANCH   3  28
ATOM     28  C   UNL A   1      43.815 -18.554 -33.058  0.00  0.00    +0.012 C 
BRANCH  28  29
ATOM     29  C   UNL A   1      42.387 -19.049 -32.832  0.00  0.00    -0.037 C 
BRANCH  29  30
ATOM     30  C   UNL A   1      42.179 -20.432 -33.451  0.00  0.00    -0.052 C 
BRANCH  30  31
ATOM     31  C   UNL A   1      41.210 -21.280 -32.624  0.00  0.00    -0.053 C 
BRANCH  31  32
ATOM     32  C   UNL A   1      39.811 -20.658 -32.608  0.00  0.00    -0.053 C 
BRANCH  32  33
ATOM     33  C   UNL A   1      38.688 -21.696 -32.690  0.00  0.00    -0.052 C 
BRANCH  33  34
ATOM     34  C   UNL A   1      38.025 -21.748 -34.069  0.00  0.00    -0.037 C 
BRANCH  34  35
ATOM     35  C   UNL A   1      39.062 -21.902 -35.183  0.00  0.00    +0.009 C 
BRANCH  35  36
ATOM     36  N   UNL A   1      38.747 -20.952 -36.259  0.00  0.00    -0.343 N 
ATOM     37  H   UNL A   1      37.865 -20.881 -36.690  0.00  0.00    +0.000 HD
BRANCH  36  38
ATOM     38  C   UNL A   1      39.871 -20.144 -36.602  0.00  0.00    +0.041 A 
ATOM     39  C   UNL A   1      40.058 -18.879 -36.008  0.00  0.00    -0.005 A 
ATOM     40  C   UNL A   1      41.211 -18.167 -36.353  0.00  0.00    +0.047 A 
ATOM     41  N   UNL A   1      42.166 -18.655 -37.180  0.00  0.00    -0.251 NA
ATOM     42  C   UNL A   1      41.994 -19.863 -37.734  0.00  0.00    +0.073 A 
ATOM     43  C   UNL A   1      42.976 -20.339 -38.592  0.00  0.00    -0.036 A 
ATOM     44  C   UNL A   1      42.868 -21.579 -39.226  0.00  0.00    -0.060 A 
ATOM     45  C   UNL A   1      41.748 -22.367 -39.002  0.00  0.00    -0.061 A 
ATOM     46  C   UNL A   1      40.752 -21.908 -38.142  0.00  0.00    -0.051 A 
ATOM     47  C   UNL A   1      40.861 -20.658 -37.485  0.00  0.00    +0.021 A 
ATOM     48  C   UNL A   1      41.512 -16.810 -35.770  0.00  0.00    -0.010 C 
ATOM     49  C   UNL A   1      40.280 -16.103 -35.217  0.00  0.00    -0.047 C 
ATOM     50  C   UNL A   1      39.512 -17.052 -34.310  0.00  0.00    -0.049 C 
ATOM     51  C   UNL A   1      39.020 -18.265 -35.097  0.00  0.00    -0.024 C 
ENDBRANCH  36  38
ENDBRANCH  35  36
ENDBRANCH  34  35
ENDBRANCH  33  34
ENDBRANCH  32  33
ENDBRANCH  31  32
ENDBRANCH  30  31
ENDBRANCH  29  30
ENDBRANCH  28  29
ENDBRANCH   3  28
TORSDOF 17
ENDMDL
MODEL 8
REMARK VINA RESULT:    -6.443      1.936      5.677
REMARK INTER + INTRA:         -18.545
REMARK INTER:                 -13.341
REMARK INTRA:                  -5.204
REMARK UNBOUND:                -5.698
REMARK  Name = cpd43.pdb
REMARK  19 active torsions:
REMARK  status: ('A' for Active; 'I' for Inactive)
REMARK    1  A    between atoms: C_1  and  C_2
REMARK    2  A    between atoms: C_6  and  N_7
REMARK    3  A    between atoms: N_7  and  C_8
REMARK    4  A    between atoms: C_13  and  C_14
REMARK    5  A    between atoms: N_16  and  C_17
REMARK    6  A    between atoms: C_17  and  C_18
REMARK    7  A    between atoms: C_18  and  C_19
REMARK    8  A    between atoms: C_19  and  C_20
REMARK    9  A    between atoms: N_22  and  C_23
REMARK   10  A    between atoms: C_23  and  C_24
REMARK   11  A    between atoms: C_24  and  C_25
REMARK   12  A    between atoms: C_25  and  C_26
REMARK   13  A    between atoms: C_26  and  C_27
REMARK   14  A    between atoms: C_27  and  C_28
REMARK   15  A    between atoms: C_28  and  C_29
REMARK   16  A    between atoms: C_29  and  C_30
REMARK   17  A    between atoms: C_30  and  N_31
REMARK   18  A    between atoms: N_31  and  C_32
REMARK   19  A    between atoms: C_46  and  C_47
REMARK                            x       y       z     vdW  Elec       q    Type
REMARK                         _______ _______ _______ _____ _____    ______ ____
ROOT
ATOM      1  C   UNL A   1      44.909 -19.716 -35.770  0.00  0.00    +0.213 C 
ATOM      2  O   UNL A   1      44.460 -19.591 -36.905  0.00  0.00    -0.276 OA
ATOM      3  N   UNL A   1      44.160 -20.141 -34.697  0.00  0.00    -0.315 N 
ATOM      4  H   UNL A   1      44.581 -20.184 -33.808  0.00  0.00    +0.000 HD
ENDROOT
BRANCH   1   5
ATOM      5  C   UNL A   1      46.365 -19.447 -35.453  0.00  0.00    +0.025 C 
BRANCH   5   6
ATOM      6  C   UNL A   1      46.600 -18.033 -34.926  0.00  0.00    -0.029 C 
BRANCH   6   7
ATOM      7  C   UNL A   1      46.703 -16.999 -36.046  0.00  0.00    +0.012 C 
BRANCH   7  10
ATOM      8  C   UNL A   1      44.963 -16.302 -37.766  0.00  0.00    +0.246 C 
ATOM      9  O   UNL A   1      43.764 -16.188 -37.996  0.00  0.00    -0.270 OA
ATOM     10  N   UNL A   1      45.405 -16.507 -36.483  0.00  0.00    -0.311 N 
ATOM     11  H   UNL A   1      44.762 -16.295 -35.767  0.00  0.00    +0.000 HD
BRANCH   8  17
ATOM     12  C   UNL A   1      46.245 -17.370 -39.660  0.00  0.00    +0.044 A 
ATOM     13  C   UNL A   1      47.159 -17.191 -40.712  0.00  0.00    -0.040 A 
ATOM     14  C   UNL A   1      47.798 -15.963 -40.921  0.00  0.00    -0.060 A 
ATOM     15  C   UNL A   1      47.525 -14.880 -40.091  0.00  0.00    -0.061 A 
ATOM     16  C   UNL A   1      46.593 -15.018 -39.066  0.00  0.00    -0.048 A 
ATOM     17  C   UNL A   1      45.931 -16.242 -38.877  0.00  0.00    +0.058 A 
BRANCH  12  18
ATOM     18  N   UNL A   1      45.594 -18.619 -39.481  0.00  0.00    -0.314 N 
ATOM     19  H   UNL A   1      44.765 -18.608 -38.951  0.00  0.00    +0.000 HD
BRANCH  18  25
ATOM     20  C   UNL A   1      45.270 -22.215 -42.945  0.00  0.00    -0.039 C 
ATOM     21  C   UNL A   1      45.796 -21.662 -41.647  0.00  0.00    -0.046 A 
ATOM     22  C   UNL A   1      46.624 -22.475 -40.858  0.00  0.00    -0.058 A 
ATOM     23  C   UNL A   1      47.119 -22.017 -39.641  0.00  0.00    -0.060 A 
ATOM     24  C   UNL A   1      46.798 -20.736 -39.200  0.00  0.00    -0.040 A 
ATOM     25  C   UNL A   1      46.009 -19.881 -39.985  0.00  0.00    +0.035 A 
ATOM     26  C   UNL A   1      45.494 -20.348 -41.217  0.00  0.00    -0.026 A 
ATOM     27  C   UNL A   1      44.594 -19.459 -42.041  0.00  0.00    -0.038 C 
ENDBRANCH  18  25
ENDBRANCH  12  18
ENDBRANCH   8  17
ENDBRANCH   7  10
ENDBRANCH   6   7
ENDBRANCH   5   6
ENDBRANCH   1   5
BRANCH   3  28
ATOM     28  C   UNL A   1      42.770 -20.525 -34.835  0.00  0.00    +0.012 C 
BRANCH  28  29
ATOM     29  C   UNL A   1      41.813 -19.459 -34.304  0.00  0.00    -0.037 C 
BRANCH  29  30
ATOM     30  C   UNL A   1      41.460 -19.716 -32.838  0.00  0.00    -0.052 C 
BRANCH  30  31
ATOM     31  C   UNL A   1      39.956 -19.584 -32.589  0.00  0.00    -0.053 C 
BRANCH  31  32
ATOM     32  C   UNL A   1      39.376 -20.886 -32.029  0.00  0.00    -0.053 C 
BRANCH  32  33
ATOM     33  C   UNL A   1      40.119 -22.135 -32.511  0.00  0.00    -0.052 C 
BRANCH  33  34
ATOM     34  C   UNL A   1      39.299 -22.973 -33.495  0.00  0.00    -0.037 C 
BRANCH  34  35
ATOM     35  C   UNL A   1      39.957 -23.015 -34.877  0.00  0.00    +0.009 C 
BRANCH  35  36
ATOM     36  N   UNL A   1      38.964 -22.622 -35.886  0.00  0.00    -0.343 N 
ATOM     37  H   UNL A   1      38.186 -23.169 -36.135  0.00  0.00    +0.000 HD
BRANCH  36  38
ATOM     38  C   UNL A   1      39.264 -21.351 -36.460  0.00  0.00    +0.041 A 
ATOM     39  C   UNL A   1      40.223 -21.233 -37.487  0.00  0.00    -0.005 A 
ATOM     40  C   UNL A   1      40.424 -19.964 -38.040  0.00  0.00    +0.047 A 
ATOM     41  N   UNL A   1      39.714 -18.871 -37.672  0.00  0.00    -0.251 NA
ATOM     42  C   UNL A   1      38.794 -18.988 -36.705  0.00  0.00    +0.073 A 
ATOM     43  C   UNL A   1      38.088 -17.853 -36.328  0.00  0.00    -0.036 A 
ATOM     44  C   UNL A   1      37.124 -17.882 -35.317  0.00  0.00    -0.060 A 
ATOM     45  C   UNL A   1      36.859 -19.073 -34.658  0.00  0.00    -0.061 A 
ATOM     46  C   UNL A   1      37.556 -20.224 -35.021  0.00  0.00    -0.051 A 
ATOM     47  C   UNL A   1      38.524 -20.206 -36.056  0.00  0.00    +0.021 A 
ATOM     48  C   UNL A   1      41.419 -19.728 -39.148  0.00  0.00    -0.010 C 
ATOM     49  C   UNL A   1      42.484 -20.813 -39.246  0.00  0.00    -0.047 C 
ATOM     50  C   UNL A   1      41.821 -22.181 -39.239  0.00  0.00    -0.049 C 
ATOM     51  C   UNL A   1      41.067 -22.405 -37.929  0.00  0.00    -0.024 C 
ENDBRANCH  36  38
ENDBRANCH  35  36
ENDBRANCH  34  35
ENDBRANCH  33  34
ENDBRANCH  32  33
ENDBRANCH  31  32
ENDBRANCH  30  31
ENDBRANCH  29  30
ENDBRANCH  28  29
ENDBRANCH   3  28
TORSDOF 17
ENDMDL
MODEL 9
REMARK VINA RESULT:    -6.414      2.313      7.017
REMARK INTER + INTRA:         -18.486
REMARK INTER:                 -13.502
REMARK INTRA:                  -4.984
REMARK UNBOUND:                -5.698
REMARK  Name = cpd43.pdb
REMARK  19 active torsions:
REMARK  status: ('A' for Active; 'I' for Inactive)
REMARK    1  A    between atoms: C_1  and  C_2
REMARK    2  A    between atoms: C_6  and  N_7
REMARK    3  A    between atoms: N_7  and  C_8
REMARK    4  A    between atoms: C_13  and  C_14
REMARK    5  A    between atoms: N_16  and  C_17
REMARK    6  A    between atoms: C_17  and  C_18
REMARK    7  A    between atoms: C_18  and  C_19
REMARK    8  A    between atoms: C_19  and  C_20
REMARK    9  A    between atoms: N_22  and  C_23
REMARK   10  A    between atoms: C_23  and  C_24
REMARK   11  A    between atoms: C_24  and  C_25
REMARK   12  A    between atoms: C_25  and  C_26
REMARK   13  A    between atoms: C_26  and  C_27
REMARK   14  A    between atoms: C_27  and  C_28
REMARK   15  A    between atoms: C_28  and  C_29
REMARK   16  A    between atoms: C_29  and  C_30
REMARK   17  A    between atoms: C_30  and  N_31
REMARK   18  A    between atoms: N_31  and  C_32
REMARK   19  A    between atoms: C_46  and  C_47
REMARK                            x       y       z     vdW  Elec       q    Type
REMARK                         _______ _______ _______ _____ _____    ______ ____
ROOT
ATOM      1  C   UNL A   1      41.591 -19.244 -38.728  0.00  0.00    +0.213 C 
ATOM      2  O   UNL A   1      42.516 -19.469 -37.953  0.00  0.00    -0.276 OA
ATOM      3  N   UNL A   1      41.088 -20.178 -39.604  0.00  0.00    -0.315 N 
ATOM      4  H   UNL A   1      40.367 -19.914 -40.220  0.00  0.00    +0.000 HD
ENDROOT
BRANCH   1   5
ATOM      5  C   UNL A   1      40.884 -17.906 -38.759  0.00  0.00    +0.025 C 
BRANCH   5   6
ATOM      6  C   UNL A   1      40.322 -17.507 -37.396  0.00  0.00    -0.029 C 
BRANCH   6   7
ATOM      7  C   UNL A   1      41.217 -16.507 -36.664  0.00  0.00    +0.012 C 
BRANCH   7  10
ATOM      8  C   UNL A   1      42.377 -17.719 -34.753  0.00  0.00    +0.246 C 
ATOM      9  O   UNL A   1      43.289 -18.480 -34.449  0.00  0.00    -0.270 OA
ATOM     10  N   UNL A   1      42.344 -17.140 -35.997  0.00  0.00    -0.311 N 
ATOM     11  H   UNL A   1      43.189 -17.156 -36.501  0.00  0.00    +0.000 HD
BRANCH   8  17
ATOM     12  C   UNL A   1      40.193 -18.301 -33.629  0.00  0.00    +0.044 A 
ATOM     13  C   UNL A   1      39.241 -17.957 -32.654  0.00  0.00    -0.040 A 
ATOM     14  C   UNL A   1      39.342 -16.766 -31.926  0.00  0.00    -0.060 A 
ATOM     15  C   UNL A   1      40.407 -15.898 -32.146  0.00  0.00    -0.061 A 
ATOM     16  C   UNL A   1      41.387 -16.234 -33.076  0.00  0.00    -0.048 A 
ATOM     17  C   UNL A   1      41.299 -17.444 -33.783  0.00  0.00    +0.058 A 
BRANCH  12  18
ATOM     18  N   UNL A   1      40.081 -19.525 -34.339  0.00  0.00    -0.314 N 
ATOM     19  H   UNL A   1      39.850 -19.459 -35.293  0.00  0.00    +0.000 HD
BRANCH  18  25
ATOM     20  C   UNL A   1      38.432 -24.211 -33.736  0.00  0.00    -0.039 C 
ATOM     21  C   UNL A   1      39.420 -23.105 -33.477  0.00  0.00    -0.046 A 
ATOM     22  C   UNL A   1      40.486 -23.351 -32.598  0.00  0.00    -0.058 A 
ATOM     23  C   UNL A   1      41.414 -22.355 -32.309  0.00  0.00    -0.060 A 
ATOM     24  C   UNL A   1      41.292 -21.102 -32.903  0.00  0.00    -0.040 A 
ATOM     25  C   UNL A   1      40.264 -20.837 -33.821  0.00  0.00    +0.035 A 
ATOM     26  C   UNL A   1      39.312 -21.843 -34.107  0.00  0.00    -0.026 A 
ATOM     27  C   UNL A   1      38.166 -21.549 -35.045  0.00  0.00    -0.038 C 
ENDBRANCH  18  25
ENDBRANCH  12  18
ENDBRANCH   8  17
ENDBRANCH   7  10
ENDBRANCH   6   7
ENDBRANCH   5   6
ENDBRANCH   1   5
BRANCH   3  28
ATOM     28  C   UNL A   1      41.589 -21.537 -39.649  0.00  0.00    +0.012 C 
BRANCH  28  29
ATOM     29  C   UNL A   1      42.123 -21.918 -41.029  0.00  0.00    -0.037 C 
BRANCH  29  30
ATOM     30  C   UNL A   1      43.363 -21.098 -41.386  0.00  0.00    -0.052 C 
BRANCH  30  31
ATOM     31  C   UNL A   1      44.297 -21.868 -42.323  0.00  0.00    -0.053 C 
BRANCH  31  32
ATOM     32  C   UNL A   1      45.764 -21.587 -41.989  0.00  0.00    -0.053 C 
BRANCH  32  33
ATOM     33  C   UNL A   1      46.399 -22.663 -41.103  0.00  0.00    -0.052 C 
BRANCH  33  34
ATOM     34  C   UNL A   1      47.256 -22.079 -39.977  0.00  0.00    -0.037 C 
BRANCH  34  35
ATOM     35  C   UNL A   1      46.478 -21.046 -39.160  0.00  0.00    +0.009 C 
BRANCH  35  36
ATOM     36  N   UNL A   1      47.186 -19.760 -39.223  0.00  0.00    -0.343 N 
ATOM     37  H   UNL A   1      48.070 -19.638 -39.638  0.00  0.00    +0.000 HD
BRANCH  36  38
ATOM     38  C   UNL A   1      46.439 -18.710 -38.612  0.00  0.00    +0.041 A 
ATOM     39  C   UNL A   1      46.680 -18.339 -37.273  0.00  0.00    -0.005 A 
ATOM     40  C   UNL A   1      45.948 -17.265 -36.759  0.00  0.00    +0.047 A 
ATOM     41  N   UNL A   1      45.068 -16.544 -37.494  0.00  0.00    -0.251 NA
ATOM     42  C   UNL A   1      44.849 -16.890 -38.770  0.00  0.00    +0.073 A 
ATOM     43  C   UNL A   1      43.931 -16.151 -39.504  0.00  0.00    -0.036 A 
ATOM     44  C   UNL A   1      43.630 -16.454 -40.834  0.00  0.00    -0.060 A 
ATOM     45  C   UNL A   1      44.257 -17.526 -41.451  0.00  0.00    -0.061 A 
ATOM     46  C   UNL A   1      45.184 -18.279 -40.733  0.00  0.00    -0.051 A 
ATOM     47  C   UNL A   1      45.505 -17.970 -39.388  0.00  0.00    +0.021 A 
ATOM     48  C   UNL A   1      46.133 -16.781 -35.343  0.00  0.00    -0.010 C 
ATOM     49  C   UNL A   1      46.763 -17.823 -34.426  0.00  0.00    -0.047 C 
ATOM     50  C   UNL A   1      48.001 -18.405 -35.089  0.00  0.00    -0.049 C 
ATOM     51  C   UNL A   1      47.630 -19.114 -36.390  0.00  0.00    -0.024 C 
ENDBRANCH  36  38
ENDBRANCH  35  36
ENDBRANCH  34  35
ENDBRANCH  33  34
ENDBRANCH  32  33
ENDBRANCH  31  32
ENDBRANCH  30  31
ENDBRANCH  29  30
ENDBRANCH  28  29
ENDBRANCH   3  28
TORSDOF 17
ENDMDL
MODEL 10
REMARK VINA RESULT:    -6.409      2.327      5.883
REMARK INTER + INTRA:         -18.477
REMARK INTER:                 -12.793
REMARK INTRA:                  -5.683
REMARK UNBOUND:                -5.698
REMARK  Name = cpd43.pdb
REMARK  19 active torsions:
REMARK  status: ('A' for Active; 'I' for Inactive)
REMARK    1  A    between atoms: C_1  and  C_2
REMARK    2  A    between atoms: C_6  and  N_7
REMARK    3  A    between atoms: N_7  and  C_8
REMARK    4  A    between atoms: C_13  and  C_14
REMARK    5  A    between atoms: N_16  and  C_17
REMARK    6  A    between atoms: C_17  and  C_18
REMARK    7  A    between atoms: C_18  and  C_19
REMARK    8  A    between atoms: C_19  and  C_20
REMARK    9  A    between atoms: N_22  and  C_23
REMARK   10  A    between atoms: C_23  and  C_24
REMARK   11  A    between atoms: C_24  and  C_25
REMARK   12  A    between atoms: C_25  and  C_26
REMARK   13  A    between atoms: C_26  and  C_27
REMARK   14  A    between atoms: C_27  and  C_28
REMARK   15  A    between atoms: C_28  and  C_29
REMARK   16  A    between atoms: C_29  and  C_30
REMARK   17  A    between atoms: C_30  and  N_31
REMARK   18  A    between atoms: N_31  and  C_32
REMARK   19  A    between atoms: C_46  and  C_47
REMARK                            x       y       z     vdW  Elec       q    Type
REMARK                         _______ _______ _______ _____ _____    ______ ____
ROOT
ATOM      1  C   UNL A   1      40.953 -15.944 -39.448  0.00  0.00    +0.213 C 
ATOM      2  O   UNL A   1      40.364 -14.874 -39.328  0.00  0.00    -0.276 OA
ATOM      3  N   UNL A   1      40.437 -17.148 -39.030  0.00  0.00    -0.315 N 
ATOM      4  H   UNL A   1      40.982 -17.961 -39.130  0.00  0.00    +0.000 HD
ENDROOT
BRANCH   1   5
ATOM      5  C   UNL A   1      42.308 -16.038 -40.118  0.00  0.00    +0.025 C 
BRANCH   5   6
ATOM      6  C   UNL A   1      43.342 -16.756 -39.252  0.00  0.00    -0.029 C 
BRANCH   6   7
ATOM      7  C   UNL A   1      43.994 -15.828 -38.227  0.00  0.00    +0.012 C 
BRANCH   7  10
ATOM      8  C   UNL A   1      46.465 -16.399 -38.416  0.00  0.00    +0.246 C 
ATOM      9  O   UNL A   1      47.518 -16.139 -38.988  0.00  0.00    -0.270 OA
ATOM     10  N   UNL A   1      45.391 -15.551 -38.523  0.00  0.00    -0.311 N 
ATOM     11  H   UNL A   1      45.591 -14.641 -38.841  0.00  0.00    +0.000 HD
BRANCH   8  17
ATOM     12  C   UNL A   1      46.502 -18.915 -38.211  0.00  0.00    +0.044 A 
ATOM     13  C   UNL A   1      46.398 -20.029 -37.361  0.00  0.00    -0.040 A 
ATOM     14  C   UNL A   1      46.068 -19.886 -36.008  0.00  0.00    -0.060 A 
ATOM     15  C   UNL A   1      45.849 -18.621 -35.470  0.00  0.00    -0.061 A 
ATOM     16  C   UNL A   1      45.986 -17.496 -36.280  0.00  0.00    -0.048 A 
ATOM     17  C   UNL A   1      46.346 -17.641 -37.629  0.00  0.00    +0.058 A 
BRANCH  12  18
ATOM     18  N   UNL A   1      46.859 -19.085 -39.574  0.00  0.00    -0.314 N 
ATOM     19  H   UNL A   1      47.688 -18.643 -39.868  0.00  0.00    +0.000 HD
BRANCH  18  25
ATOM     20  C   UNL A   1      46.512 -23.074 -42.573  0.00  0.00    -0.039 C 
ATOM     21  C   UNL A   1      46.022 -21.743 -42.069  0.00  0.00    -0.046 A 
ATOM     22  C   UNL A   1      44.900 -21.165 -42.682  0.00  0.00    -0.058 A 
ATOM     23  C   UNL A   1      44.421 -19.927 -42.266  0.00  0.00    -0.060 A 
ATOM     24  C   UNL A   1      45.054 -19.254 -41.225  0.00  0.00    -0.040 A 
ATOM     25  C   UNL A   1      46.151 -19.824 -40.560  0.00  0.00    +0.035 A 
ATOM     26  C   UNL A   1      46.648 -21.077 -40.989  0.00  0.00    -0.026 A 
ATOM     27  C   UNL A   1      47.865 -21.671 -40.322  0.00  0.00    -0.038 C 
ENDBRANCH  18  25
ENDBRANCH  12  18
ENDBRANCH   8  17
ENDBRANCH   7  10
ENDBRANCH   6   7
ENDBRANCH   5   6
ENDBRANCH   1   5
BRANCH   3  28
ATOM     28  C   UNL A   1      39.115 -17.255 -38.446  0.00  0.00    +0.012 C 
BRANCH  28  29
ATOM     29  C   UNL A   1      39.160 -17.565 -36.950  0.00  0.00    -0.037 C 
BRANCH  29  30
ATOM     30  C   UNL A   1      38.688 -18.991 -36.668  0.00  0.00    -0.052 C 
BRANCH  30  31
ATOM     31  C   UNL A   1      38.363 -19.195 -35.186  0.00  0.00    -0.053 C 
BRANCH  31  32
ATOM     32  C   UNL A   1      37.256 -20.236 -35.004  0.00  0.00    -0.053 C 
BRANCH  32  33
ATOM     33  C   UNL A   1      37.683 -21.426 -34.140  0.00  0.00    -0.052 C 
BRANCH  33  34
ATOM     34  C   UNL A   1      38.845 -22.217 -34.747  0.00  0.00    -0.037 C 
BRANCH  34  35
ATOM     35  C   UNL A   1      40.096 -22.135 -33.869  0.00  0.00    +0.009 C 
BRANCH  35  36
ATOM     36  N   UNL A   1      41.281 -22.339 -34.714  0.00  0.00    -0.343 N 
ATOM     37  H   UNL A   1      41.797 -23.176 -34.746  0.00  0.00    +0.000 HD
BRANCH  36  38
ATOM     38  C   UNL A   1      41.592 -21.178 -35.483  0.00  0.00    +0.041 A 
ATOM     39  C   UNL A   1      41.890 -19.954 -34.850  0.00  0.00    -0.005 A 
ATOM     40  C   UNL A   1      42.239 -18.874 -35.667  0.00  0.00    +0.047 A 
ATOM     41  N   UNL A   1      42.352 -18.965 -37.013  0.00  0.00    -0.251 NA
ATOM     42  C   UNL A   1      42.081 -20.133 -37.612  0.00  0.00    +0.073 A 
ATOM     43  C   UNL A   1      42.185 -20.203 -38.995  0.00  0.00    -0.036 A 
ATOM     44  C   UNL A   1      41.904 -21.376 -39.700  0.00  0.00    -0.060 A 
ATOM     45  C   UNL A   1      41.503 -22.510 -39.010  0.00  0.00    -0.061 A 
ATOM     46  C   UNL A   1      41.394 -22.462 -37.621  0.00  0.00    -0.051 A 
ATOM     47  C   UNL A   1      41.692 -21.280 -36.898  0.00  0.00    +0.021 A 
ATOM     48  C   UNL A   1      42.584 -17.523 -35.094  0.00  0.00    -0.010 C 
ATOM     49  C   UNL A   1      42.047 -17.309 -33.684  0.00  0.00    -0.047 C 
ATOM     50  C   UNL A   1      42.408 -18.503 -32.814  0.00  0.00    -0.049 C 
ATOM     51  C   UNL A   1      41.760 -19.776 -33.356  0.00  0.00    -0.024 C 
ENDBRANCH  36  38
ENDBRANCH  35  36
ENDBRANCH  34  35
ENDBRANCH  33  34
ENDBRANCH  32  33
ENDBRANCH  31  32
ENDBRANCH  30  31
ENDBRANCH  29  30
ENDBRANCH  28  29
ENDBRANCH   3  28
TORSDOF 17
ENDMDL
MODEL 11
REMARK VINA RESULT:    -6.347      2.591      6.153
REMARK INTER + INTRA:         -18.351
REMARK INTER:                 -11.162
REMARK INTRA:                  -7.189
REMARK UNBOUND:                -5.698
REMARK  Name = cpd43.pdb
REMARK  19 active torsions:
REMARK  status: ('A' for Active; 'I' for Inactive)
REMARK    1  A    between atoms: C_1  and  C_2
REMARK    2  A    between atoms: C_6  and  N_7
REMARK    3  A    between atoms: N_7  and  C_8
REMARK    4  A    between atoms: C_13  and  C_14
REMARK    5  A    between atoms: N_16  and  C_17
REMARK    6  A    between atoms: C_17  and  C_18
REMARK    7  A    between atoms: C_18  and  C_19
REMARK    8  A    between atoms: C_19  and  C_20
REMARK    9  A    between atoms: N_22  and  C_23
REMARK   10  A    between atoms: C_23  and  C_24
REMARK   11  A    between atoms: C_24  and  C_25
REMARK   12  A    between atoms: C_25  and  C_26
REMARK   13  A    between atoms: C_26  and  C_27
REMARK   14  A    between atoms: C_27  and  C_28
REMARK   15  A    between atoms: C_28  and  C_29
REMARK   16  A    between atoms: C_29  and  C_30
REMARK   17  A    between atoms: C_30  and  N_31
REMARK   18  A    between atoms: N_31  and  C_32
REMARK   19  A    between atoms: C_46  and  C_47
REMARK                            x       y       z     vdW  Elec       q    Type
REMARK                         _______ _______ _______ _____ _____    ______ ____
ROOT
ATOM      1  C   UNL A   1      40.008 -20.428 -38.006  0.00  0.00    +0.213 C 
ATOM      2  O   UNL A   1      39.973 -21.086 -36.971  0.00  0.00    -0.276 OA
ATOM      3  N   UNL A   1      40.636 -20.850 -39.155  0.00  0.00    -0.315 N 
ATOM      4  H   UNL A   1      40.652 -20.253 -39.937  0.00  0.00    +0.000 HD
ENDROOT
BRANCH   1   5
ATOM      5  C   UNL A   1      39.316 -19.087 -38.124  0.00  0.00    +0.025 C 
BRANCH   5   6
ATOM      6  C   UNL A   1      38.896 -18.522 -36.768  0.00  0.00    -0.029 C 
BRANCH   6   7
ATOM      7  C   UNL A   1      40.044 -17.818 -36.045  0.00  0.00    +0.012 C 
BRANCH   7  10
ATOM      8  C   UNL A   1      40.966 -18.491 -33.773  0.00  0.00    +0.246 C 
ATOM      9  O   UNL A   1      41.285 -19.431 -33.053  0.00  0.00    -0.270 OA
ATOM     10  N   UNL A   1      40.742 -18.689 -35.112  0.00  0.00    -0.311 N 
ATOM     11  H   UNL A   1      41.099 -19.526 -35.489  0.00  0.00    +0.000 HD
BRANCH   8  17
ATOM     12  C   UNL A   1      41.876 -16.245 -33.065  0.00  0.00    +0.044 A 
ATOM     13  C   UNL A   1      41.597 -14.979 -32.523  0.00  0.00    -0.040 A 
ATOM     14  C   UNL A   1      40.322 -14.656 -32.044  0.00  0.00    -0.060 A 
ATOM     15  C   UNL A   1      39.291 -15.588 -32.112  0.00  0.00    -0.061 A 
ATOM     16  C   UNL A   1      39.528 -16.835 -32.683  0.00  0.00    -0.048 A 
ATOM     17  C   UNL A   1      40.800 -17.146 -33.189  0.00  0.00    +0.058 A 
BRANCH  12  18
ATOM     18  N   UNL A   1      43.171 -16.541 -33.564  0.00  0.00    -0.314 N 
ATOM     19  H   UNL A   1      43.754 -17.076 -32.978  0.00  0.00    +0.000 HD
BRANCH  18  25
ATOM     20  C   UNL A   1      47.107 -16.112 -36.622  0.00  0.00    -0.039 C 
ATOM     21  C   UNL A   1      45.660 -15.884 -36.278  0.00  0.00    -0.046 A 
ATOM     22  C   UNL A   1      44.864 -15.155 -37.175  0.00  0.00    -0.058 A 
ATOM     23  C   UNL A   1      43.525 -14.901 -36.893  0.00  0.00    -0.060 A 
ATOM     24  C   UNL A   1      42.963 -15.380 -35.713  0.00  0.00    -0.040 A 
ATOM     25  C   UNL A   1      43.719 -16.150 -34.816  0.00  0.00    +0.035 A 
ATOM     26  C   UNL A   1      45.083 -16.400 -35.093  0.00  0.00    -0.026 A 
ATOM     27  C   UNL A   1      45.922 -17.174 -34.106  0.00  0.00    -0.038 C 
ENDBRANCH  18  25
ENDBRANCH  12  18
ENDBRANCH   8  17
ENDBRANCH   7  10
ENDBRANCH   6   7
ENDBRANCH   5   6
ENDBRANCH   1   5
BRANCH   3  28
ATOM     28  C   UNL A   1      41.276 -22.147 -39.248  0.00  0.00    +0.012 C 
BRANCH  28  29
ATOM     29  C   UNL A   1      42.742 -22.047 -39.667  0.00  0.00    -0.037 C 
BRANCH  29  30
ATOM     30  C   UNL A   1      42.976 -20.833 -40.567  0.00  0.00    -0.052 C 
BRANCH  30  31
ATOM     31  C   UNL A   1      43.272 -21.250 -42.010  0.00  0.00    -0.053 C 
BRANCH  31  32
ATOM     32  C   UNL A   1      44.524 -20.546 -42.540  0.00  0.00    -0.053 C 
BRANCH  32  33
ATOM     33  C   UNL A   1      45.828 -21.163 -42.027  0.00  0.00    -0.052 C 
BRANCH  33  34
ATOM     34  C   UNL A   1      46.849 -20.113 -41.582  0.00  0.00    -0.037 C 
BRANCH  34  35
ATOM     35  C   UNL A   1      47.103 -20.183 -40.074  0.00  0.00    +0.009 C 
BRANCH  35  36
ATOM     36  N   UNL A   1      46.936 -18.840 -39.502  0.00  0.00    -0.343 N 
ATOM     37  H   UNL A   1      47.625 -18.139 -39.533  0.00  0.00    +0.000 HD
BRANCH  36  38
ATOM     38  C   UNL A   1      45.654 -18.675 -38.899  0.00  0.00    +0.041 A 
ATOM     39  C   UNL A   1      44.625 -17.983 -39.570  0.00  0.00    -0.005 A 
ATOM     40  C   UNL A   1      43.379 -17.908 -38.940  0.00  0.00    +0.047 A 
ATOM     41  N   UNL A   1      43.108 -18.504 -37.755  0.00  0.00    -0.251 NA
ATOM     42  C   UNL A   1      44.083 -19.172 -37.124  0.00  0.00    +0.073 A 
ATOM     43  C   UNL A   1      43.791 -19.763 -35.901  0.00  0.00    -0.036 A 
ATOM     44  C   UNL A   1      44.753 -20.462 -35.168  0.00  0.00    -0.060 A 
ATOM     45  C   UNL A   1      46.044 -20.573 -35.664  0.00  0.00    -0.061 A 
ATOM     46  C   UNL A   1      46.357 -19.989 -36.890  0.00  0.00    -0.051 A 
ATOM     47  C   UNL A   1      45.384 -19.291 -37.646  0.00  0.00    +0.021 A 
ATOM     48  C   UNL A   1      42.209 -17.200 -39.574  0.00  0.00    -0.010 C 
ATOM     49  C   UNL A   1      42.618 -16.195 -40.644  0.00  0.00    -0.047 C 
ATOM     50  C   UNL A   1      43.593 -16.847 -41.611  0.00  0.00    -0.049 C 
ATOM     51  C   UNL A   1      44.866 -17.274 -40.883  0.00  0.00    -0.024 C 
ENDBRANCH  36  38
ENDBRANCH  35  36
ENDBRANCH  34  35
ENDBRANCH  33  34
ENDBRANCH  32  33
ENDBRANCH  31  32
ENDBRANCH  30  31
ENDBRANCH  29  30
ENDBRANCH  28  29
ENDBRANCH   3  28
TORSDOF 17
ENDMDL
MODEL 12
REMARK VINA RESULT:    -6.323      1.936      5.655
REMARK INTER + INTRA:         -18.305
REMARK INTER:                 -12.876
REMARK INTRA:                  -5.428
REMARK UNBOUND:                -5.698
REMARK  Name = cpd43.pdb
REMARK  19 active torsions:
REMARK  status: ('A' for Active; 'I' for Inactive)
REMARK    1  A    between atoms: C_1  and  C_2
REMARK    2  A    between atoms: C_6  and  N_7
REMARK    3  A    between atoms: N_7  and  C_8
REMARK    4  A    between atoms: C_13  and  C_14
REMARK    5  A    between atoms: N_16  and  C_17
REMARK    6  A    between atoms: C_17  and  C_18
REMARK    7  A    between atoms: C_18  and  C_19
REMARK    8  A    between atoms: C_19  and  C_20
REMARK    9  A    between atoms: N_22  and  C_23
REMARK   10  A    between atoms: C_23  and  C_24
REMARK   11  A    between atoms: C_24  and  C_25
REMARK   12  A    between atoms: C_25  and  C_26
REMARK   13  A    between atoms: C_26  and  C_27
REMARK   14  A    between atoms: C_27  and  C_28
REMARK   15  A    between atoms: C_28  and  C_29
REMARK   16  A    between atoms: C_29  and  C_30
REMARK   17  A    between atoms: C_30  and  N_31
REMARK   18  A    between atoms: N_31  and  C_32
REMARK   19  A    between atoms: C_46  and  C_47
REMARK                            x       y       z     vdW  Elec       q    Type
REMARK                         _______ _______ _______ _____ _____    ______ ____
ROOT
ATOM      1  C   UNL A   1      44.809 -19.987 -36.235  0.00  0.00    +0.213 C 
ATOM      2  O   UNL A   1      44.399 -19.960 -37.391  0.00  0.00    -0.276 OA
ATOM      3  N   UNL A   1      43.988 -20.110 -35.138  0.00  0.00    -0.315 N 
ATOM      4  H   UNL A   1      44.386 -20.090 -34.239  0.00  0.00    +0.000 HD
ENDROOT
BRANCH   1   5
ATOM      5  C   UNL A   1      46.287 -19.925 -35.910  0.00  0.00    +0.025 C 
BRANCH   5   6
ATOM      6  C   UNL A   1      46.681 -18.623 -35.215  0.00  0.00    -0.029 C 
BRANCH   6   7
ATOM      7  C   UNL A   1      46.930 -17.483 -36.203  0.00  0.00    +0.012 C 
BRANCH   7  10
ATOM      8  C   UNL A   1      45.283 -16.222 -37.674  0.00  0.00    +0.246 C 
ATOM      9  O   UNL A   1      44.122 -15.848 -37.794  0.00  0.00    -0.270 OA
ATOM     10  N   UNL A   1      45.737 -16.694 -36.468  0.00  0.00    -0.311 N 
ATOM     11  H   UNL A   1      45.185 -16.472 -35.683  0.00  0.00    +0.000 HD
BRANCH   8  17
ATOM     12  C   UNL A   1      46.204 -17.203 -39.810  0.00  0.00    +0.044 A 
ATOM     13  C   UNL A   1      47.087 -17.048 -40.892  0.00  0.00    -0.040 A 
ATOM     14  C   UNL A   1      47.977 -15.970 -40.959  0.00  0.00    -0.060 A 
ATOM     15  C   UNL A   1      47.994 -15.012 -39.950  0.00  0.00    -0.061 A 
ATOM     16  C   UNL A   1      47.102 -15.117 -38.886  0.00  0.00    -0.048 A 
ATOM     17  C   UNL A   1      46.189 -16.183 -38.837  0.00  0.00    +0.058 A 
BRANCH  12  18
ATOM     18  N   UNL A   1      45.296 -18.293 -39.776  0.00  0.00    -0.314 N 
ATOM     19  H   UNL A   1      44.777 -18.404 -38.947  0.00  0.00    +0.000 HD
BRANCH  18  25
ATOM     20  C   UNL A   1      46.379 -22.646 -41.992  0.00  0.00    -0.039 C 
ATOM     21  C   UNL A   1      45.636 -21.338 -41.921  0.00  0.00    -0.046 A 
ATOM     22  C   UNL A   1      44.773 -20.999 -42.974  0.00  0.00    -0.058 A 
ATOM     23  C   UNL A   1      44.079 -19.793 -42.964  0.00  0.00    -0.060 A 
ATOM     24  C   UNL A   1      44.235 -18.913 -41.897  0.00  0.00    -0.040 A 
ATOM     25  C   UNL A   1      45.056 -19.241 -40.807  0.00  0.00    +0.035 A 
ATOM     26  C   UNL A   1      45.772 -20.460 -40.819  0.00  0.00    -0.026 A 
ATOM     27  C   UNL A   1      46.706 -20.795 -39.682  0.00  0.00    -0.038 C 
ENDBRANCH  18  25
ENDBRANCH  12  18
ENDBRANCH   8  17
ENDBRANCH   7  10
ENDBRANCH   6   7
ENDBRANCH   5   6
ENDBRANCH   1   5
BRANCH   3  28
ATOM     28  C   UNL A   1      42.553 -20.268 -35.268  0.00  0.00    +0.012 C 
BRANCH  28  29
ATOM     29  C   UNL A   1      41.784 -19.032 -34.806  0.00  0.00    -0.037 C 
BRANCH  29  30
ATOM     30  C   UNL A   1      41.438 -19.121 -33.319  0.00  0.00    -0.052 C 
BRANCH  30  31
ATOM     31  C   UNL A   1      40.032 -18.588 -33.035  0.00  0.00    -0.053 C 
BRANCH  31  32
ATOM     32  C   UNL A   1      39.146 -19.674 -32.420  0.00  0.00    -0.053 C 
BRANCH  32  33
ATOM     33  C   UNL A   1      39.755 -21.076 -32.514  0.00  0.00    -0.052 C 
BRANCH  33  34
ATOM     34  C   UNL A   1      38.968 -22.006 -33.441  0.00  0.00    -0.037 C 
BRANCH  34  35
ATOM     35  C   UNL A   1      39.690 -22.208 -34.775  0.00  0.00    +0.009 C 
BRANCH  35  36
ATOM     36  N   UNL A   1      38.730 -22.010 -35.869  0.00  0.00    -0.343 N 
ATOM     37  H   UNL A   1      37.927 -22.562 -36.003  0.00  0.00    +0.000 HD
BRANCH  36  38
ATOM     38  C   UNL A   1      39.101 -20.922 -36.713  0.00  0.00    +0.041 A 
ATOM     39  C   UNL A   1      38.523 -19.647 -36.541  0.00  0.00    -0.005 A 
ATOM     40  C   UNL A   1      38.975 -18.615 -37.369  0.00  0.00    +0.047 A 
ATOM     41  N   UNL A   1      39.966 -18.772 -38.279  0.00  0.00    -0.251 NA
ATOM     42  C   UNL A   1      40.524 -19.981 -38.432  0.00  0.00    +0.073 A 
ATOM     43  C   UNL A   1      41.526 -20.127 -39.383  0.00  0.00    -0.036 A 
ATOM     44  C   UNL A   1      42.148 -21.356 -39.619  0.00  0.00    -0.060 A 
ATOM     45  C   UNL A   1      41.759 -22.471 -38.893  0.00  0.00    -0.061 A 
ATOM     46  C   UNL A   1      40.757 -22.346 -37.933  0.00  0.00    -0.051 A 
ATOM     47  C   UNL A   1      40.131 -21.101 -37.677  0.00  0.00    +0.021 A 
ATOM     48  C   UNL A   1      38.430 -17.214 -37.264  0.00  0.00    -0.010 C 
ATOM     49  C   UNL A   1      37.068 -17.145 -36.584  0.00  0.00    -0.047 C 
ATOM     50  C   UNL A   1      37.105 -17.934 -35.285  0.00  0.00    -0.049 C 
ATOM     51  C   UNL A   1      37.397 -19.408 -35.562  0.00  0.00    -0.024 C 
ENDBRANCH  36  38
ENDBRANCH  35  36
ENDBRANCH  34  35
ENDBRANCH  33  34
ENDBRANCH  32  33
ENDBRANCH  31  32
ENDBRANCH  30  31
ENDBRANCH  29  30
ENDBRANCH  28  29
ENDBRANCH   3  28
TORSDOF 17
ENDMDL
MODEL 13
REMARK VINA RESULT:    -6.229      2.589      6.830
REMARK INTER + INTRA:         -18.118
REMARK INTER:                 -11.040
REMARK INTRA:                  -7.078
REMARK UNBOUND:                -5.698
REMARK  Name = cpd43.pdb
REMARK  19 active torsions:
REMARK  status: ('A' for Active; 'I' for Inactive)
REMARK    1  A    between atoms: C_1  and  C_2
REMARK    2  A    between atoms: C_6  and  N_7
REMARK    3  A    between atoms: N_7  and  C_8
REMARK    4  A    between atoms: C_13  and  C_14
REMARK    5  A    between atoms: N_16  and  C_17
REMARK    6  A    between atoms: C_17  and  C_18
REMARK    7  A    between atoms: C_18  and  C_19
REMARK    8  A    between atoms: C_19  and  C_20
REMARK    9  A    between atoms: N_22  and  C_23
REMARK   10  A    between atoms: C_23  and  C_24
REMARK   11  A    between atoms: C_24  and  C_25
REMARK   12  A    between atoms: C_25  and  C_26
REMARK   13  A    between atoms: C_26  and  C_27
REMARK   14  A    between atoms: C_27  and  C_28
REMARK   15  A    between atoms: C_28  and  C_29
REMARK   16  A    between atoms: C_29  and  C_30
REMARK   17  A    between atoms: C_30  and  N_31
REMARK   18  A    between atoms: N_31  and  C_32
REMARK   19  A    between atoms: C_46  and  C_47
REMARK                            x       y       z     vdW  Elec       q    Type
REMARK                         _______ _______ _______ _____ _____    ______ ____
ROOT
ATOM      1  C   UNL A   1      43.814 -15.433 -41.125  0.00  0.00    +0.213 C 
ATOM      2  O   UNL A   1      44.084 -14.387 -41.706  0.00  0.00    -0.276 OA
ATOM      3  N   UNL A   1      42.729 -15.585 -40.294  0.00  0.00    -0.315 N 
ATOM      4  H   UNL A   1      42.596 -16.446 -39.835  0.00  0.00    +0.000 HD
ENDROOT
BRANCH   1   5
ATOM      5  C   UNL A   1      44.647 -16.685 -41.308  0.00  0.00    +0.025 C 
BRANCH   5   6
ATOM      6  C   UNL A   1      45.601 -16.931 -40.141  0.00  0.00    -0.029 C 
BRANCH   6   7
ATOM      7  C   UNL A   1      46.832 -17.740 -40.551  0.00  0.00    +0.012 C 
BRANCH   7  10
ATOM      8  C   UNL A   1      46.671 -20.107 -39.637  0.00  0.00    +0.246 C 
ATOM      9  O   UNL A   1      47.243 -20.979 -38.990  0.00  0.00    -0.270 OA
ATOM     10  N   UNL A   1      47.136 -18.816 -39.621  0.00  0.00    -0.311 N 
ATOM     11  H   UNL A   1      47.754 -18.590 -38.888  0.00  0.00    +0.000 HD
BRANCH   8  17
ATOM     12  C   UNL A   1      44.215 -20.631 -39.885  0.00  0.00    +0.044 A 
ATOM     13  C   UNL A   1      43.157 -20.932 -40.761  0.00  0.00    -0.040 A 
ATOM     14  C   UNL A   1      43.377 -21.134 -42.128  0.00  0.00    -0.060 A 
ATOM     15  C   UNL A   1      44.661 -21.024 -42.655  0.00  0.00    -0.061 A 
ATOM     16  C   UNL A   1      45.721 -20.687 -41.818  0.00  0.00    -0.048 A 
ATOM     17  C   UNL A   1      45.492 -20.455 -40.452  0.00  0.00    +0.058 A 
BRANCH  12  18
ATOM     18  N   UNL A   1      43.962 -20.410 -38.506  0.00  0.00    -0.314 N 
ATOM     19  H   UNL A   1      44.632 -20.761 -37.877  0.00  0.00    +0.000 HD
BRANCH  18  25
ATOM     20  C   UNL A   1      39.584 -20.564 -36.090  0.00  0.00    -0.039 C 
ATOM     21  C   UNL A   1      40.678 -19.825 -36.813  0.00  0.00    -0.046 A 
ATOM     22  C   UNL A   1      40.526 -18.448 -37.033  0.00  0.00    -0.058 A 
ATOM     23  C   UNL A   1      41.500 -17.725 -37.714  0.00  0.00    -0.060 A 
ATOM     24  C   UNL A   1      42.644 -18.369 -38.178  0.00  0.00    -0.040 A 
ATOM     25  C   UNL A   1      42.848 -19.736 -37.936  0.00  0.00    +0.035 A 
ATOM     26  C   UNL A   1      41.854 -20.477 -37.255  0.00  0.00    -0.026 A 
ATOM     27  C   UNL A   1      42.035 -21.961 -37.044  0.00  0.00    -0.038 C 
ENDBRANCH  18  25
ENDBRANCH  12  18
ENDBRANCH   8  17
ENDBRANCH   7  10
ENDBRANCH   6   7
ENDBRANCH   5   6
ENDBRANCH   1   5
BRANCH   3  28
ATOM     28  C   UNL A   1      41.777 -14.516 -40.072  0.00  0.00    +0.012 C 
BRANCH  28  29
ATOM     29  C   UNL A   1      41.652 -14.141 -38.596  0.00  0.00    -0.037 C 
BRANCH  29  30
ATOM     30  C   UNL A   1      42.930 -13.474 -38.087  0.00  0.00    -0.052 C 
BRANCH  30  31
ATOM     31  C   UNL A   1      43.628 -14.330 -37.027  0.00  0.00    -0.053 C 
BRANCH  31  32
ATOM     32  C   UNL A   1      44.043 -13.483 -35.822  0.00  0.00    -0.053 C 
BRANCH  32  33
ATOM     33  C   UNL A   1      43.123 -13.663 -34.611  0.00  0.00    -0.052 C 
BRANCH  33  34
ATOM     34  C   UNL A   1      43.747 -14.529 -33.513  0.00  0.00    -0.037 C 
BRANCH  34  35
ATOM     35  C   UNL A   1      42.804 -15.656 -33.086  0.00  0.00    +0.009 C 
BRANCH  35  36
ATOM     36  N   UNL A   1      42.367 -16.387 -34.283  0.00  0.00    -0.343 N 
ATOM     37  H   UNL A   1      41.881 -15.976 -35.033  0.00  0.00    +0.000 HD
BRANCH  36  38
ATOM     38  C   UNL A   1      42.732 -17.765 -34.228  0.00  0.00    +0.041 A 
ATOM     39  C   UNL A   1      43.983 -18.198 -34.713  0.00  0.00    -0.005 A 
ATOM     40  C   UNL A   1      44.294 -19.555 -34.577  0.00  0.00    +0.047 A 
ATOM     41  N   UNL A   1      43.481 -20.446 -33.962  0.00  0.00    -0.251 NA
ATOM     42  C   UNL A   1      42.297 -20.031 -33.490  0.00  0.00    +0.073 A 
ATOM     43  C   UNL A   1      41.469 -20.962 -32.879  0.00  0.00    -0.036 A 
ATOM     44  C   UNL A   1      40.212 -20.618 -32.375  0.00  0.00    -0.060 A 
ATOM     45  C   UNL A   1      39.765 -19.309 -32.487  0.00  0.00    -0.061 A 
ATOM     46  C   UNL A   1      40.582 -18.358 -33.096  0.00  0.00    -0.051 A 
ATOM     47  C   UNL A   1      41.863 -18.697 -33.596  0.00  0.00    +0.021 A 
ATOM     48  C   UNL A   1      45.607 -20.122 -35.054  0.00  0.00    -0.010 C 
ATOM     49  C   UNL A   1      46.298 -19.251 -36.096  0.00  0.00    -0.047 C 
ATOM     50  C   UNL A   1      46.342 -17.811 -35.611  0.00  0.00    -0.049 C 
ATOM     51  C   UNL A   1      44.928 -17.263 -35.431  0.00  0.00    -0.024 C 
ENDBRANCH  36  38
ENDBRANCH  35  36
ENDBRANCH  34  35
ENDBRANCH  33  34
ENDBRANCH  32  33
ENDBRANCH  31  32
ENDBRANCH  30  31
ENDBRANCH  29  30
ENDBRANCH  28  29
ENDBRANCH   3  28
TORSDOF 17
ENDMDL
MODEL 14
REMARK VINA RESULT:    -6.186      1.889      5.746
REMARK INTER + INTRA:         -18.031
REMARK INTER:                 -10.761
REMARK INTRA:                  -7.269
REMARK UNBOUND:                -5.698
REMARK  Name = cpd43.pdb
REMARK  19 active torsions:
REMARK  status: ('A' for Active; 'I' for Inactive)
REMARK    1  A    between atoms: C_1  and  C_2
REMARK    2  A    between atoms: C_6  and  N_7
REMARK    3  A    between atoms: N_7  and  C_8
REMARK    4  A    between atoms: C_13  and  C_14
REMARK    5  A    between atoms: N_16  and  C_17
REMARK    6  A    between atoms: C_17  and  C_18
REMARK    7  A    between atoms: C_18  and  C_19
REMARK    8  A    between atoms: C_19  and  C_20
REMARK    9  A    between atoms: N_22  and  C_23
REMARK   10  A    between atoms: C_23  and  C_24
REMARK   11  A    between atoms: C_24  and  C_25
REMARK   12  A    between atoms: C_25  and  C_26
REMARK   13  A    between atoms: C_26  and  C_27
REMARK   14  A    between atoms: C_27  and  C_28
REMARK   15  A    between atoms: C_28  and  C_29
REMARK   16  A    between atoms: C_29  and  C_30
REMARK   17  A    between atoms: C_30  and  N_31
REMARK   18  A    between atoms: N_31  and  C_32
REMARK   19  A    between atoms: C_46  and  C_47
REMARK                            x       y       z     vdW  Elec       q    Type
REMARK                         _______ _______ _______ _____ _____    ______ ____
ROOT
ATOM      1  C   UNL A   1      45.156 -16.204 -35.646  0.00  0.00    +0.213 C 
ATOM      2  O   UNL A   1      44.491 -15.190 -35.833  0.00  0.00    -0.276 OA
ATOM      3  N   UNL A   1      45.071 -16.972 -34.508  0.00  0.00    -0.315 N 
ATOM      4  H   UNL A   1      45.662 -17.754 -34.415  0.00  0.00    +0.000 HD
ENDROOT
BRANCH   1   5
ATOM      5  C   UNL A   1      46.118 -16.731 -36.690  0.00  0.00    +0.025 C 
BRANCH   5   6
ATOM      6  C   UNL A   1      46.541 -18.175 -36.424  0.00  0.00    -0.029 C 
BRANCH   6   7
ATOM      7  C   UNL A   1      46.747 -18.972 -37.711  0.00  0.00    +0.012 C 
BRANCH   7  10
ATOM      8  C   UNL A   1      46.802 -18.243 -40.148  0.00  0.00    +0.246 C 
ATOM      9  O   UNL A   1      46.981 -17.303 -40.914  0.00  0.00    -0.270 OA
ATOM     10  N   UNL A   1      47.169 -18.141 -38.829  0.00  0.00    -0.311 N 
ATOM     11  H   UNL A   1      47.797 -17.415 -38.612  0.00  0.00    +0.000 HD
BRANCH   8  17
ATOM     12  C   UNL A   1      44.776 -19.587 -40.826  0.00  0.00    +0.044 A 
ATOM     13  C   UNL A   1      44.284 -20.803 -41.331  0.00  0.00    -0.040 A 
ATOM     14  C   UNL A   1      45.130 -21.893 -41.559  0.00  0.00    -0.060 A 
ATOM     15  C   UNL A   1      46.494 -21.788 -41.303  0.00  0.00    -0.061 A 
ATOM     16  C   UNL A   1      47.016 -20.582 -40.842  0.00  0.00    -0.048 A 
ATOM     17  C   UNL A   1      46.168 -19.480 -40.642  0.00  0.00    +0.058 A 
BRANCH  12  18
ATOM     18  N   UNL A   1      43.900 -18.489 -40.623  0.00  0.00    -0.314 N 
ATOM     19  H   UNL A   1      43.774 -17.882 -41.388  0.00  0.00    +0.000 HD
BRANCH  18  25
ATOM     20  C   UNL A   1      41.219 -15.235 -37.929  0.00  0.00    -0.039 C 
ATOM     21  C   UNL A   1      41.933 -16.549 -38.101  0.00  0.00    -0.046 A 
ATOM     22  C   UNL A   1      41.994 -17.427 -37.009  0.00  0.00    -0.058 A 
ATOM     23  C   UNL A   1      42.660 -18.645 -37.111  0.00  0.00    -0.060 A 
ATOM     24  C   UNL A   1      43.267 -19.003 -38.311  0.00  0.00    -0.040 A 
ATOM     25  C   UNL A   1      43.186 -18.169 -39.436  0.00  0.00    +0.035 A 
ATOM     26  C   UNL A   1      42.521 -16.925 -39.332  0.00  0.00    -0.026 A 
ATOM     27  C   UNL A   1      42.482 -15.991 -40.518  0.00  0.00    -0.038 C 
ENDBRANCH  18  25
ENDBRANCH  12  18
ENDBRANCH   8  17
ENDBRANCH   7  10
ENDBRANCH   6   7
ENDBRANCH   5   6
ENDBRANCH   1   5
BRANCH   3  28
ATOM     28  C   UNL A   1      44.140 -16.664 -33.442  0.00  0.00    +0.012 C 
BRANCH  28  29
ATOM     29  C   UNL A   1      42.894 -17.548 -33.480  0.00  0.00    -0.037 C 
BRANCH  29  30
ATOM     30  C   UNL A   1      43.185 -18.935 -32.904  0.00  0.00    -0.052 C 
BRANCH  30  31
ATOM     31  C   UNL A   1      43.432 -19.964 -34.010  0.00  0.00    -0.053 C 
BRANCH  31  32
ATOM     32  C   UNL A   1      42.176 -20.796 -34.276  0.00  0.00    -0.053 C 
BRANCH  32  33
ATOM     33  C   UNL A   1      41.172 -20.763 -33.120  0.00  0.00    -0.052 C 
BRANCH  33  34
ATOM     34  C   UNL A   1      39.736 -20.504 -33.585  0.00  0.00    -0.037 C 
BRANCH  34  35
ATOM     35  C   UNL A   1      39.697 -19.528 -34.763  0.00  0.00    +0.009 C 
BRANCH  35  36
ATOM     36  N   UNL A   1      38.575 -19.889 -35.640  0.00  0.00    -0.343 N 
ATOM     37  H   UNL A   1      37.713 -20.236 -35.317  0.00  0.00    +0.000 HD
BRANCH  36  38
ATOM     38  C   UNL A   1      38.886 -19.676 -37.016  0.00  0.00    +0.041 A 
ATOM     39  C   UNL A   1      38.511 -18.480 -37.662  0.00  0.00    -0.005 A 
ATOM     40  C   UNL A   1      38.897 -18.319 -38.997  0.00  0.00    +0.047 A 
ATOM     41  N   UNL A   1      39.647 -19.224 -39.669  0.00  0.00    -0.251 NA
ATOM     42  C   UNL A   1      40.013 -20.354 -39.049  0.00  0.00    +0.073 A 
ATOM     43  C   UNL A   1      40.768 -21.279 -39.760  0.00  0.00    -0.036 A 
ATOM     44  C   UNL A   1      41.177 -22.490 -39.196  0.00  0.00    -0.060 A 
ATOM     45  C   UNL A   1      40.822 -22.792 -37.890  0.00  0.00    -0.061 A 
ATOM     46  C   UNL A   1      40.066 -21.877 -37.159  0.00  0.00    -0.051 A 
ATOM     47  C   UNL A   1      39.660 -20.640 -37.718  0.00  0.00    +0.021 A 
ATOM     48  C   UNL A   1      38.555 -17.076 -39.778  0.00  0.00    -0.010 C 
ATOM     49  C   UNL A   1      37.385 -16.295 -39.192  0.00  0.00    -0.047 C 
ATOM     50  C   UNL A   1      37.602 -16.094 -37.700  0.00  0.00    -0.049 C 
ATOM     51  C   UNL A   1      37.653 -17.440 -36.980  0.00  0.00    -0.024 C 
ENDBRANCH  36  38
ENDBRANCH  35  36
ENDBRANCH  34  35
ENDBRANCH  33  34
ENDBRANCH  32  33
ENDBRANCH  31  32
ENDBRANCH  30  31
ENDBRANCH  29  30
ENDBRANCH  28  29
ENDBRANCH   3  28
TORSDOF 17
ENDMDL
MODEL 15
REMARK VINA RESULT:    -6.023      2.122      5.923
REMARK INTER + INTRA:         -17.707
REMARK INTER:                 -11.413
REMARK INTRA:                  -6.294
REMARK UNBOUND:                -5.698
REMARK  Name = cpd43.pdb
REMARK  19 active torsions:
REMARK  status: ('A' for Active; 'I' for Inactive)
REMARK    1  A    between atoms: C_1  and  C_2
REMARK    2  A    between atoms: C_6  and  N_7
REMARK    3  A    between atoms: N_7  and  C_8
REMARK    4  A    between atoms: C_13  and  C_14
REMARK    5  A    between atoms: N_16  and  C_17
REMARK    6  A    between atoms: C_17  and  C_18
REMARK    7  A    between atoms: C_18  and  C_19
REMARK    8  A    between atoms: C_19  and  C_20
REMARK    9  A    between atoms: N_22  and  C_23
REMARK   10  A    between atoms: C_23  and  C_24
REMARK   11  A    between atoms: C_24  and  C_25
REMARK   12  A    between atoms: C_25  and  C_26
REMARK   13  A    between atoms: C_26  and  C_27
REMARK   14  A    between atoms: C_27  and  C_28
REMARK   15  A    between atoms: C_28  and  C_29
REMARK   16  A    between atoms: C_29  and  C_30
REMARK   17  A    between atoms: C_30  and  N_31
REMARK   18  A    between atoms: N_31  and  C_32
REMARK   19  A    between atoms: C_46  and  C_47
REMARK                            x       y       z     vdW  Elec       q    Type
REMARK                         _______ _______ _______ _____ _____    ______ ____
ROOT
ATOM      1  C   UNL A   1      43.127 -19.267 -33.988  0.00  0.00    +0.213 C 
ATOM      2  O   UNL A   1      43.479 -18.971 -32.851  0.00  0.00    -0.276 OA
ATOM      3  N   UNL A   1      41.861 -19.043 -34.477  0.00  0.00    -0.315 N 
ATOM      4  H   UNL A   1      41.643 -19.339 -35.390  0.00  0.00    +0.000 HD
ENDROOT
BRANCH   1   5
ATOM      5  C   UNL A   1      44.087 -19.882 -34.986  0.00  0.00    +0.025 C 
BRANCH   5   6
ATOM      6  C   UNL A   1      45.349 -19.044 -35.179  0.00  0.00    -0.029 C 
BRANCH   6   7
ATOM      7  C   UNL A   1      45.055 -17.546 -35.241  0.00  0.00    +0.012 C 
BRANCH   7  10
ATOM      8  C   UNL A   1      45.348 -16.274 -37.424  0.00  0.00    +0.246 C 
ATOM      9  O   UNL A   1      46.046 -15.475 -38.039  0.00  0.00    -0.270 OA
ATOM     10  N   UNL A   1      45.816 -16.863 -36.276  0.00  0.00    -0.311 N 
ATOM     11  H   UNL A   1      46.789 -16.816 -36.135  0.00  0.00    +0.000 HD
BRANCH   8  17
ATOM     12  C   UNL A   1      43.768 -17.292 -39.110  0.00  0.00    +0.044 A 
ATOM     13  C   UNL A   1      42.434 -17.561 -39.461  0.00  0.00    -0.040 A 
ATOM     14  C   UNL A   1      41.367 -17.073 -38.699  0.00  0.00    -0.060 A 
ATOM     15  C   UNL A   1      41.610 -16.317 -37.556  0.00  0.00    -0.061 A 
ATOM     16  C   UNL A   1      42.922 -16.071 -37.161  0.00  0.00    -0.048 A 
ATOM     17  C   UNL A   1      43.990 -16.587 -37.911  0.00  0.00    +0.058 A 
BRANCH  12  18
ATOM     18  N   UNL A   1      44.833 -17.816 -39.887  0.00  0.00    -0.314 N 
ATOM     19  H   UNL A   1      45.347 -17.168 -40.420  0.00  0.00    +0.000 HD
BRANCH  18  25
ATOM     20  C   UNL A   1      45.053 -22.100 -42.464  0.00  0.00    -0.039 C 
ATOM     21  C   UNL A   1      45.283 -21.282 -41.221  0.00  0.00    -0.046 A 
ATOM     22  C   UNL A   1      45.802 -21.921 -40.084  0.00  0.00    -0.058 A 
ATOM     23  C   UNL A   1      46.014 -21.214 -38.905  0.00  0.00    -0.060 A 
ATOM     24  C   UNL A   1      45.716 -19.855 -38.850  0.00  0.00    -0.040 A 
ATOM     25  C   UNL A   1      45.238 -19.176 -39.981  0.00  0.00    +0.035 A 
ATOM     26  C   UNL A   1      45.010 -19.895 -41.177  0.00  0.00    -0.026 A 
ATOM     27  C   UNL A   1      44.438 -19.187 -42.382  0.00  0.00    -0.038 C 
ENDBRANCH  18  25
ENDBRANCH  12  18
ENDBRANCH   8  17
ENDBRANCH   7  10
ENDBRANCH   6   7
ENDBRANCH   5   6
ENDBRANCH   1   5
BRANCH   3  28
ATOM     28  C   UNL A   1      40.840 -18.384 -33.688  0.00  0.00    +0.012 C 
BRANCH  28  29
ATOM     29  C   UNL A   1      40.680 -16.909 -34.051  0.00  0.00    -0.037 C 
BRANCH  29  30
ATOM     30  C   UNL A   1      39.352 -16.355 -33.534  0.00  0.00    -0.052 C 
BRANCH  30  31
ATOM     31  C   UNL A   1      38.376 -17.477 -33.172  0.00  0.00    -0.053 C 
BRANCH  31  32
ATOM     32  C   UNL A   1      37.073 -17.349 -33.966  0.00  0.00    -0.053 C 
BRANCH  32  33
ATOM     33  C   UNL A   1      37.279 -16.801 -35.381  0.00  0.00    -0.052 C 
BRANCH  33  34
ATOM     34  C   UNL A   1      36.935 -17.820 -36.470  0.00  0.00    -0.037 C 
BRANCH  34  35
ATOM     35  C   UNL A   1      38.197 -18.445 -37.070  0.00  0.00    +0.009 C 
BRANCH  35  36
ATOM     36  N   UNL A   1      37.950 -19.874 -37.307  0.00  0.00    -0.343 N 
ATOM     37  H   UNL A   1      37.123 -20.233 -37.701  0.00  0.00    +0.000 HD
BRANCH  36  38
ATOM     38  C   UNL A   1      39.054 -20.680 -36.899  0.00  0.00    +0.041 A 
ATOM     39  C   UNL A   1      40.101 -20.975 -37.796  0.00  0.00    -0.005 A 
ATOM     40  C   UNL A   1      41.177 -21.725 -37.309  0.00  0.00    +0.047 A 
ATOM     41  N   UNL A   1      41.279 -22.129 -36.021  0.00  0.00    -0.251 NA
ATOM     42  C   UNL A   1      40.289 -21.837 -35.166  0.00  0.00    +0.073 A 
ATOM     43  C   UNL A   1      40.403 -22.275 -33.853  0.00  0.00    -0.036 A 
ATOM     44  C   UNL A   1      39.409 -22.029 -32.902  0.00  0.00    -0.060 A 
ATOM     45  C   UNL A   1      38.268 -21.331 -33.269  0.00  0.00    -0.061 A 
ATOM     46  C   UNL A   1      38.135 -20.881 -34.581  0.00  0.00    -0.051 A 
ATOM     47  C   UNL A   1      39.144 -21.114 -35.548  0.00  0.00    +0.021 A 
ATOM     48  C   UNL A   1      42.351 -22.089 -38.181  0.00  0.00    -0.010 C 
ATOM     49  C   UNL A   1      42.041 -22.024 -39.672  0.00  0.00    -0.047 C 
ATOM     50  C   UNL A   1      41.369 -20.699 -39.995  0.00  0.00    -0.049 C 
ATOM     51  C   UNL A   1      40.040 -20.576 -39.252  0.00  0.00    -0.024 C 
ENDBRANCH  36  38
ENDBRANCH  35  36
ENDBRANCH  34  35
ENDBRANCH  33  34
ENDBRANCH  32  33
ENDBRANCH  31  32
ENDBRANCH  30  31
ENDBRANCH  29  30
ENDBRANCH  28  29
ENDBRANCH   3  28
TORSDOF 17
ENDMDL
MODEL 16
REMARK VINA RESULT:    -5.947      2.268      7.713
REMARK INTER + INTRA:         -17.555
REMARK INTER:                 -12.328
REMARK INTRA:                  -5.227
REMARK UNBOUND:                -5.698
REMARK  Name = cpd43.pdb
REMARK  19 active torsions:
REMARK  status: ('A' for Active; 'I' for Inactive)
REMARK    1  A    between atoms: C_1  and  C_2
REMARK    2  A    between atoms: C_6  and  N_7
REMARK    3  A    between atoms: N_7  and  C_8
REMARK    4  A    between atoms: C_13  and  C_14
REMARK    5  A    between atoms: N_16  and  C_17
REMARK    6  A    between atoms: C_17  and  C_18
REMARK    7  A    between atoms: C_18  and  C_19
REMARK    8  A    between atoms: C_19  and  C_20
REMARK    9  A    between atoms: N_22  and  C_23
REMARK   10  A    between atoms: C_23  and  C_24
REMARK   11  A    between atoms: C_24  and  C_25
REMARK   12  A    between atoms: C_25  and  C_26
REMARK   13  A    between atoms: C_26  and  C_27
REMARK   14  A    between atoms: C_27  and  C_28
REMARK   15  A    between atoms: C_28  and  C_29
REMARK   16  A    between atoms: C_29  and  C_30
REMARK   17  A    between atoms: C_30  and  N_31
REMARK   18  A    between atoms: N_31  and  C_32
REMARK   19  A    between atoms: C_46  and  C_47
REMARK                            x       y       z     vdW  Elec       q    Type
REMARK                         _______ _______ _______ _____ _____    ______ ____
ROOT
ATOM      1  C   UNL A   1      42.556 -18.223 -33.242  0.00  0.00    +0.213 C 
ATOM      2  O   UNL A   1      43.466 -19.039 -33.131  0.00  0.00    -0.276 OA
ATOM      3  N   UNL A   1      42.694 -17.008 -33.872  0.00  0.00    -0.315 N 
ATOM      4  H   UNL A   1      41.928 -16.391 -33.892  0.00  0.00    +0.000 HD
ENDROOT
BRANCH   1   5
ATOM      5  C   UNL A   1      41.163 -18.506 -32.719  0.00  0.00    +0.025 C 
BRANCH   5   6
ATOM      6  C   UNL A   1      40.085 -17.722 -33.465  0.00  0.00    -0.029 C 
BRANCH   6   7
ATOM      7  C   UNL A   1      38.672 -18.106 -33.028  0.00  0.00    +0.012 C 
BRANCH   7  10
ATOM      8  C   UNL A   1      37.627 -19.696 -34.715  0.00  0.00    +0.246 C 
ATOM      9  O   UNL A   1      36.654 -19.907 -35.432  0.00  0.00    -0.270 OA
ATOM     10  N   UNL A   1      37.811 -18.461 -34.146  0.00  0.00    -0.311 N 
ATOM     11  H   UNL A   1      37.296 -17.722 -34.543  0.00  0.00    +0.000 HD
BRANCH   8  17
ATOM     12  C   UNL A   1      39.284 -21.439 -35.482  0.00  0.00    +0.044 A 
ATOM     13  C   UNL A   1      40.200 -22.437 -35.109  0.00  0.00    -0.040 A 
ATOM     14  C   UNL A   1      40.352 -22.825 -33.773  0.00  0.00    -0.060 A 
ATOM     15  C   UNL A   1      39.603 -22.210 -32.775  0.00  0.00    -0.061 A 
ATOM     16  C   UNL A   1      38.718 -21.189 -33.110  0.00  0.00    -0.048 A 
ATOM     17  C   UNL A   1      38.589 -20.781 -34.448  0.00  0.00    +0.058 A 
BRANCH  12  18
ATOM     18  N   UNL A   1      39.163 -21.048 -36.841  0.00  0.00    -0.314 N 
ATOM     19  H   UNL A   1      38.290 -20.687 -37.117  0.00  0.00    +0.000 HD
BRANCH  18  25
ATOM     20  C   UNL A   1      42.885 -18.906 -39.409  0.00  0.00    -0.039 C 
ATOM     21  C   UNL A   1      41.938 -20.045 -39.140  0.00  0.00    -0.046 A 
ATOM     22  C   UNL A   1      41.972 -21.161 -39.991  0.00  0.00    -0.058 A 
ATOM     23  C   UNL A   1      41.104 -22.230 -39.797  0.00  0.00    -0.060 A 
ATOM     24  C   UNL A   1      40.195 -22.202 -38.743  0.00  0.00    -0.040 A 
ATOM     25  C   UNL A   1      40.165 -21.122 -37.847  0.00  0.00    +0.035 A 
ATOM     26  C   UNL A   1      41.038 -20.028 -38.049  0.00  0.00    -0.026 A 
ATOM     27  C   UNL A   1      40.972 -18.834 -37.128  0.00  0.00    -0.038 C 
ENDBRANCH  18  25
ENDBRANCH  12  18
ENDBRANCH   8  17
ENDBRANCH   7  10
ENDBRANCH   6   7
ENDBRANCH   5   6
ENDBRANCH   1   5
BRANCH   3  28
ATOM     28  C   UNL A   1      43.934 -16.609 -34.506  0.00  0.00    +0.012 C 
BRANCH  28  29
ATOM     29  C   UNL A   1      43.885 -16.748 -36.026  0.00  0.00    -0.037 C 
BRANCH  29  30
ATOM     30  C   UNL A   1      43.639 -15.396 -36.696  0.00  0.00    -0.052 C 
BRANCH  30  31
ATOM     31  C   UNL A   1      42.580 -15.496 -37.796  0.00  0.00    -0.053 C 
BRANCH  31  32
ATOM     32  C   UNL A   1      43.193 -15.234 -39.174  0.00  0.00    -0.053 C 
BRANCH  32  33
ATOM     33  C   UNL A   1      44.632 -14.716 -39.108  0.00  0.00    -0.052 C 
BRANCH  33  34
ATOM     34  C   UNL A   1      45.410 -14.948 -40.406  0.00  0.00    -0.037 C 
BRANCH  34  35
ATOM     35  C   UNL A   1      45.346 -16.413 -40.842  0.00  0.00    +0.009 C 
BRANCH  35  36
ATOM     36  N   UNL A   1      46.679 -17.012 -40.686  0.00  0.00    -0.343 N 
ATOM     37  H   UNL A   1      47.491 -16.672 -41.126  0.00  0.00    +0.000 HD
BRANCH  36  38
ATOM     38  C   UNL A   1      46.655 -18.145 -39.820  0.00  0.00    +0.041 A 
ATOM     39  C   UNL A   1      46.900 -18.002 -38.439  0.00  0.00    -0.005 A 
ATOM     40  C   UNL A   1      46.806 -19.149 -37.644  0.00  0.00    +0.047 A 
ATOM     41  N   UNL A   1      46.446 -20.361 -38.127  0.00  0.00    -0.251 NA
ATOM     42  C   UNL A   1      46.201 -20.493 -39.438  0.00  0.00    +0.073 A 
ATOM     43  C   UNL A   1      45.849 -21.748 -39.919  0.00  0.00    -0.036 A 
ATOM     44  C   UNL A   1      45.594 -21.978 -41.273  0.00  0.00    -0.060 A 
ATOM     45  C   UNL A   1      45.696 -20.930 -42.176  0.00  0.00    -0.061 A 
ATOM     46  C   UNL A   1      46.045 -19.662 -41.714  0.00  0.00    -0.051 A 
ATOM     47  C   UNL A   1      46.291 -19.418 -40.340  0.00  0.00    +0.021 A 
ATOM     48  C   UNL A   1      47.041 -19.106 -36.156  0.00  0.00    -0.010 C 
ATOM     49  C   UNL A   1      47.846 -17.893 -35.705  0.00  0.00    -0.047 C 
ATOM     50  C   UNL A   1      47.253 -16.632 -36.313  0.00  0.00    -0.049 C 
ATOM     51  C   UNL A   1      47.330 -16.684 -37.838  0.00  0.00    -0.024 C 
ENDBRANCH  36  38
ENDBRANCH  35  36
ENDBRANCH  34  35
ENDBRANCH  33  34
ENDBRANCH  32  33
ENDBRANCH  31  32
ENDBRANCH  30  31
ENDBRANCH  29  30
ENDBRANCH  28  29
ENDBRANCH   3  28
TORSDOF 17
ENDMDL
MODEL 17
REMARK VINA RESULT:    -5.947      2.774      7.007
REMARK INTER + INTRA:         -17.555
REMARK INTER:                 -10.301
REMARK INTRA:                  -7.254
REMARK UNBOUND:                -5.698
REMARK  Name = cpd43.pdb
REMARK  19 active torsions:
REMARK  status: ('A' for Active; 'I' for Inactive)
REMARK    1  A    between atoms: C_1  and  C_2
REMARK    2  A    between atoms: C_6  and  N_7
REMARK    3  A    between atoms: N_7  and  C_8
REMARK    4  A    between atoms: C_13  and  C_14
REMARK    5  A    between atoms: N_16  and  C_17
REMARK    6  A    between atoms: C_17  and  C_18
REMARK    7  A    between atoms: C_18  and  C_19
REMARK    8  A    between atoms: C_19  and  C_20
REMARK    9  A    between atoms: N_22  and  C_23
REMARK   10  A    between atoms: C_23  and  C_24
REMARK   11  A    between atoms: C_24  and  C_25
REMARK   12  A    between atoms: C_25  and  C_26
REMARK   13  A    between atoms: C_26  and  C_27
REMARK   14  A    between atoms: C_27  and  C_28
REMARK   15  A    between atoms: C_28  and  C_29
REMARK   16  A    between atoms: C_29  and  C_30
REMARK   17  A    between atoms: C_30  and  N_31
REMARK   18  A    between atoms: N_31  and  C_32
REMARK   19  A    between atoms: C_46  and  C_47
REMARK                            x       y       z     vdW  Elec       q    Type
REMARK                         _______ _______ _______ _____ _____    ______ ____
ROOT
ATOM      1  C   UNL A   1      42.291 -15.223 -32.746  0.00  0.00    +0.213 C 
ATOM      2  O   UNL A   1      42.776 -14.096 -32.779  0.00  0.00    -0.276 OA
ATOM      3  N   UNL A   1      40.938 -15.469 -32.725  0.00  0.00    -0.315 N 
ATOM      4  H   UNL A   1      40.623 -16.400 -32.664  0.00  0.00    +0.000 HD
ENDROOT
BRANCH   1   5
ATOM      5  C   UNL A   1      43.157 -16.465 -32.767  0.00  0.00    +0.025 C 
BRANCH   5   6
ATOM      6  C   UNL A   1      44.071 -16.522 -33.990  0.00  0.00    -0.029 C 
BRANCH   6   7
ATOM      7  C   UNL A   1      45.364 -17.291 -33.718  0.00  0.00    +0.012 C 
BRANCH   7  10
ATOM      8  C   UNL A   1      45.457 -19.719 -34.470  0.00  0.00    +0.246 C 
ATOM      9  O   UNL A   1      45.513 -20.886 -34.099  0.00  0.00    -0.270 OA
ATOM     10  N   UNL A   1      45.151 -18.723 -33.576  0.00  0.00    -0.311 N 
ATOM     11  H   UNL A   1      44.735 -19.014 -32.733  0.00  0.00    +0.000 HD
BRANCH   8  17
ATOM     12  C   UNL A   1      44.720 -19.129 -36.811  0.00  0.00    +0.044 A 
ATOM     13  C   UNL A   1      45.108 -18.788 -38.117  0.00  0.00    -0.040 A 
ATOM     14  C   UNL A   1      46.454 -18.785 -38.501  0.00  0.00    -0.060 A 
ATOM     15  C   UNL A   1      47.446 -19.108 -37.579  0.00  0.00    -0.061 A 
ATOM     16  C   UNL A   1      47.093 -19.409 -36.266  0.00  0.00    -0.048 A 
ATOM     17  C   UNL A   1      45.744 -19.382 -35.877  0.00  0.00    +0.058 A 
BRANCH  12  18
ATOM     18  N   UNL A   1      43.349 -19.104 -36.441  0.00  0.00    -0.314 N 
ATOM     19  H   UNL A   1      43.021 -18.270 -36.034  0.00  0.00    +0.000 HD
BRANCH  18  25
ATOM     20  C   UNL A   1      39.492 -21.123 -38.907  0.00  0.00    -0.039 C 
ATOM     21  C   UNL A   1      40.475 -21.097 -37.766  0.00  0.00    -0.046 A 
ATOM     22  C   UNL A   1      40.364 -22.072 -36.763  0.00  0.00    -0.058 A 
ATOM     23  C   UNL A   1      41.235 -22.078 -35.678  0.00  0.00    -0.060 A 
ATOM     24  C   UNL A   1      42.234 -21.113 -35.586  0.00  0.00    -0.040 A 
ATOM     25  C   UNL A   1      42.401 -20.151 -36.594  0.00  0.00    +0.035 A 
ATOM     26  C   UNL A   1      41.509 -20.134 -37.693  0.00  0.00    -0.026 A 
ATOM     27  C   UNL A   1      41.640 -19.066 -38.751  0.00  0.00    -0.038 C 
ENDBRANCH  18  25
ENDBRANCH  12  18
ENDBRANCH   8  17
ENDBRANCH   7  10
ENDBRANCH   6   7
ENDBRANCH   5   6
ENDBRANCH   1   5
BRANCH   3  28
ATOM     28  C   UNL A   1      39.962 -14.401 -32.787  0.00  0.00    +0.012 C 
BRANCH  28  29
ATOM     29  C   UNL A   1      38.748 -14.664 -31.897  0.00  0.00    -0.037 C 
BRANCH  29  30
ATOM     30  C   UNL A   1      38.287 -16.117 -32.011  0.00  0.00    -0.052 C 
BRANCH  30  31
ATOM     31  C   UNL A   1      37.330 -16.314 -33.189  0.00  0.00    -0.053 C 
BRANCH  31  32
ATOM     32  C   UNL A   1      36.354 -17.462 -32.919  0.00  0.00    -0.053 C 
BRANCH  32  33
ATOM     33  C   UNL A   1      35.246 -17.574 -33.971  0.00  0.00    -0.052 C 
BRANCH  33  34
ATOM     34  C   UNL A   1      35.789 -17.682 -35.399  0.00  0.00    -0.037 C 
BRANCH  34  35
ATOM     35  C   UNL A   1      35.834 -19.136 -35.872  0.00  0.00    +0.009 C 
BRANCH  35  36
ATOM     36  N   UNL A   1      37.037 -19.330 -36.693  0.00  0.00    -0.343 N 
ATOM     37  H   UNL A   1      37.033 -19.736 -37.589  0.00  0.00    +0.000 HD
BRANCH  36  38
ATOM     38  C   UNL A   1      38.212 -18.859 -36.036  0.00  0.00    +0.041 A 
ATOM     39  C   UNL A   1      38.912 -17.738 -36.527  0.00  0.00    -0.005 A 
ATOM     40  C   UNL A   1      40.023 -17.300 -35.800  0.00  0.00    +0.047 A 
ATOM     41  N   UNL A   1      40.419 -17.866 -34.635  0.00  0.00    -0.251 NA
ATOM     42  C   UNL A   1      39.746 -18.924 -34.162  0.00  0.00    +0.073 A 
ATOM     43  C   UNL A   1      40.177 -19.502 -32.975  0.00  0.00    -0.036 A 
ATOM     44  C   UNL A   1      39.543 -20.617 -32.422  0.00  0.00    -0.060 A 
ATOM     45  C   UNL A   1      38.452 -21.176 -33.070  0.00  0.00    -0.061 A 
ATOM     46  C   UNL A   1      38.002 -20.610 -34.261  0.00  0.00    -0.051 A 
ATOM     47  C   UNL A   1      38.630 -19.470 -34.822  0.00  0.00    +0.021 A 
ATOM     48  C   UNL A   1      40.837 -16.108 -36.232  0.00  0.00    -0.010 C 
ATOM     49  C   UNL A   1      40.671 -15.765 -37.707  0.00  0.00    -0.047 C 
ATOM     50  C   UNL A   1      39.192 -15.711 -38.055  0.00  0.00    -0.049 C 
ATOM     51  C   UNL A   1      38.539 -17.074 -37.832  0.00  0.00    -0.024 C 
ENDBRANCH  36  38
ENDBRANCH  35  36
ENDBRANCH  34  35
ENDBRANCH  33  34
ENDBRANCH  32  33
ENDBRANCH  31  32
ENDBRANCH  30  31
ENDBRANCH  29  30
ENDBRANCH  28  29
ENDBRANCH   3  28
TORSDOF 17
ENDMDL
MODEL 18
REMARK VINA RESULT:    -5.871      2.441      7.048
REMARK INTER + INTRA:         -17.403
REMARK INTER:                 -10.815
REMARK INTRA:                  -6.588
REMARK UNBOUND:                -5.698
REMARK  Name = cpd43.pdb
REMARK  19 active torsions:
REMARK  status: ('A' for Active; 'I' for Inactive)
REMARK    1  A    between atoms: C_1  and  C_2
REMARK    2  A    between atoms: C_6  and  N_7
REMARK    3  A    between atoms: N_7  and  C_8
REMARK    4  A    between atoms: C_13  and  C_14
REMARK    5  A    between atoms: N_16  and  C_17
REMARK    6  A    between atoms: C_17  and  C_18
REMARK    7  A    between atoms: C_18  and  C_19
REMARK    8  A    between atoms: C_19  and  C_20
REMARK    9  A    between atoms: N_22  and  C_23
REMARK   10  A    between atoms: C_23  and  C_24
REMARK   11  A    between atoms: C_24  and  C_25
REMARK   12  A    between atoms: C_25  and  C_26
REMARK   13  A    between atoms: C_26  and  C_27
REMARK   14  A    between atoms: C_27  and  C_28
REMARK   15  A    between atoms: C_28  and  C_29
REMARK   16  A    between atoms: C_29  and  C_30
REMARK   17  A    between atoms: C_30  and  N_31
REMARK   18  A    between atoms: N_31  and  C_32
REMARK   19  A    between atoms: C_46  and  C_47
REMARK                            x       y       z     vdW  Elec       q    Type
REMARK                         _______ _______ _______ _____ _____    ______ ____
ROOT
ATOM      1  C   UNL A   1      41.384 -14.552 -36.412  0.00  0.00    +0.213 C 
ATOM      2  O   UNL A   1      40.783 -13.693 -35.774  0.00  0.00    -0.276 OA
ATOM      3  N   UNL A   1      41.079 -14.891 -37.709  0.00  0.00    -0.315 N 
ATOM      4  H   UNL A   1      41.584 -15.614 -38.145  0.00  0.00    +0.000 HD
ENDROOT
BRANCH   1   5
ATOM      5  C   UNL A   1      42.563 -15.301 -35.826  0.00  0.00    +0.025 C 
BRANCH   5   6
ATOM      6  C   UNL A   1      42.312 -15.761 -34.391  0.00  0.00    -0.029 C 
BRANCH   6   7
ATOM      7  C   UNL A   1      41.409 -16.993 -34.320  0.00  0.00    +0.012 C 
BRANCH   7  10
ATOM      8  C   UNL A   1      41.653 -19.363 -33.431  0.00  0.00    +0.246 C 
ATOM      9  O   UNL A   1      42.383 -20.143 -32.829  0.00  0.00    -0.270 OA
ATOM     10  N   UNL A   1      41.921 -18.017 -33.423  0.00  0.00    -0.311 N 
ATOM     11  H   UNL A   1      42.538 -17.706 -32.721  0.00  0.00    +0.000 HD
BRANCH   8  17
ATOM     12  C   UNL A   1      40.615 -20.367 -35.502  0.00  0.00    +0.044 A 
ATOM     13  C   UNL A   1      39.451 -20.861 -36.115  0.00  0.00    -0.040 A 
ATOM     14  C   UNL A   1      38.207 -20.792 -35.479  0.00  0.00    -0.060 A 
ATOM     15  C   UNL A   1      38.100 -20.241 -34.205  0.00  0.00    -0.061 A 
ATOM     16  C   UNL A   1      39.243 -19.781 -33.557  0.00  0.00    -0.048 A 
ATOM     17  C   UNL A   1      40.495 -19.878 -34.186  0.00  0.00    +0.058 A 
BRANCH  12  18
ATOM     18  N   UNL A   1      41.869 -20.467 -36.159  0.00  0.00    -0.314 N 
ATOM     19  H   UNL A   1      42.570 -20.975 -35.690  0.00  0.00    +0.000 HD
BRANCH  18  25
ATOM     20  C   UNL A   1      42.946 -21.090 -41.005  0.00  0.00    -0.039 C 
ATOM     21  C   UNL A   1      42.811 -20.237 -39.772  0.00  0.00    -0.046 A 
ATOM     22  C   UNL A   1      43.165 -18.882 -39.851  0.00  0.00    -0.058 A 
ATOM     23  C   UNL A   1      43.078 -18.057 -38.734  0.00  0.00    -0.060 A 
ATOM     24  C   UNL A   1      42.627 -18.577 -37.523  0.00  0.00    -0.040 A 
ATOM     25  C   UNL A   1      42.223 -19.916 -37.421  0.00  0.00    +0.035 A 
ATOM     26  C   UNL A   1      42.322 -20.760 -38.551  0.00  0.00    -0.026 A 
ATOM     27  C   UNL A   1      41.949 -22.218 -38.436  0.00  0.00    -0.038 C 
ENDBRANCH  18  25
ENDBRANCH  12  18
ENDBRANCH   8  17
ENDBRANCH   7  10
ENDBRANCH   6   7
ENDBRANCH   5   6
ENDBRANCH   1   5
BRANCH   3  28
ATOM     28  C   UNL A   1      40.036 -14.214 -38.454  0.00  0.00    +0.012 C 
BRANCH  28  29
ATOM     29  C   UNL A   1      40.319 -14.178 -39.955  0.00  0.00    -0.037 C 
BRANCH  29  30
ATOM     30  C   UNL A   1      41.420 -15.170 -40.333  0.00  0.00    -0.052 C 
BRANCH  30  31
ATOM     31  C   UNL A   1      42.550 -14.490 -41.109  0.00  0.00    -0.053 C 
BRANCH  31  32
ATOM     32  C   UNL A   1      43.592 -13.898 -40.157  0.00  0.00    -0.053 C 
BRANCH  32  33
ATOM     33  C   UNL A   1      44.589 -14.934 -39.631  0.00  0.00    -0.052 C 
BRANCH  33  34
ATOM     34  C   UNL A   1      45.692 -15.265 -40.639  0.00  0.00    -0.037 C 
BRANCH  34  35
ATOM     35  C   UNL A   1      45.852 -16.777 -40.818  0.00  0.00    +0.009 C 
BRANCH  35  36
ATOM     36  N   UNL A   1      47.037 -17.219 -40.072  0.00  0.00    -0.343 N 
ATOM     37  H   UNL A   1      47.910 -16.767 -40.106  0.00  0.00    +0.000 HD
BRANCH  36  38
ATOM     38  C   UNL A   1      46.771 -18.384 -39.292  0.00  0.00    +0.041 A 
ATOM     39  C   UNL A   1      46.457 -18.276 -37.921  0.00  0.00    -0.005 A 
ATOM     40  C   UNL A   1      46.154 -19.456 -37.234  0.00  0.00    +0.047 A 
ATOM     41  N   UNL A   1      46.101 -20.671 -37.829  0.00  0.00    -0.251 NA
ATOM     42  C   UNL A   1      46.387 -20.770 -39.134  0.00  0.00    +0.073 A 
ATOM     43  C   UNL A   1      46.344 -22.026 -39.724  0.00  0.00    -0.036 A 
ATOM     44  C   UNL A   1      46.646 -22.221 -41.074  0.00  0.00    -0.060 A 
ATOM     45  C   UNL A   1      47.005 -21.136 -41.859  0.00  0.00    -0.061 A 
ATOM     46  C   UNL A   1      47.052 -19.866 -41.287  0.00  0.00    -0.051 A 
ATOM     47  C   UNL A   1      46.734 -19.657 -39.923  0.00  0.00    +0.021 A 
ATOM     48  C   UNL A   1      45.797 -19.453 -35.769  0.00  0.00    -0.010 C 
ATOM     49  C   UNL A   1      46.272 -18.206 -35.033  0.00  0.00    -0.047 C 
ATOM     50  C   UNL A   1      45.862 -16.966 -35.812  0.00  0.00    -0.049 C 
ATOM     51  C   UNL A   1      46.521 -16.956 -37.190  0.00  0.00    -0.024 C 
ENDBRANCH  36  38
ENDBRANCH  35  36
ENDBRANCH  34  35
ENDBRANCH  33  34
ENDBRANCH  32  33
ENDBRANCH  31  32
ENDBRANCH  30  31
ENDBRANCH  29  30
ENDBRANCH  28  29
ENDBRANCH   3  28
TORSDOF 17
ENDMDL
MODEL 19
REMARK VINA RESULT:    -5.830      2.607      6.094
REMARK INTER + INTRA:         -17.321
REMARK INTER:                 -11.653
REMARK INTRA:                  -5.668
REMARK UNBOUND:                -5.698
REMARK  Name = cpd43.pdb
REMARK  19 active torsions:
REMARK  status: ('A' for Active; 'I' for Inactive)
REMARK    1  A    between atoms: C_1  and  C_2
REMARK    2  A    between atoms: C_6  and  N_7
REMARK    3  A    between atoms: N_7  and  C_8
REMARK    4  A    between atoms: C_13  and  C_14
REMARK    5  A    between atoms: N_16  and  C_17
REMARK    6  A    between atoms: C_17  and  C_18
REMARK    7  A    between atoms: C_18  and  C_19
REMARK    8  A    between atoms: C_19  and  C_20
REMARK    9  A    between atoms: N_22  and  C_23
REMARK   10  A    between atoms: C_23  and  C_24
REMARK   11  A    between atoms: C_24  and  C_25
REMARK   12  A    between atoms: C_25  and  C_26
REMARK   13  A    between atoms: C_26  and  C_27
REMARK   14  A    between atoms: C_27  and  C_28
REMARK   15  A    between atoms: C_28  and  C_29
REMARK   16  A    between atoms: C_29  and  C_30
REMARK   17  A    between atoms: C_30  and  N_31
REMARK   18  A    between atoms: N_31  and  C_32
REMARK   19  A    between atoms: C_46  and  C_47
REMARK                            x       y       z     vdW  Elec       q    Type
REMARK                         _______ _______ _______ _____ _____    ______ ____
ROOT
ATOM      1  C   UNL A   1      41.375 -15.374 -39.403  0.00  0.00    +0.213 C 
ATOM      2  O   UNL A   1      40.297 -15.938 -39.569  0.00  0.00    -0.276 OA
ATOM      3  N   UNL A   1      41.538 -14.260 -38.612  0.00  0.00    -0.315 N 
ATOM      4  H   UNL A   1      42.427 -13.843 -38.554  0.00  0.00    +0.000 HD
ENDROOT
BRANCH   1   5
ATOM      5  C   UNL A   1      42.651 -15.891 -40.034  0.00  0.00    +0.025 C 
BRANCH   5   6
ATOM      6  C   UNL A   1      43.902 -15.246 -39.440  0.00  0.00    -0.029 C 
BRANCH   6   7
ATOM      7  C   UNL A   1      44.538 -16.100 -38.344  0.00  0.00    +0.012 C 
BRANCH   7  10
ATOM      8  C   UNL A   1      46.910 -16.495 -37.515  0.00  0.00    +0.246 C 
ATOM      9  O   UNL A   1      48.084 -16.158 -37.622  0.00  0.00    -0.270 OA
ATOM     10  N   UNL A   1      45.915 -15.724 -38.062  0.00  0.00    -0.311 N 
ATOM     11  H   UNL A   1      46.165 -14.800 -38.293  0.00  0.00    +0.000 HD
BRANCH   8  17
ATOM     12  C   UNL A   1      46.674 -19.008 -37.435  0.00  0.00    +0.044 A 
ATOM     13  C   UNL A   1      46.352 -20.137 -36.663  0.00  0.00    -0.040 A 
ATOM     14  C   UNL A   1      45.863 -20.011 -35.358  0.00  0.00    -0.060 A 
ATOM     15  C   UNL A   1      45.700 -18.752 -34.788  0.00  0.00    -0.061 A 
ATOM     16  C   UNL A   1      46.051 -17.618 -35.515  0.00  0.00    -0.048 A 
ATOM     17  C   UNL A   1      46.569 -17.748 -36.814  0.00  0.00    +0.058 A 
BRANCH  12  18
ATOM     18  N   UNL A   1      47.188 -19.161 -38.749  0.00  0.00    -0.314 N 
ATOM     19  H   UNL A   1      47.929 -18.565 -39.002  0.00  0.00    +0.000 HD
BRANCH  18  25
ATOM     20  C   UNL A   1      44.619 -20.116 -42.935  0.00  0.00    -0.039 C 
ATOM     21  C   UNL A   1      45.437 -20.551 -41.749  0.00  0.00    -0.046 A 
ATOM     22  C   UNL A   1      45.665 -21.922 -41.557  0.00  0.00    -0.058 A 
ATOM     23  C   UNL A   1      46.398 -22.376 -40.465  0.00  0.00    -0.060 A 
ATOM     24  C   UNL A   1      46.919 -21.462 -39.553  0.00  0.00    -0.040 A 
ATOM     25  C   UNL A   1      46.749 -20.082 -39.739  0.00  0.00    +0.035 A 
ATOM     26  C   UNL A   1      45.994 -19.618 -40.842  0.00  0.00    -0.026 A 
ATOM     27  C   UNL A   1      45.751 -18.139 -41.018  0.00  0.00    -0.038 C 
ENDBRANCH  18  25
ENDBRANCH  12  18
ENDBRANCH   8  17
ENDBRANCH   7  10
ENDBRANCH   6   7
ENDBRANCH   5   6
ENDBRANCH   1   5
BRANCH   3  28
ATOM     28  C   UNL A   1      40.440 -13.683 -37.864  0.00  0.00    +0.012 C 
BRANCH  28  29
ATOM     29  C   UNL A   1      40.917 -12.837 -36.685  0.00  0.00    -0.037 C 
BRANCH  29  30
ATOM     30  C   UNL A   1      42.364 -13.168 -36.319  0.00  0.00    -0.052 C 
BRANCH  30  31
ATOM     31  C   UNL A   1      42.463 -13.806 -34.931  0.00  0.00    -0.053 C 
BRANCH  31  32
ATOM     32  C   UNL A   1      43.369 -15.039 -34.956  0.00  0.00    -0.053 C 
BRANCH  32  33
ATOM     33  C   UNL A   1      42.603 -16.349 -35.165  0.00  0.00    -0.052 C 
BRANCH  33  34
ATOM     34  C   UNL A   1      42.405 -17.137 -33.867  0.00  0.00    -0.037 C 
BRANCH  34  35
ATOM     35  C   UNL A   1      41.439 -18.307 -34.065  0.00  0.00    +0.009 C 
BRANCH  35  36
ATOM     36  N   UNL A   1      42.216 -19.519 -34.355  0.00  0.00    -0.343 N 
ATOM     37  H   UNL A   1      43.095 -19.718 -33.960  0.00  0.00    +0.000 HD
BRANCH  36  38
ATOM     38  C   UNL A   1      41.545 -20.374 -35.279  0.00  0.00    +0.041 A 
ATOM     39  C   UNL A   1      41.861 -20.341 -36.652  0.00  0.00    -0.005 A 
ATOM     40  C   UNL A   1      41.201 -21.246 -37.489  0.00  0.00    +0.047 A 
ATOM     41  N   UNL A   1      40.322 -22.172 -37.037  0.00  0.00    -0.251 NA
ATOM     42  C   UNL A   1      40.032 -22.211 -35.730  0.00  0.00    +0.073 A 
ATOM     43  C   UNL A   1      39.116 -23.156 -35.287  0.00  0.00    -0.036 A 
ATOM     44  C   UNL A   1      38.743 -23.253 -33.944  0.00  0.00    -0.060 A 
ATOM     45  C   UNL A   1      39.295 -22.383 -33.015  0.00  0.00    -0.061 A 
ATOM     46  C   UNL A   1      40.217 -21.428 -33.439  0.00  0.00    -0.051 A 
ATOM     47  C   UNL A   1      40.611 -21.332 -34.796  0.00  0.00    +0.021 A 
ATOM     48  C   UNL A   1      41.470 -21.301 -38.972  0.00  0.00    -0.010 C 
ATOM     49  C   UNL A   1      42.092 -20.023 -39.520  0.00  0.00    -0.047 C 
ATOM     50  C   UNL A   1      43.273 -19.616 -38.653  0.00  0.00    -0.049 C 
ATOM     51  C   UNL A   1      42.813 -19.318 -37.227  0.00  0.00    -0.024 C 
ENDBRANCH  36  38
ENDBRANCH  35  36
ENDBRANCH  34  35
ENDBRANCH  33  34
ENDBRANCH  32  33
ENDBRANCH  31  32
ENDBRANCH  30  31
ENDBRANCH  29  30
ENDBRANCH  28  29
ENDBRANCH   3  28
TORSDOF 17
ENDMDL
MODEL 20
REMARK VINA RESULT:    -5.669      2.477      7.448
REMARK INTER + INTRA:         -17.000
REMARK INTER:                 -10.844
REMARK INTRA:                  -6.156
REMARK UNBOUND:                -5.698
REMARK  Name = cpd43.pdb
REMARK  19 active torsions:
REMARK  status: ('A' for Active; 'I' for Inactive)
REMARK    1  A    between atoms: C_1  and  C_2
REMARK    2  A    between atoms: C_6  and  N_7
REMARK    3  A    between atoms: N_7  and  C_8
REMARK    4  A    between atoms: C_13  and  C_14
REMARK    5  A    between atoms: N_16  and  C_17
REMARK    6  A    between atoms: C_17  and  C_18
REMARK    7  A    between atoms: C_18  and  C_19
REMARK    8  A    between atoms: C_19  and  C_20
REMARK    9  A    between atoms: N_22  and  C_23
REMARK   10  A    between atoms: C_23  and  C_24
REMARK   11  A    between atoms: C_24  and  C_25
REMARK   12  A    between atoms: C_25  and  C_26
REMARK   13  A    between atoms: C_26  and  C_27
REMARK   14  A    between atoms: C_27  and  C_28
REMARK   15  A    between atoms: C_28  and  C_29
REMARK   16  A    between atoms: C_29  and  C_30
REMARK   17  A    between atoms: C_30  and  N_31
REMARK   18  A    between atoms: N_31  and  C_32
REMARK   19  A    between atoms: C_46  and  C_47
REMARK                            x       y       z     vdW  Elec       q    Type
REMARK                         _______ _______ _______ _____ _____    ______ ____
ROOT
ATOM      1  C   UNL A   1      43.002 -15.042 -33.521  0.00  0.00    +0.213 C 
ATOM      2  O   UNL A   1      43.967 -15.328 -32.818  0.00  0.00    -0.276 OA
ATOM      3  N   UNL A   1      43.066 -14.168 -34.581  0.00  0.00    -0.315 N 
ATOM      4  H   UNL A   1      42.243 -13.961 -35.079  0.00  0.00    +0.000 HD
ENDROOT
BRANCH   1   5
ATOM      5  C   UNL A   1      41.641 -15.668 -33.302  0.00  0.00    +0.025 C 
BRANCH   5   6
ATOM      6  C   UNL A   1      41.731 -17.100 -32.779  0.00  0.00    -0.029 C 
BRANCH   6   7
ATOM      7  C   UNL A   1      40.459 -17.903 -33.048  0.00  0.00    +0.012 C 
BRANCH   7  10
ATOM      8  C   UNL A   1      39.633 -18.950 -35.214  0.00  0.00    +0.246 C 
ATOM      9  O   UNL A   1      39.053 -18.746 -36.275  0.00  0.00    -0.270 OA
ATOM     10  N   UNL A   1      40.073 -17.898 -34.451  0.00  0.00    -0.311 N 
ATOM     11  H   UNL A   1      40.136 -17.029 -34.911  0.00  0.00    +0.000 HD
BRANCH   8  17
ATOM     12  C   UNL A   1      41.069 -21.002 -34.894  0.00  0.00    +0.044 A 
ATOM     13  C   UNL A   1      41.159 -22.308 -34.384  0.00  0.00    -0.040 A 
ATOM     14  C   UNL A   1      40.048 -22.954 -33.831  0.00  0.00    -0.060 A 
ATOM     15  C   UNL A   1      38.821 -22.300 -33.759  0.00  0.00    -0.061 A 
ATOM     16  C   UNL A   1      38.713 -20.990 -34.219  0.00  0.00    -0.048 A 
ATOM     17  C   UNL A   1      39.837 -20.335 -34.746  0.00  0.00    +0.058 A 
BRANCH  12  18
ATOM     18  N   UNL A   1      42.216 -20.361 -35.431  0.00  0.00    -0.314 N 
ATOM     19  H   UNL A   1      42.898 -20.070 -34.784  0.00  0.00    +0.000 HD
BRANCH  18  25
ATOM     20  C   UNL A   1      43.329 -17.113 -39.069  0.00  0.00    -0.039 C 
ATOM     21  C   UNL A   1      42.966 -18.490 -38.582  0.00  0.00    -0.046 A 
ATOM     22  C   UNL A   1      42.772 -19.508 -39.528  0.00  0.00    -0.058 A 
ATOM     23  C   UNL A   1      42.416 -20.792 -39.129  0.00  0.00    -0.060 A 
ATOM     24  C   UNL A   1      42.257 -21.077 -37.775  0.00  0.00    -0.040 A 
ATOM     25  C   UNL A   1      42.487 -20.095 -36.800  0.00  0.00    +0.035 A 
ATOM     26  C   UNL A   1      42.836 -18.785 -37.204  0.00  0.00    -0.026 A 
ATOM     27  C   UNL A   1      43.025 -17.704 -36.167  0.00  0.00    -0.038 C 
ENDBRANCH  18  25
ENDBRANCH  12  18
ENDBRANCH   8  17
ENDBRANCH   7  10
ENDBRANCH   6   7
ENDBRANCH   5   6
ENDBRANCH   1   5
BRANCH   3  28
ATOM     28  C   UNL A   1      44.308 -13.542 -34.987  0.00  0.00    +0.012 C 
BRANCH  28  29
ATOM     29  C   UNL A   1      44.935 -14.222 -36.203  0.00  0.00    -0.037 C 
BRANCH  29  30
ATOM     30  C   UNL A   1      46.118 -13.413 -36.737  0.00  0.00    -0.052 C 
BRANCH  30  31
ATOM     31  C   UNL A   1      46.337 -13.655 -38.233  0.00  0.00    -0.053 C 
BRANCH  31  32
ATOM     32  C   UNL A   1      45.002 -13.758 -38.975  0.00  0.00    -0.053 C 
BRANCH  32  33
ATOM     33  C   UNL A   1      45.147 -14.261 -40.414  0.00  0.00    -0.052 C 
BRANCH  33  34
ATOM     34  C   UNL A   1      46.454 -15.023 -40.650  0.00  0.00    -0.037 C 
BRANCH  34  35
ATOM     35  C   UNL A   1      46.212 -16.531 -40.751  0.00  0.00    +0.009 C 
BRANCH  35  36
ATOM     36  N   UNL A   1      47.311 -17.233 -40.075  0.00  0.00    -0.343 N 
ATOM     37  H   UNL A   1      48.252 -16.947 -40.111  0.00  0.00    +0.000 HD
BRANCH  36  38
ATOM     38  C   UNL A   1      46.851 -18.378 -39.360  0.00  0.00    +0.041 A 
ATOM     39  C   UNL A   1      46.562 -19.581 -40.035  0.00  0.00    -0.005 A 
ATOM     40  C   UNL A   1      46.168 -20.678 -39.262  0.00  0.00    +0.047 A 
ATOM     41  N   UNL A   1      46.103 -20.649 -37.910  0.00  0.00    -0.251 NA
ATOM     42  C   UNL A   1      46.391 -19.509 -37.268  0.00  0.00    +0.073 A 
ATOM     43  C   UNL A   1      46.303 -19.493 -35.882  0.00  0.00    -0.036 A 
ATOM     44  C   UNL A   1      46.568 -18.342 -35.136  0.00  0.00    -0.060 A 
ATOM     45  C   UNL A   1      46.928 -17.172 -35.788  0.00  0.00    -0.061 A 
ATOM     46  C   UNL A   1      47.024 -17.167 -37.178  0.00  0.00    -0.051 A 
ATOM     47  C   UNL A   1      46.771 -18.333 -37.941  0.00  0.00    +0.021 A 
ATOM     48  C   UNL A   1      45.843 -22.013 -39.882  0.00  0.00    -0.010 C 
ATOM     49  C   UNL A   1      45.498 -21.923 -41.364  0.00  0.00    -0.047 C 
ATOM     50  C   UNL A   1      46.555 -21.103 -42.086  0.00  0.00    -0.049 C 
ATOM     51  C   UNL A   1      46.590 -19.676 -41.543  0.00  0.00    -0.024 C 
ENDBRANCH  36  38
ENDBRANCH  35  36
ENDBRANCH  34  35
ENDBRANCH  33  34
ENDBRANCH  32  33
ENDBRANCH  31  32
ENDBRANCH  30  31
ENDBRANCH  29  30
ENDBRANCH  28  29
ENDBRANCH   3  28
TORSDOF 17
ENDMDL
