@<TRIPOS>MOLECULE
*****
 43 49 0 0 0
SMALL
GASTEIGER

@<TRIPOS>ATOM
      1 C          -5.8938    3.2858    0.0000 C.3     1  UNL1        0.0050
      2 C          -5.0128    2.8936    0.0000 C.3     1  UNL1        0.0262
      3 C          -5.0128    1.9293    0.0000 C.ar    1  UNL1       -0.0213
      4 C          -4.1772    1.4471    0.0000 C.ar    1  UNL1        0.0157
      5 C          -4.1771    0.4822    0.0000 C.ar    1  UNL1        0.0946
      6 N          -5.0127   -0.0001    0.0000 N.ar    1  UNL1       -0.2442
      7 C          -5.8478    0.4821    0.0000 C.ar    1  UNL1        0.0812
      8 C          -6.6834   -0.0004    0.0000 C.ar    1  UNL1        0.0222
      9 C          -7.5191    0.4820    0.0000 C.ar    1  UNL1        0.0392
     10 C          -7.5192    1.4469    0.0000 C.ar    1  UNL1        0.1501
     11 O          -8.3954    1.9527    0.0000 O.3     1  UNL1       -0.4101
     12 C          -8.3954    2.9645    0.0000 C.2     1  UNL1        0.4094
     13 O          -7.5193    3.4704    0.0000 O.2     1  UNL1       -0.2258
     14 N          -9.2716    3.4703    0.0000 N.am    1  UNL1       -0.2456
     15 C         -10.1478    2.9644    0.0000 C.3     1  UNL1        0.0981
     16 C         -11.0240    3.4702    0.0000 C.3     1  UNL1        0.0376
     17 C         -11.0241    4.4819    0.0000 C.3     1  UNL1        0.0609
     18 N         -11.9003    4.9877    0.0000 N.3     1  UNL1       -0.2738
     19 C         -12.7764    4.4818    0.0000 C.3     1  UNL1        0.0720
     20 C         -13.6526    4.9876    0.0000 C.3     1  UNL1        0.0174
     21 C         -13.6527    5.9993    0.0000 C.3     1  UNL1        0.0029
     22 C         -12.7765    6.5052    0.0000 C.3     1  UNL1        0.0174
     23 C         -11.9003    5.9994    0.0000 C.3     1  UNL1        0.0720
     24 C         -10.1479    4.9878    0.0000 C.3     1  UNL1        0.0376
     25 C          -9.2717    4.4820    0.0000 C.3     1  UNL1        0.0981
     26 C          -6.6835    1.9295    0.0000 C.ar    1  UNL1        0.0388
     27 C          -5.8479    1.4470    0.0000 C.ar    1  UNL1        0.0165
     28 C          -2.5064    0.4823    0.0000 C.ar    1  UNL1        0.0799
     29 C          -1.6708    0.0001    0.0000 C.ar    1  UNL1        0.0174
     30 C          -0.8357    0.4824    0.0000 C.ar    1  UNL1        0.0209
     31 C          -0.8357    1.4473    0.0000 C.ar    1  UNL1        0.0763
     32 C          -1.6709    1.9295    0.0000 C.ar    1  UNL1        0.2604
     33 O          -1.6708    2.9295    0.0000 O.2     1  UNL1       -0.2672
     34 N          -2.5064    1.4472    0.0000 N.ar    1  UNL1       -0.2900
     35 C          -3.3421    1.9294    0.0000 C.3     1  UNL1        0.1370
     36 C          -0.0001    1.9299    0.0000 C.3     1  UNL1        0.2396
     37 O           0.8356    1.4474    0.0000 O.3     1  UNL1       -0.4414
     38 C           0.8356    0.4825    0.0000 C.2     1  UNL1        0.3490
     39 O           1.7118   -0.0233    0.0000 O.2     1  UNL1       -0.2470
     40 C           0.0000   -0.0000    0.0000 C.3     1  UNL1        0.2334
     41 O          -0.5058   -0.8762    0.0000 O.3     1  UNL1       -0.2097
     42 C           0.5059   -0.8761    0.0000 C.3     1  UNL1        0.0458
     43 C           0.0001   -1.7524    0.0000 C.3     1  UNL1        0.0036
@<TRIPOS>BOND
     1     1     2    1
     2     2     3    1
     3     3     4   ar
     4     4     5   ar
     5     5     6   ar
     6     6     7   ar
     7     7     8   ar
     8     8     9   ar
     9     9    10   ar
    10    10    11    1
    11    11    12    1
    12    12    13    2
    13    12    14   am
    14    14    15    1
    15    15    16    1
    16    16    17    1
    17    17    18    1
    18    18    19    1
    19    19    20    1
    20    20    21    1
    21    21    22    1
    22    22    23    1
    23    18    23    1
    24    17    24    1
    25    24    25    1
    26    14    25    1
    27    10    26   ar
    28    26    27   ar
    29     3    27   ar
    30     7    27   ar
    31     5    28    1
    32    28    29   ar
    33    29    30   ar
    34    30    31   ar
    35    31    32   ar
    36    32    33    2
    37    32    34   ar
    38    28    34   ar
    39    34    35    1
    40     4    35    1
    41    31    36    1
    42    36    37    1
    43    37    38    1
    44    38    39    2
    45    38    40    1
    46    30    40    1
    47    40    41    1
    48    40    42    1
    49    42    43    1
