REMARK  Name = cpd158.pdb
REMARK  8 active torsions:
REMARK  status: ('A' for Active; 'I' for Inactive)
REMARK    1  A    between atoms: C_1  and  C_2
REMARK    2  A    between atoms: C_2  and  C_3
REMARK    3  A    between atoms: C_10  and  O_11
REMARK    4  A    between atoms: O_11  and  C_12
REMARK    5  A    between atoms: C_17  and  N_18
REMARK    6  A    between atoms: C_40  and  O_41
REMARK    7  A    between atoms: C_40  and  C_42
REMARK    8  A    between atoms: C_42  and  C_43
REMARK                            x       y       z     vdW  Elec       q    Type
REMARK                         _______ _______ _______ _____ _____    ______ ____
ROOT
ATOM      1  C   UNL     1      -4.589   2.582   0.346  0.00  0.00    -0.031 A 
ATOM      2  C   UNL     1      -3.251   2.193   0.315  0.00  0.00    +0.003 A 
ATOM      3  C   UNL     1      -2.909   0.846   0.295  0.00  0.00    +0.093 A 
ATOM      4  N   UNL     1      -3.766  -0.173   0.217  0.00  0.00    -0.245 NA
ATOM      5  C   UNL     1      -5.063   0.167   0.159  0.00  0.00    +0.072 A 
ATOM      6  C   UNL     1      -5.970  -0.874  -0.025  0.00  0.00    -0.032 A 
ATOM      7  C   UNL     1      -7.345  -0.659  -0.147  0.00  0.00    -0.017 A 
ATOM      8  C   UNL     1      -7.814   0.635  -0.053  0.00  0.00    +0.134 A 
ATOM      9  C   UNL     1      -6.935   1.694   0.207  0.00  0.00    -0.010 A 
ATOM     10  C   UNL     1      -5.540   1.519   0.253  0.00  0.00    +0.007 A 
ATOM     11  C   UNL     1      -1.452   0.752   0.276  0.00  0.00    +0.071 A 
ATOM     12  C   UNL     1      -0.640  -0.308   0.345  0.00  0.00    -0.029 A 
ATOM     13  C   UNL     1       0.805  -0.105   0.275  0.00  0.00    +0.008 A 
ATOM     14  C   UNL     1       1.297   1.136   0.092  0.00  0.00    +0.061 A 
ATOM     15  C   UNL     1       0.386   2.324   0.051  0.00  0.00    +0.259 A 
ATOM     16  O   UNL     1       0.830   3.460  -0.073  0.00  0.00    -0.267 OA
ATOM     17  N   UNL     1      -0.944   2.030   0.181  0.00  0.00    -0.302 N 
ATOM     18  C   UNL     1      -2.005   3.031   0.248  0.00  0.00    +0.054 C 
ATOM     19  C   UNL     1       2.746   1.446  -0.030  0.00  0.00    +0.123 C 
ATOM     20  O   UNL     1       3.620   0.312   0.118  0.00  0.00    -0.457 OA
ATOM     21  C   UNL     1       3.185  -0.795   0.757  0.00  0.00    +0.344 C 
ATOM     22  O   UNL     1       3.946  -1.469   1.452  0.00  0.00    -0.247 OA
ATOM     23  C   UNL     1       1.741  -1.273   0.458  0.00  0.00    +0.188 C 
ENDROOT
BRANCH   1  25
ATOM     24  C   UNL     1      -6.187   4.732   0.382  0.00  0.00    -0.061 C 
ATOM     25  C   UNL     1      -4.818   4.079   0.458  0.00  0.00    -0.030 C 
ENDBRANCH   1  25
BRANCH  23  26
ATOM     26  O   UNL     1       1.309  -2.012   1.613  0.00  0.00    -0.373 OA
ATOM     27  H   UNL     1       1.248  -1.415   2.375  0.00  0.00    +0.000 HD
ENDBRANCH  23  26
BRANCH  23  28
ATOM     28  C   UNL     1       1.835  -2.234  -0.750  0.00  0.00    -0.012 C 
ATOM     29  C   UNL     1       0.628  -3.137  -0.975  0.00  0.00    -0.062 C 
ENDBRANCH  23  28
BRANCH   8  30
ATOM     30  O   UNL     1      -9.186   0.885  -0.174  0.00  0.00    -0.411 OA
BRANCH  30  31
ATOM     31  C   UNL     1      -9.424   1.896  -1.102  0.00  0.00    +0.408 C 
ATOM     32  O   UNL     1      -8.759   2.067  -2.121  0.00  0.00    -0.226 OA
ATOM     33  N   UNL     1     -10.404   2.793  -0.689  0.00  0.00    -0.267 N 
ATOM     34  C   UNL     1     -11.200   2.602   0.510  0.00  0.00    +0.019 C 
ATOM     35  C   UNL     1     -12.568   3.285   0.417  0.00  0.00    -0.021 C 
ATOM     36  C   UNL     1     -12.577   4.617  -0.379  0.00  0.00    +0.013 C 
ATOM     37  C   UNL     1     -11.145   5.161  -0.471  0.00  0.00    -0.021 C 
ATOM     38  C   UNL     1     -10.270   4.148  -1.200  0.00  0.00    +0.019 C 
BRANCH  36  39
ATOM     39  N   UNL     1     -13.591   5.548   0.191  0.00  0.00    -0.299 N 
ATOM     40  C   UNL     1     -14.953   5.066  -0.132  0.00  0.00    -0.001 C 
ATOM     41  C   UNL     1     -16.051   5.965   0.437  0.00  0.00    -0.040 C 
ATOM     42  C   UNL     1     -15.884   7.401  -0.034  0.00  0.00    -0.051 C 
ATOM     43  C   UNL     1     -14.483   7.886   0.299  0.00  0.00    -0.040 C 
ATOM     44  C   UNL     1     -13.418   6.941  -0.261  0.00  0.00    -0.001 C 
ATOM     45  H   UNL     1     -13.455   5.555   1.202  0.00  0.00    +0.000 HD
ENDBRANCH  36  39
ENDBRANCH  30  31
ENDBRANCH   8  30
TORSDOF 6
