MODEL 1
REMARK VINA RESULT:   -10.675      0.000      0.000
REMARK INTER + INTRA:         -14.719
REMARK INTER:                 -14.108
REMARK INTRA:                  -0.611
REMARK UNBOUND:                -0.611
REMARK  Name = cpd158.pdb
REMARK  8 active torsions:
REMARK  status: ('A' for Active; 'I' for Inactive)
REMARK    1  A    between atoms: C_1  and  C_2
REMARK    2  A    between atoms: C_2  and  C_3
REMARK    3  A    between atoms: C_10  and  O_11
REMARK    4  A    between atoms: O_11  and  C_12
REMARK    5  A    between atoms: C_17  and  N_18
REMARK    6  A    between atoms: C_40  and  O_41
REMARK    7  A    between atoms: C_40  and  C_42
REMARK    8  A    between atoms: C_42  and  C_43
REMARK                            x       y       z     vdW  Elec       q    Type
REMARK                         _______ _______ _______ _____ _____    ______ ____
ROOT
ATOM      1  C   UNL     1      34.114 -36.262 -28.307  0.00  0.00    -0.031 A 
ATOM      2  C   UNL     1      35.428 -36.554 -28.668  0.00  0.00    +0.003 A 
ATOM      3  C   UNL     1      36.078 -35.797 -29.635  0.00  0.00    +0.093 A 
ATOM      4  N   UNL     1      35.586 -34.712 -30.234  0.00  0.00    -0.245 NA
ATOM      5  C   UNL     1      34.352 -34.350 -29.849  0.00  0.00    +0.072 A 
ATOM      6  C   UNL     1      33.858 -33.163 -30.385  0.00  0.00    -0.032 A 
ATOM      7  C   UNL     1      32.608 -32.646 -30.037  0.00  0.00    -0.017 A 
ATOM      8  C   UNL     1      31.830 -33.359 -29.149  0.00  0.00    +0.134 A 
ATOM      9  C   UNL     1      32.268 -34.593 -28.652  0.00  0.00    -0.010 A 
ATOM     10  C   UNL     1      33.553 -35.099 -28.919  0.00  0.00    +0.007 A 
ATOM     11  C   UNL     1      37.422 -36.342 -29.805  0.00  0.00    +0.071 A 
ATOM     12  C   UNL     1      38.393 -36.030 -30.669  0.00  0.00    -0.029 A 
ATOM     13  C   UNL     1      39.671 -36.734 -30.591  0.00  0.00    +0.008 A 
ATOM     14  C   UNL     1      39.871 -37.650 -29.623  0.00  0.00    +0.061 A 
ATOM     15  C   UNL     1      38.769 -38.022 -28.680  0.00  0.00    +0.259 A 
ATOM     16  O   UNL     1      38.931 -38.885 -27.824  0.00  0.00    -0.267 OA
ATOM     17  N   UNL     1      37.596 -37.344 -28.874  0.00  0.00    -0.302 N 
ATOM     18  C   UNL     1      36.367 -37.596 -28.127  0.00  0.00    +0.054 C 
ATOM     19  C   UNL     1      41.144 -38.394 -29.434  0.00  0.00    +0.123 C 
ATOM     20  O   UNL     1      42.161 -38.108 -30.411  0.00  0.00    -0.457 OA
ATOM     21  C   UNL     1      41.818 -37.587 -31.608  0.00  0.00    +0.344 C 
ATOM     22  O   UNL     1      42.426 -37.895 -32.634  0.00  0.00    -0.247 OA
ATOM     23  C   UNL     1      40.740 -36.473 -31.622  0.00  0.00    +0.188 C 
ENDROOT
BRANCH   1  25
ATOM     24  C   UNL     1      33.519 -37.008 -25.804  0.00  0.00    -0.061 C 
ATOM     25  C   UNL     1      33.496 -37.224 -27.307  0.00  0.00    -0.030 C 
ENDBRANCH   1  25
BRANCH  23  26
ATOM     26  O   UNL     1      40.126 -36.516 -32.921  0.00  0.00    -0.373 OA
ATOM     27  H   UNL     1      39.717 -37.385 -33.057  0.00  0.00    +0.000 HD
ENDBRANCH  23  26
BRANCH  23  28
ATOM     28  C   UNL     1      41.491 -35.130 -31.463  0.00  0.00    -0.012 C 
ATOM     29  C   UNL     1      40.675 -33.876 -31.751  0.00  0.00    -0.062 C 
ENDBRANCH  23  28
BRANCH   8  30
ATOM     30  O   UNL     1      30.574 -32.867 -28.778  0.00  0.00    -0.411 OA
BRANCH  30  31
ATOM     31  C   UNL     1      29.849 -32.467 -29.898  0.00  0.00    +0.408 C 
ATOM     32  O   UNL     1      29.539 -33.215 -30.822  0.00  0.00    -0.226 OA
ATOM     33  N   UNL     1      29.633 -31.093 -29.943  0.00  0.00    -0.267 N 
ATOM     34  C   UNL     1      29.990 -30.198 -28.858  0.00  0.00    +0.019 C 
ATOM     35  C   UNL     1      29.116 -28.940 -28.827  0.00  0.00    -0.021 C 
ATOM     36  C   UNL     1      28.679 -28.418 -30.221  0.00  0.00    +0.013 C 
ATOM     37  C   UNL     1      29.609 -29.001 -31.294  0.00  0.00    -0.021 C 
ATOM     38  C   UNL     1      29.505 -30.521 -31.274  0.00  0.00    +0.019 C 
BRANCH  36  39
ATOM     39  N   UNL     1      28.563 -26.933 -30.199  0.00  0.00    -0.299 N 
ATOM     40  C   UNL     1      28.763 -26.434 -28.819  0.00  0.00    -0.001 C 
ATOM     41  C   UNL     1      28.675 -24.911 -28.720  0.00  0.00    -0.040 C 
ATOM     42  C   UNL     1      27.352 -24.401 -29.269  0.00  0.00    -0.051 C 
ATOM     43  C   UNL     1      27.153 -24.920 -30.683  0.00  0.00    -0.040 C 
ATOM     44  C   UNL     1      27.282 -26.443 -30.741  0.00  0.00    -0.001 C 
ATOM     45  H   UNL     1      29.293 -26.567 -30.811  0.00  0.00    +0.000 HD
ENDBRANCH  36  39
ENDBRANCH  30  31
ENDBRANCH   8  30
TORSDOF 6
ENDMDL
MODEL 2
REMARK VINA RESULT:    -9.466      2.107      2.584
REMARK INTER + INTRA:         -13.121
REMARK INTER:                 -12.682
REMARK INTRA:                  -0.439
REMARK UNBOUND:                -0.611
REMARK  Name = cpd158.pdb
REMARK  8 active torsions:
REMARK  status: ('A' for Active; 'I' for Inactive)
REMARK    1  A    between atoms: C_1  and  C_2
REMARK    2  A    between atoms: C_2  and  C_3
REMARK    3  A    between atoms: C_10  and  O_11
REMARK    4  A    between atoms: O_11  and  C_12
REMARK    5  A    between atoms: C_17  and  N_18
REMARK    6  A    between atoms: C_40  and  O_41
REMARK    7  A    between atoms: C_40  and  C_42
REMARK    8  A    between atoms: C_42  and  C_43
REMARK                            x       y       z     vdW  Elec       q    Type
REMARK                         _______ _______ _______ _____ _____    ______ ____
ROOT
ATOM      1  C   UNL     1      33.834 -35.695 -29.370  0.00  0.00    -0.031 A 
ATOM      2  C   UNL     1      35.153 -36.146 -29.379  0.00  0.00    +0.003 A 
ATOM      3  C   UNL     1      36.092 -35.563 -30.222  0.00  0.00    +0.093 A 
ATOM      4  N   UNL     1      35.880 -34.507 -31.009  0.00  0.00    -0.245 NA
ATOM      5  C   UNL     1      34.642 -33.992 -30.963  0.00  0.00    +0.072 A 
ATOM      6  C   UNL     1      34.426 -32.829 -31.699  0.00  0.00    -0.032 A 
ATOM      7  C   UNL     1      33.198 -32.162 -31.706  0.00  0.00    -0.017 A 
ATOM      8  C   UNL     1      32.160 -32.700 -30.974  0.00  0.00    +0.134 A 
ATOM      9  C   UNL     1      32.324 -33.908 -30.285  0.00  0.00    -0.010 A 
ATOM     10  C   UNL     1      33.569 -34.557 -30.193  0.00  0.00    +0.007 A 
ATOM     11  C   UNL     1      37.366 -36.246 -30.018  0.00  0.00    +0.071 A 
ATOM     12  C   UNL     1      38.539 -36.121 -30.647  0.00  0.00    -0.029 A 
ATOM     13  C   UNL     1      39.674 -36.930 -30.206  0.00  0.00    +0.008 A 
ATOM     14  C   UNL     1      39.538 -37.750 -29.146  0.00  0.00    +0.061 A 
ATOM     15  C   UNL     1      38.213 -37.913 -28.467  0.00  0.00    +0.259 A 
ATOM     16  O   UNL     1      38.072 -38.689 -27.528  0.00  0.00    -0.267 OA
ATOM     17  N   UNL     1      37.203 -37.152 -28.992  0.00  0.00    -0.302 N 
ATOM     18  C   UNL     1      35.815 -37.206 -28.543  0.00  0.00    +0.054 C 
ATOM     19  C   UNL     1      40.637 -38.585 -28.595  0.00  0.00    +0.123 C 
ATOM     20  O   UNL     1      41.878 -38.503 -29.320  0.00  0.00    -0.457 OA
ATOM     21  C   UNL     1      41.882 -38.086 -30.604  0.00  0.00    +0.344 C 
ATOM     22  O   UNL     1      42.670 -38.559 -31.424  0.00  0.00    -0.247 OA
ATOM     23  C   UNL     1      40.974 -36.884 -30.968  0.00  0.00    +0.188 C 
ENDROOT
BRANCH   1  25
ATOM     24  C   UNL     1      31.863 -35.837 -27.562  0.00  0.00    -0.061 C 
ATOM     25  C   UNL     1      32.895 -36.480 -28.471  0.00  0.00    -0.030 C 
ENDBRANCH   1  25
BRANCH  23  26
ATOM     26  O   UNL     1      40.674 -37.010 -32.368  0.00  0.00    -0.373 OA
ATOM     27  H   UNL     1      39.816 -37.449 -32.477  0.00  0.00    +0.000 HD
ENDBRANCH  23  26
BRANCH  23  28
ATOM     28  C   UNL     1      41.819 -35.608 -30.746  0.00  0.00    -0.012 C 
ATOM     29  C   UNL     1      42.459 -35.010 -31.994  0.00  0.00    -0.062 C 
ENDBRANCH  23  28
BRANCH   8  30
ATOM     30  O   UNL     1      30.918 -32.054 -30.957  0.00  0.00    -0.411 OA
BRANCH  30  31
ATOM     31  C   UNL     1      30.897 -31.048 -29.995  0.00  0.00    +0.408 C 
ATOM     32  O   UNL     1      31.903 -30.562 -29.484  0.00  0.00    -0.226 OA
ATOM     33  N   UNL     1      29.612 -30.744 -29.555  0.00  0.00    -0.267 N 
ATOM     34  C   UNL     1      28.415 -31.307 -30.151  0.00  0.00    +0.019 C 
ATOM     35  C   UNL     1      27.196 -30.394 -29.988  0.00  0.00    -0.021 C 
ATOM     36  C   UNL     1      27.160 -29.589 -28.662  0.00  0.00    +0.013 C 
ATOM     37  C   UNL     1      28.095 -30.252 -27.641  0.00  0.00    -0.021 C 
ATOM     38  C   UNL     1      29.517 -30.251 -28.190  0.00  0.00    +0.019 C 
BRANCH  36  39
ATOM     39  N   UNL     1      25.751 -29.391 -28.220  0.00  0.00    -0.299 N 
ATOM     40  C   UNL     1      25.293 -28.034 -28.595  0.00  0.00    -0.001 C 
ATOM     41  C   UNL     1      23.844 -27.764 -28.188  0.00  0.00    -0.040 C 
ATOM     42  C   UNL     1      23.642 -27.985 -26.697  0.00  0.00    -0.051 C 
ATOM     43  C   UNL     1      24.118 -29.378 -26.321  0.00  0.00    -0.040 C 
ATOM     44  C   UNL     1      25.559 -29.617 -26.775  0.00  0.00    -0.001 C 
ATOM     45  H   UNL     1      25.187 -30.094 -28.698  0.00  0.00    +0.000 HD
ENDBRANCH  36  39
ENDBRANCH  30  31
ENDBRANCH   8  30
TORSDOF 6
ENDMDL
MODEL 3
REMARK VINA RESULT:    -9.321     16.096     21.234
REMARK INTER + INTRA:         -12.929
REMARK INTER:                 -12.337
REMARK INTRA:                  -0.593
REMARK UNBOUND:                -0.611
REMARK  Name = cpd158.pdb
REMARK  8 active torsions:
REMARK  status: ('A' for Active; 'I' for Inactive)
REMARK    1  A    between atoms: C_1  and  C_2
REMARK    2  A    between atoms: C_2  and  C_3
REMARK    3  A    between atoms: C_10  and  O_11
REMARK    4  A    between atoms: O_11  and  C_12
REMARK    5  A    between atoms: C_17  and  N_18
REMARK    6  A    between atoms: C_40  and  O_41
REMARK    7  A    between atoms: C_40  and  C_42
REMARK    8  A    between atoms: C_42  and  C_43
REMARK                            x       y       z     vdW  Elec       q    Type
REMARK                         _______ _______ _______ _____ _____    ______ ____
ROOT
ATOM      1  C   UNL     1      41.713 -19.774 -33.650  0.00  0.00    -0.031 A 
ATOM      2  C   UNL     1      40.609 -19.029 -33.240  0.00  0.00    +0.003 A 
ATOM      3  C   UNL     1      40.773 -17.740 -32.746  0.00  0.00    +0.093 A 
ATOM      4  N   UNL     1      41.925 -17.069 -32.692  0.00  0.00    -0.245 NA
ATOM      5  C   UNL     1      42.998 -17.726 -33.158  0.00  0.00    +0.072 A 
ATOM      6  C   UNL     1      44.192 -17.009 -33.206  0.00  0.00    -0.032 A 
ATOM      7  C   UNL     1      45.375 -17.555 -33.709  0.00  0.00    -0.017 A 
ATOM      8  C   UNL     1      45.356 -18.863 -34.148  0.00  0.00    +0.134 A 
ATOM      9  C   UNL     1      44.190 -19.632 -34.043  0.00  0.00    -0.010 A 
ATOM     10  C   UNL     1      42.965 -19.087 -33.617  0.00  0.00    +0.007 A 
ATOM     11  C   UNL     1      39.455 -17.222 -32.392  0.00  0.00    +0.071 A 
ATOM     12  C   UNL     1      39.091 -16.081 -31.798  0.00  0.00    -0.029 A 
ATOM     13  C   UNL     1      37.671 -15.808 -31.589  0.00  0.00    +0.008 A 
ATOM     14  C   UNL     1      36.749 -16.681 -32.039  0.00  0.00    +0.061 A 
ATOM     15  C   UNL     1      37.162 -17.975 -32.672  0.00  0.00    +0.259 A 
ATOM     16  O   UNL     1      36.329 -18.793 -33.046  0.00  0.00    -0.267 OA
ATOM     17  N   UNL     1      38.515 -18.157 -32.770  0.00  0.00    -0.302 N 
ATOM     18  C   UNL     1      39.146 -19.372 -33.278  0.00  0.00    +0.054 C 
ATOM     19  C   UNL     1      35.281 -16.481 -31.911  0.00  0.00    +0.123 C 
ATOM     20  O   UNL     1      34.895 -15.287 -31.206  0.00  0.00    -0.457 OA
ATOM     21  C   UNL     1      35.767 -14.688 -30.367  0.00  0.00    +0.344 C 
ATOM     22  O   UNL     1      35.381 -14.139 -29.335  0.00  0.00    -0.247 OA
ATOM     23  C   UNL     1      37.243 -14.579 -30.827  0.00  0.00    +0.188 C 
ENDROOT
BRANCH   1  25
ATOM     24  C   UNL     1      41.146 -21.606 -35.521  0.00  0.00    -0.061 C 
ATOM     25  C   UNL     1      41.400 -21.197 -34.081  0.00  0.00    -0.030 C 
ENDBRANCH   1  25
BRANCH  23  26
ATOM     26  O   UNL     1      38.037 -14.499 -29.631  0.00  0.00    -0.373 OA
ATOM     27  H   UNL     1      37.687 -13.801 -29.056  0.00  0.00    +0.000 HD
ENDBRANCH  23  26
BRANCH  23  28
ATOM     28  C   UNL     1      37.367 -13.248 -31.605  0.00  0.00    -0.012 C 
ATOM     29  C   UNL     1      38.623 -12.432 -31.328  0.00  0.00    -0.062 C 
ENDBRANCH  23  28
BRANCH   8  30
ATOM     30  O   UNL     1      46.524 -19.439 -34.661  0.00  0.00    -0.411 OA
BRANCH  30  31
ATOM     31  C   UNL     1      47.089 -18.623 -35.638  0.00  0.00    +0.408 C 
ATOM     32  O   UNL     1      47.611 -17.535 -35.411  0.00  0.00    -0.226 OA
ATOM     33  N   UNL     1      46.874 -19.094 -36.930  0.00  0.00    -0.267 N 
ATOM     34  C   UNL     1      46.262 -20.380 -37.214  0.00  0.00    +0.019 C 
ATOM     35  C   UNL     1      46.710 -20.954 -38.562  0.00  0.00    -0.021 C 
ATOM     36  C   UNL     1      46.962 -19.895 -39.667  0.00  0.00    +0.013 C 
ATOM     37  C   UNL     1      46.253 -18.588 -39.288  0.00  0.00    -0.021 C 
ATOM     38  C   UNL     1      46.817 -18.077 -37.967  0.00  0.00    +0.019 C 
BRANCH  36  39
ATOM     39  N   UNL     1      46.619 -20.458 -41.004  0.00  0.00    -0.299 N 
ATOM     40  C   UNL     1      45.310 -19.928 -41.450  0.00  0.00    -0.001 C 
ATOM     41  C   UNL     1      44.897 -20.450 -42.826  0.00  0.00    -0.040 C 
ATOM     42  C   UNL     1      44.878 -21.970 -42.855  0.00  0.00    -0.051 C 
ATOM     43  C   UNL     1      46.224 -22.504 -42.393  0.00  0.00    -0.040 C 
ATOM     44  C   UNL     1      46.612 -21.932 -41.028  0.00  0.00    -0.001 C 
ATOM     45  H   UNL     1      47.351 -20.163 -41.649  0.00  0.00    +0.000 HD
ENDBRANCH  36  39
ENDBRANCH  30  31
ENDBRANCH   8  30
TORSDOF 6
ENDMDL
MODEL 4
REMARK VINA RESULT:    -9.275      3.208      4.316
REMARK INTER + INTRA:         -12.869
REMARK INTER:                 -11.841
REMARK INTRA:                  -1.028
REMARK UNBOUND:                -0.611
REMARK  Name = cpd158.pdb
REMARK  8 active torsions:
REMARK  status: ('A' for Active; 'I' for Inactive)
REMARK    1  A    between atoms: C_1  and  C_2
REMARK    2  A    between atoms: C_2  and  C_3
REMARK    3  A    between atoms: C_10  and  O_11
REMARK    4  A    between atoms: O_11  and  C_12
REMARK    5  A    between atoms: C_17  and  N_18
REMARK    6  A    between atoms: C_40  and  O_41
REMARK    7  A    between atoms: C_40  and  C_42
REMARK    8  A    between atoms: C_42  and  C_43
REMARK                            x       y       z     vdW  Elec       q    Type
REMARK                         _______ _______ _______ _____ _____    ______ ____
ROOT
ATOM      1  C   UNL     1      33.654 -35.672 -29.226  0.00  0.00    -0.031 A 
ATOM      2  C   UNL     1      34.976 -36.109 -29.279  0.00  0.00    +0.003 A 
ATOM      3  C   UNL     1      35.880 -35.515 -30.152  0.00  0.00    +0.093 A 
ATOM      4  N   UNL     1      35.631 -34.462 -30.932  0.00  0.00    -0.245 NA
ATOM      5  C   UNL     1      34.390 -33.960 -30.844  0.00  0.00    +0.072 A 
ATOM      6  C   UNL     1      34.137 -32.799 -31.572  0.00  0.00    -0.032 A 
ATOM      7  C   UNL     1      32.903 -32.146 -31.538  0.00  0.00    -0.017 A 
ATOM      8  C   UNL     1      31.895 -32.694 -30.773  0.00  0.00    +0.134 A 
ATOM      9  C   UNL     1      32.095 -33.901 -30.090  0.00  0.00    -0.010 A 
ATOM     10  C   UNL     1      33.349 -34.537 -30.040  0.00  0.00    +0.007 A 
ATOM     11  C   UNL     1      37.167 -36.185 -29.991  0.00  0.00    +0.071 A 
ATOM     12  C   UNL     1      38.318 -36.047 -30.658  0.00  0.00    -0.029 A 
ATOM     13  C   UNL     1      39.475 -36.843 -30.256  0.00  0.00    +0.008 A 
ATOM     14  C   UNL     1      39.383 -37.665 -29.192  0.00  0.00    +0.061 A 
ATOM     15  C   UNL     1      38.083 -37.842 -28.470  0.00  0.00    +0.259 A 
ATOM     16  O   UNL     1      37.982 -38.620 -27.527  0.00  0.00    -0.267 OA
ATOM     17  N   UNL     1      37.049 -37.093 -28.960  0.00  0.00    -0.302 N 
ATOM     18  C   UNL     1      35.677 -37.161 -28.467  0.00  0.00    +0.054 C 
ATOM     19  C   UNL     1      40.509 -38.488 -28.678  0.00  0.00    +0.123 C 
ATOM     20  O   UNL     1      41.725 -38.393 -29.443  0.00  0.00    -0.457 OA
ATOM     21  C   UNL     1      41.682 -37.975 -30.726  0.00  0.00    +0.344 C 
ATOM     22  O   UNL     1      42.447 -38.439 -31.573  0.00  0.00    -0.247 OA
ATOM     23  C   UNL     1      40.749 -36.783 -31.060  0.00  0.00    +0.188 C 
ENDROOT
BRANCH   1  25
ATOM     24  C   UNL     1      32.382 -36.020 -26.894  0.00  0.00    -0.061 C 
ATOM     25  C   UNL     1      32.753 -36.467 -28.297  0.00  0.00    -0.030 C 
ENDBRANCH   1  25
BRANCH  23  26
ATOM     26  O   UNL     1      40.404 -36.912 -32.450  0.00  0.00    -0.373 OA
ATOM     27  H   UNL     1      41.191 -36.753 -32.995  0.00  0.00    +0.000 HD
ENDBRANCH  23  26
BRANCH  23  28
ATOM     28  C   UNL     1      41.588 -35.498 -30.865  0.00  0.00    -0.012 C 
ATOM     29  C   UNL     1      41.170 -34.299 -31.709  0.00  0.00    -0.062 C 
ENDBRANCH  23  28
BRANCH   8  30
ATOM     30  O   UNL     1      30.647 -32.063 -30.714  0.00  0.00    -0.411 OA
BRANCH  30  31
ATOM     31  C   UNL     1      29.647 -32.898 -31.206  0.00  0.00    +0.408 C 
ATOM     32  O   UNL     1      29.528 -33.210 -32.388  0.00  0.00    -0.226 OA
ATOM     33  N   UNL     1      28.698 -33.233 -30.245  0.00  0.00    -0.267 N 
ATOM     34  C   UNL     1      28.826 -32.874 -28.844  0.00  0.00    +0.019 C 
ATOM     35  C   UNL     1      28.085 -33.848 -27.922  0.00  0.00    -0.021 C 
ATOM     36  C   UNL     1      26.771 -34.428 -28.511  0.00  0.00    +0.013 C 
ATOM     37  C   UNL     1      26.294 -33.532 -29.663  0.00  0.00    -0.021 C 
ATOM     38  C   UNL     1      27.361 -33.505 -30.751  0.00  0.00    +0.019 C 
BRANCH  36  39
ATOM     39  N   UNL     1      25.783 -34.668 -27.422  0.00  0.00    -0.299 N 
ATOM     40  C   UNL     1      25.465 -33.391 -26.742  0.00  0.00    -0.001 C 
ATOM     41  C   UNL     1      24.441 -33.557 -25.619  0.00  0.00    -0.040 C 
ATOM     42  C   UNL     1      24.904 -34.585 -24.600  0.00  0.00    -0.051 C 
ATOM     43  C   UNL     1      25.231 -35.890 -25.307  0.00  0.00    -0.040 C 
ATOM     44  C   UNL     1      26.234 -35.674 -26.442  0.00  0.00    -0.001 C 
ATOM     45  H   UNL     1      24.944 -35.048 -27.859  0.00  0.00    +0.000 HD
ENDBRANCH  36  39
ENDBRANCH  30  31
ENDBRANCH   8  30
TORSDOF 6
ENDMDL
MODEL 5
REMARK VINA RESULT:    -9.022      3.257     13.142
REMARK INTER + INTRA:         -12.534
REMARK INTER:                 -11.629
REMARK INTRA:                  -0.905
REMARK UNBOUND:                -0.611
REMARK  Name = cpd158.pdb
REMARK  8 active torsions:
REMARK  status: ('A' for Active; 'I' for Inactive)
REMARK    1  A    between atoms: C_1  and  C_2
REMARK    2  A    between atoms: C_2  and  C_3
REMARK    3  A    between atoms: C_10  and  O_11
REMARK    4  A    between atoms: O_11  and  C_12
REMARK    5  A    between atoms: C_17  and  N_18
REMARK    6  A    between atoms: C_40  and  O_41
REMARK    7  A    between atoms: C_40  and  C_42
REMARK    8  A    between atoms: C_42  and  C_43
REMARK                            x       y       z     vdW  Elec       q    Type
REMARK                         _______ _______ _______ _____ _____    ______ ____
ROOT
ATOM      1  C   UNL     1      28.932 -31.698 -31.561  0.00  0.00    -0.031 A 
ATOM      2  C   UNL     1      28.446 -30.543 -30.950  0.00  0.00    +0.003 A 
ATOM      3  C   UNL     1      29.201 -29.885 -29.986  0.00  0.00    +0.093 A 
ATOM      4  N   UNL     1      30.442 -30.206 -29.616  0.00  0.00    -0.245 NA
ATOM      5  C   UNL     1      30.975 -31.265 -30.246  0.00  0.00    +0.072 A 
ATOM      6  C   UNL     1      32.304 -31.558 -29.950  0.00  0.00    -0.032 A 
ATOM      7  C   UNL     1      32.997 -32.604 -30.565  0.00  0.00    -0.017 A 
ATOM      8  C   UNL     1      32.322 -33.387 -31.478  0.00  0.00    +0.134 A 
ATOM      9  C   UNL     1      30.964 -33.164 -31.740  0.00  0.00    -0.010 A 
ATOM     10  C   UNL     1      30.263 -32.070 -31.199  0.00  0.00    +0.007 A 
ATOM     11  C   UNL     1      28.436 -28.729 -29.527  0.00  0.00    +0.071 A 
ATOM     12  C   UNL     1      28.681 -27.844 -28.555  0.00  0.00    -0.029 A 
ATOM     13  C   UNL     1      27.736 -26.753 -28.329  0.00  0.00    +0.008 A 
ATOM     14  C   UNL     1      26.660 -26.625 -29.130  0.00  0.00    +0.061 A 
ATOM     15  C   UNL     1      26.370 -27.639 -30.194  0.00  0.00    +0.259 A 
ATOM     16  O   UNL     1      25.371 -27.551 -30.898  0.00  0.00    -0.267 OA
ATOM     17  N   UNL     1      27.288 -28.650 -30.286  0.00  0.00    -0.302 N 
ATOM     18  C   UNL     1      27.170 -29.788 -31.193  0.00  0.00    +0.054 C 
ATOM     19  C   UNL     1      25.660 -25.532 -29.010  0.00  0.00    +0.123 C 
ATOM     20  O   UNL     1      25.888 -24.623 -27.917  0.00  0.00    -0.457 OA
ATOM     21  C   UNL     1      26.645 -25.008 -26.867  0.00  0.00    +0.344 C 
ATOM     22  O   UNL     1      26.386 -24.632 -25.724  0.00  0.00    -0.247 OA
ATOM     23  C   UNL     1      27.938 -25.807 -27.172  0.00  0.00    +0.188 C 
ENDROOT
BRANCH   1  25
ATOM     24  C   UNL     1      27.199 -33.636 -32.209  0.00  0.00    -0.061 C 
ATOM     25  C   UNL     1      27.968 -32.365 -32.526  0.00  0.00    -0.030 C 
ENDBRANCH   1  25
BRANCH  23  26
ATOM     26  O   UNL     1      28.218 -26.592 -26.000  0.00  0.00    -0.373 OA
ATOM     27  H   UNL     1      29.177 -26.702 -25.906  0.00  0.00    +0.000 HD
ENDBRANCH  23  26
BRANCH  23  28
ATOM     28  C   UNL     1      29.066 -24.767 -27.365  0.00  0.00    -0.012 C 
ATOM     29  C   UNL     1      29.186 -24.169 -28.761  0.00  0.00    -0.062 C 
ENDBRANCH  23  28
BRANCH   8  30
ATOM     30  O   UNL     1      32.988 -34.441 -32.114  0.00  0.00    -0.411 OA
BRANCH  30  31
ATOM     31  C   UNL     1      33.134 -35.525 -31.252  0.00  0.00    +0.408 C 
ATOM     32  O   UNL     1      32.194 -36.157 -30.774  0.00  0.00    -0.226 OA
ATOM     33  N   UNL     1      34.452 -35.736 -30.862  0.00  0.00    -0.267 N 
ATOM     34  C   UNL     1      35.572 -35.000 -31.421  0.00  0.00    +0.019 C 
ATOM     35  C   UNL     1      36.880 -35.796 -31.363  0.00  0.00    -0.021 C 
ATOM     36  C   UNL     1      37.030 -36.713 -30.121  0.00  0.00    +0.013 C 
ATOM     37  C   UNL     1      36.058 -36.246 -29.028  0.00  0.00    -0.021 C 
ATOM     38  C   UNL     1      34.630 -36.342 -29.552  0.00  0.00    +0.019 C 
BRANCH  36  39
ATOM     39  N   UNL     1      38.462 -36.805 -29.721  0.00  0.00    -0.299 N 
ATOM     40  C   UNL     1      39.326 -36.656 -30.914  0.00  0.00    -0.001 C 
ATOM     41  C   UNL     1      40.817 -36.724 -30.579  0.00  0.00    -0.040 C 
ATOM     42  C   UNL     1      41.157 -38.014 -29.850  0.00  0.00    -0.051 C 
ATOM     43  C   UNL     1      40.264 -38.160 -28.629  0.00  0.00    -0.040 C 
ATOM     44  C   UNL     1      38.784 -38.054 -29.005  0.00  0.00    -0.001 C 
ATOM     45  H   UNL     1      38.639 -36.044 -29.066  0.00  0.00    +0.000 HD
ENDBRANCH  36  39
ENDBRANCH  30  31
ENDBRANCH   8  30
TORSDOF 6
ENDMDL
MODEL 6
REMARK VINA RESULT:    -9.013      5.486     11.805
REMARK INTER + INTRA:         -12.522
REMARK INTER:                 -11.664
REMARK INTRA:                  -0.858
REMARK UNBOUND:                -0.611
REMARK  Name = cpd158.pdb
REMARK  8 active torsions:
REMARK  status: ('A' for Active; 'I' for Inactive)
REMARK    1  A    between atoms: C_1  and  C_2
REMARK    2  A    between atoms: C_2  and  C_3
REMARK    3  A    between atoms: C_10  and  O_11
REMARK    4  A    between atoms: O_11  and  C_12
REMARK    5  A    between atoms: C_17  and  N_18
REMARK    6  A    between atoms: C_40  and  O_41
REMARK    7  A    between atoms: C_40  and  C_42
REMARK    8  A    between atoms: C_42  and  C_43
REMARK                            x       y       z     vdW  Elec       q    Type
REMARK                         _______ _______ _______ _____ _____    ______ ____
ROOT
ATOM      1  C   UNL     1      33.382 -38.149 -26.025  0.00  0.00    -0.031 A 
ATOM      2  C   UNL     1      32.756 -38.338 -24.795  0.00  0.00    +0.003 A 
ATOM      3  C   UNL     1      31.953 -37.341 -24.253  0.00  0.00    +0.093 A 
ATOM      4  N   UNL     1      31.633 -36.190 -24.847  0.00  0.00    -0.245 NA
ATOM      5  C   UNL     1      32.151 -36.011 -26.072  0.00  0.00    +0.072 A 
ATOM      6  C   UNL     1      31.749 -34.864 -26.754  0.00  0.00    -0.032 A 
ATOM      7  C   UNL     1      32.175 -34.575 -28.053  0.00  0.00    -0.017 A 
ATOM      8  C   UNL     1      33.048 -35.451 -28.663  0.00  0.00    +0.134 A 
ATOM      9  C   UNL     1      33.529 -36.572 -27.976  0.00  0.00    -0.010 A 
ATOM     10  C   UNL     1      33.056 -36.932 -26.701  0.00  0.00    +0.007 A 
ATOM     11  C   UNL     1      31.450 -37.817 -22.968  0.00  0.00    +0.071 A 
ATOM     12  C   UNL     1      30.723 -37.204 -22.028  0.00  0.00    -0.029 A 
ATOM     13  C   UNL     1      30.333 -37.946 -20.831  0.00  0.00    +0.008 A 
ATOM     14  C   UNL     1      30.665 -39.247 -20.714  0.00  0.00    +0.061 A 
ATOM     15  C   UNL     1      31.510 -39.920 -21.752  0.00  0.00    +0.259 A 
ATOM     16  O   UNL     1      31.851 -41.091 -21.631  0.00  0.00    -0.267 OA
ATOM     17  N   UNL     1      31.868 -39.121 -22.804  0.00  0.00    -0.302 N 
ATOM     18  C   UNL     1      32.750 -39.538 -23.890  0.00  0.00    +0.054 C 
ATOM     19  C   UNL     1      30.286 -40.101 -19.557  0.00  0.00    +0.123 C 
ATOM     20  O   UNL     1      29.566 -39.418 -18.514  0.00  0.00    -0.457 OA
ATOM     21  C   UNL     1      29.653 -38.075 -18.404  0.00  0.00    +0.344 C 
ATOM     22  O   UNL     1      29.642 -37.525 -17.302  0.00  0.00    -0.247 OA
ATOM     23  C   UNL     1      29.605 -37.245 -19.712  0.00  0.00    +0.188 C 
ENDROOT
BRANCH   1  25
ATOM     24  C   UNL     1      33.992 -40.230 -27.599  0.00  0.00    -0.061 C 
ATOM     25  C   UNL     1      34.301 -39.279 -26.456  0.00  0.00    -0.030 C 
ENDBRANCH   1  25
BRANCH  23  26
ATOM     26  O   UNL     1      30.294 -36.013 -19.438  0.00  0.00    -0.373 OA
ATOM     27  H   UNL     1      29.857 -35.287 -19.909  0.00  0.00    +0.000 HD
ENDBRANCH  23  26
BRANCH  23  28
ATOM     28  C   UNL     1      28.115 -36.940 -19.988  0.00  0.00    -0.012 C 
ATOM     29  C   UNL     1      27.695 -35.484 -19.825  0.00  0.00    -0.062 C 
ENDBRANCH  23  28
BRANCH   8  30
ATOM     30  O   UNL     1      33.492 -35.191 -29.965  0.00  0.00    -0.411 OA
BRANCH  30  31
ATOM     31  C   UNL     1      34.611 -34.362 -29.950  0.00  0.00    +0.408 C 
ATOM     32  O   UNL     1      34.575 -33.160 -29.698  0.00  0.00    -0.226 OA
ATOM     33  N   UNL     1      35.766 -35.000 -30.394  0.00  0.00    -0.267 N 
ATOM     34  C   UNL     1      35.824 -36.420 -30.691  0.00  0.00    +0.019 C 
ATOM     35  C   UNL     1      37.233 -36.995 -30.515  0.00  0.00    -0.021 C 
ATOM     36  C   UNL     1      38.383 -36.023 -30.889  0.00  0.00    +0.013 C 
ATOM     37  C   UNL     1      37.831 -34.905 -31.783  0.00  0.00    -0.021 C 
ATOM     38  C   UNL     1      36.756 -34.139 -31.021  0.00  0.00    +0.019 C 
BRANCH  36  39
ATOM     39  N   UNL     1      39.539 -36.785 -31.440  0.00  0.00    -0.299 N 
ATOM     40  C   UNL     1      40.466 -37.153 -30.345  0.00  0.00    -0.001 C 
ATOM     41  C   UNL     1      41.672 -37.955 -30.833  0.00  0.00    -0.040 C 
ATOM     42  C   UNL     1      42.426 -37.205 -31.921  0.00  0.00    -0.051 C 
ATOM     43  C   UNL     1      41.467 -36.830 -33.038  0.00  0.00    -0.040 C 
ATOM     44  C   UNL     1      40.260 -36.058 -32.501  0.00  0.00    -0.001 C 
ATOM     45  H   UNL     1      39.162 -37.627 -31.874  0.00  0.00    +0.000 HD
ENDBRANCH  36  39
ENDBRANCH  30  31
ENDBRANCH   8  30
TORSDOF 6
ENDMDL
MODEL 7
REMARK VINA RESULT:    -8.632     19.672     23.109
REMARK INTER + INTRA:         -12.019
REMARK INTER:                 -11.040
REMARK INTRA:                  -0.979
REMARK UNBOUND:                -0.611
REMARK  Name = cpd158.pdb
REMARK  8 active torsions:
REMARK  status: ('A' for Active; 'I' for Inactive)
REMARK    1  A    between atoms: C_1  and  C_2
REMARK    2  A    between atoms: C_2  and  C_3
REMARK    3  A    between atoms: C_10  and  O_11
REMARK    4  A    between atoms: O_11  and  C_12
REMARK    5  A    between atoms: C_17  and  N_18
REMARK    6  A    between atoms: C_40  and  O_41
REMARK    7  A    between atoms: C_40  and  C_42
REMARK    8  A    between atoms: C_42  and  C_43
REMARK                            x       y       z     vdW  Elec       q    Type
REMARK                         _______ _______ _______ _____ _____    ______ ____
ROOT
ATOM      1  C   UNL     1      44.218 -19.786 -39.880  0.00  0.00    -0.031 A 
ATOM      2  C   UNL     1      43.407 -20.331 -38.886  0.00  0.00    +0.003 A 
ATOM      3  C   UNL     1      43.547 -19.929 -37.563  0.00  0.00    +0.093 A 
ATOM      4  N   UNL     1      44.361 -18.967 -37.124  0.00  0.00    -0.245 NA
ATOM      5  C   UNL     1      45.097 -18.360 -38.067  0.00  0.00    +0.072 A 
ATOM      6  C   UNL     1      45.879 -17.285 -37.648  0.00  0.00    -0.032 A 
ATOM      7  C   UNL     1      46.659 -16.535 -38.531  0.00  0.00    -0.017 A 
ATOM      8  C   UNL     1      46.671 -16.898 -39.862  0.00  0.00    +0.134 A 
ATOM      9  C   UNL     1      45.955 -18.020 -40.300  0.00  0.00    -0.010 A 
ATOM     10  C   UNL     1      45.097 -18.743 -39.452  0.00  0.00    +0.007 A 
ATOM     11  C   UNL     1      42.581 -20.674 -36.761  0.00  0.00    +0.071 A 
ATOM     12  C   UNL     1      42.383 -20.716 -35.439  0.00  0.00    -0.029 A 
ATOM     13  C   UNL     1      41.305 -21.545 -34.905  0.00  0.00    +0.008 A 
ATOM     14  C   UNL     1      40.496 -22.213 -35.750  0.00  0.00    +0.061 A 
ATOM     15  C   UNL     1      40.743 -22.192 -37.227  0.00  0.00    +0.259 A 
ATOM     16  O   UNL     1      40.035 -22.831 -37.998  0.00  0.00    -0.267 OA
ATOM     17  N   UNL     1      41.810 -21.430 -37.618  0.00  0.00    -0.302 N 
ATOM     18  C   UNL     1      42.285 -21.324 -38.995  0.00  0.00    +0.054 C 
ATOM     19  C   UNL     1      39.349 -23.053 -35.313  0.00  0.00    +0.123 C 
ATOM     20  O   UNL     1      39.185 -23.154 -33.886  0.00  0.00    -0.457 OA
ATOM     21  C   UNL     1      40.230 -22.902 -33.068  0.00  0.00    +0.344 C 
ATOM     22  O   UNL     1      40.384 -23.530 -32.021  0.00  0.00    -0.247 OA
ATOM     23  C   UNL     1      41.133 -21.691 -33.414  0.00  0.00    +0.188 C 
ENDROOT
BRANCH   1  25
ATOM     24  C   UNL     1      45.045 -21.264 -41.955  0.00  0.00    -0.061 C 
ATOM     25  C   UNL     1      44.022 -20.380 -41.263  0.00  0.00    -0.030 C 
ENDBRANCH   1  25
BRANCH  23  26
ATOM     26  O   UNL     1      42.423 -21.968 -32.843  0.00  0.00    -0.373 OA
ATOM     27  H   UNL     1      42.753 -22.814 -33.185  0.00  0.00    +0.000 HD
ENDBRANCH  23  26
BRANCH  23  28
ATOM     28  C   UNL     1      40.519 -20.463 -32.702  0.00  0.00    -0.012 C 
ATOM     29  C   UNL     1      39.254 -19.894 -33.333  0.00  0.00    -0.062 C 
ENDBRANCH  23  28
BRANCH   8  30
ATOM     30  O   UNL     1      47.440 -16.166 -40.774  0.00  0.00    -0.411 OA
BRANCH  30  31
ATOM     31  C   UNL     1      46.969 -14.859 -40.880  0.00  0.00    +0.408 C 
ATOM     32  O   UNL     1      45.801 -14.565 -41.120  0.00  0.00    -0.226 OA
ATOM     33  N   UNL     1      47.985 -13.910 -40.832  0.00  0.00    -0.267 N 
ATOM     34  C   UNL     1      49.369 -14.243 -40.545  0.00  0.00    +0.019 C 
ATOM     35  C   UNL     1      50.131 -13.073 -39.914  0.00  0.00    -0.021 C 
ATOM     36  C   UNL     1      49.706 -11.670 -40.422  0.00  0.00    +0.013 C 
ATOM     37  C   UNL     1      48.969 -11.819 -41.760  0.00  0.00    -0.021 C 
ATOM     38  C   UNL     1      47.725 -12.675 -41.555  0.00  0.00    +0.019 C 
BRANCH  36  39
ATOM     39  N   UNL     1      50.876 -10.748 -40.423  0.00  0.00    -0.299 N 
ATOM     40  C   UNL     1      51.508 -10.739 -41.762  0.00  0.00    -0.001 C 
ATOM     41  C   UNL     1      52.710  -9.799 -41.845  0.00  0.00    -0.040 C 
ATOM     42  C   UNL     1      53.747 -10.139 -40.785  0.00  0.00    -0.051 C 
ATOM     43  C   UNL     1      53.089 -10.148 -39.415  0.00  0.00    -0.040 C 
ATOM     44  C   UNL     1      51.873 -11.076 -39.387  0.00  0.00    -0.001 C 
ATOM     45  H   UNL     1      50.524  -9.818 -40.198  0.00  0.00    +0.000 HD
ENDBRANCH  36  39
ENDBRANCH  30  31
ENDBRANCH   8  30
TORSDOF 6
ENDMDL
MODEL 8
REMARK VINA RESULT:    -8.559      7.929      9.569
REMARK INTER + INTRA:         -11.923
REMARK INTER:                 -10.854
REMARK INTRA:                  -1.068
REMARK UNBOUND:                -0.611
REMARK  Name = cpd158.pdb
REMARK  8 active torsions:
REMARK  status: ('A' for Active; 'I' for Inactive)
REMARK    1  A    between atoms: C_1  and  C_2
REMARK    2  A    between atoms: C_2  and  C_3
REMARK    3  A    between atoms: C_10  and  O_11
REMARK    4  A    between atoms: O_11  and  C_12
REMARK    5  A    between atoms: C_17  and  N_18
REMARK    6  A    between atoms: C_40  and  O_41
REMARK    7  A    between atoms: C_40  and  C_42
REMARK    8  A    between atoms: C_42  and  C_43
REMARK                            x       y       z     vdW  Elec       q    Type
REMARK                         _______ _______ _______ _____ _____    ______ ____
ROOT
ATOM      1  C   UNL     1      32.764 -39.467 -33.646  0.00  0.00    -0.031 A 
ATOM      2  C   UNL     1      32.559 -40.689 -34.284  0.00  0.00    +0.003 A 
ATOM      3  C   UNL     1      33.429 -41.751 -34.068  0.00  0.00    +0.093 A 
ATOM      4  N   UNL     1      34.450 -41.759 -33.209  0.00  0.00    -0.245 NA
ATOM      5  C   UNL     1      34.627 -40.625 -32.514  0.00  0.00    +0.072 A 
ATOM      6  C   UNL     1      35.622 -40.644 -31.539  0.00  0.00    -0.032 A 
ATOM      7  C   UNL     1      35.884 -39.548 -30.712  0.00  0.00    -0.017 A 
ATOM      8  C   UNL     1      35.141 -38.400 -30.895  0.00  0.00    +0.134 A 
ATOM      9  C   UNL     1      34.185 -38.326 -31.916  0.00  0.00    -0.010 A 
ATOM     10  C   UNL     1      33.843 -39.437 -32.709  0.00  0.00    +0.007 A 
ATOM     11  C   UNL     1      32.968 -42.880 -34.871  0.00  0.00    +0.071 A 
ATOM     12  C   UNL     1      33.506 -44.086 -35.080  0.00  0.00    -0.029 A 
ATOM     13  C   UNL     1      32.800 -45.045 -35.926  0.00  0.00    +0.008 A 
ATOM     14  C   UNL     1      31.597 -44.723 -36.440  0.00  0.00    +0.061 A 
ATOM     15  C   UNL     1      31.014 -43.359 -36.233  0.00  0.00    +0.259 A 
ATOM     16  O   UNL     1      29.940 -43.045 -36.733  0.00  0.00    -0.267 OA
ATOM     17  N   UNL     1      31.781 -42.519 -35.472  0.00  0.00    -0.302 N 
ATOM     18  C   UNL     1      31.452 -41.122 -35.204  0.00  0.00    +0.054 C 
ATOM     19  C   UNL     1      30.780 -45.638 -37.280  0.00  0.00    +0.123 C 
ATOM     20  O   UNL     1      31.396 -46.908 -37.564  0.00  0.00    -0.457 OA
ATOM     21  C   UNL     1      32.736 -47.043 -37.468  0.00  0.00    +0.344 C 
ATOM     22  O   UNL     1      33.358 -47.776 -38.237  0.00  0.00    -0.247 OA
ATOM     23  C   UNL     1      33.439 -46.369 -36.262  0.00  0.00    +0.188 C 
ENDROOT
BRANCH   1  25
ATOM     24  C   UNL     1      30.571 -37.987 -33.227  0.00  0.00    -0.061 C 
ATOM     25  C   UNL     1      31.795 -38.367 -34.042  0.00  0.00    -0.030 C 
ENDBRANCH   1  25
BRANCH  23  26
ATOM     26  O   UNL     1      34.795 -46.118 -36.668  0.00  0.00    -0.373 OA
ATOM     27  H   UNL     1      35.304 -45.790 -35.911  0.00  0.00    +0.000 HD
ENDBRANCH  23  26
BRANCH  23  28
ATOM     28  C   UNL     1      33.440 -47.407 -35.115  0.00  0.00    -0.012 C 
ATOM     29  C   UNL     1      34.703 -47.454 -34.264  0.00  0.00    -0.062 C 
ENDBRANCH  23  28
BRANCH   8  30
ATOM     30  O   UNL     1      35.376 -37.286 -30.081  0.00  0.00    -0.411 OA
BRANCH  30  31
ATOM     31  C   UNL     1      35.844 -36.213 -30.836  0.00  0.00    +0.408 C 
ATOM     32  O   UNL     1      36.976 -36.146 -31.310  0.00  0.00    -0.226 OA
ATOM     33  N   UNL     1      34.950 -35.148 -30.880  0.00  0.00    -0.267 N 
ATOM     34  C   UNL     1      33.609 -35.215 -30.327  0.00  0.00    +0.019 C 
ATOM     35  C   UNL     1      32.640 -34.259 -31.030  0.00  0.00    -0.021 C 
ATOM     36  C   UNL     1      33.274 -32.925 -31.507  0.00  0.00    +0.013 C 
ATOM     37  C   UNL     1      34.586 -32.688 -30.746  0.00  0.00    -0.021 C 
ATOM     38  C   UNL     1      35.549 -33.832 -31.039  0.00  0.00    +0.019 C 
BRANCH  36  39
ATOM     39  N   UNL     1      32.271 -31.826 -31.432  0.00  0.00    -0.299 N 
ATOM     40  C   UNL     1      32.349 -31.164 -30.110  0.00  0.00    -0.001 C 
ATOM     41  C   UNL     1      31.357 -30.010 -29.965  0.00  0.00    -0.040 C 
ATOM     42  C   UNL     1      29.933 -30.473 -30.231  0.00  0.00    -0.051 C 
ATOM     43  C   UNL     1      29.864 -31.153 -31.588  0.00  0.00    -0.040 C 
ATOM     44  C   UNL     1      30.894 -32.278 -31.700  0.00  0.00    -0.001 C 
ATOM     45  H   UNL     1      32.503 -31.159 -32.169  0.00  0.00    +0.000 HD
ENDBRANCH  36  39
ENDBRANCH  30  31
ENDBRANCH   8  30
TORSDOF 6
ENDMDL
MODEL 9
REMARK VINA RESULT:    -8.519      6.536     11.182
REMARK INTER + INTRA:         -11.869
REMARK INTER:                 -11.577
REMARK INTRA:                  -0.292
REMARK UNBOUND:                -0.611
REMARK  Name = cpd158.pdb
REMARK  8 active torsions:
REMARK  status: ('A' for Active; 'I' for Inactive)
REMARK    1  A    between atoms: C_1  and  C_2
REMARK    2  A    between atoms: C_2  and  C_3
REMARK    3  A    between atoms: C_10  and  O_11
REMARK    4  A    between atoms: O_11  and  C_12
REMARK    5  A    between atoms: C_17  and  N_18
REMARK    6  A    between atoms: C_40  and  O_41
REMARK    7  A    between atoms: C_40  and  C_42
REMARK    8  A    between atoms: C_42  and  C_43
REMARK                            x       y       z     vdW  Elec       q    Type
REMARK                         _______ _______ _______ _____ _____    ______ ____
ROOT
ATOM      1  C   UNL     1      32.232 -38.178 -25.588  0.00  0.00    -0.031 A 
ATOM      2  C   UNL     1      32.609 -38.748 -24.374  0.00  0.00    +0.003 A 
ATOM      3  C   UNL     1      33.492 -39.821 -24.342  0.00  0.00    +0.093 A 
ATOM      4  N   UNL     1      34.117 -40.345 -25.397  0.00  0.00    -0.245 NA
ATOM      5  C   UNL     1      33.844 -39.765 -26.576  0.00  0.00    +0.072 A 
ATOM      6  C   UNL     1      34.561 -40.228 -27.677  0.00  0.00    -0.032 A 
ATOM      7  C   UNL     1      34.409 -39.685 -28.955  0.00  0.00    -0.017 A 
ATOM      8  C   UNL     1      33.491 -38.670 -29.127  0.00  0.00    +0.134 A 
ATOM      9  C   UNL     1      32.701 -38.234 -28.056  0.00  0.00    -0.010 A 
ATOM     10  C   UNL     1      32.889 -38.705 -26.744  0.00  0.00    +0.007 A 
ATOM     11  C   UNL     1      33.685 -40.204 -22.946  0.00  0.00    +0.071 A 
ATOM     12  C   UNL     1      34.358 -41.222 -22.401  0.00  0.00    -0.029 A 
ATOM     13  C   UNL     1      34.405 -41.348 -20.946  0.00  0.00    +0.008 A 
ATOM     14  C   UNL     1      33.814 -40.414 -20.176  0.00  0.00    +0.061 A 
ATOM     15  C   UNL     1      33.031 -39.295 -20.791  0.00  0.00    +0.259 A 
ATOM     16  O   UNL     1      32.456 -38.465 -20.095  0.00  0.00    -0.267 OA
ATOM     17  N   UNL     1      33.004 -39.300 -22.159  0.00  0.00    -0.302 N 
ATOM     18  C   UNL     1      32.241 -38.356 -22.970  0.00  0.00    +0.054 C 
ATOM     19  C   UNL     1      33.835 -40.428 -18.689  0.00  0.00    +0.123 C 
ATOM     20  O   UNL     1      34.498 -41.564 -18.106  0.00  0.00    -0.457 OA
ATOM     21  C   UNL     1      34.655 -42.696 -18.826  0.00  0.00    +0.344 C 
ATOM     22  O   UNL     1      34.597 -43.804 -18.292  0.00  0.00    -0.247 OA
ATOM     23  C   UNL     1      35.067 -42.546 -20.313  0.00  0.00    +0.188 C 
ENDROOT
BRANCH   1  25
ATOM     24  C   UNL     1      29.713 -37.281 -25.751  0.00  0.00    -0.061 C 
ATOM     25  C   UNL     1      31.194 -37.075 -25.484  0.00  0.00    -0.030 C 
ENDBRANCH   1  25
BRANCH  23  26
ATOM     26  O   UNL     1      34.594 -43.724 -20.988  0.00  0.00    -0.373 OA
ATOM     27  H   UNL     1      35.280 -44.409 -20.962  0.00  0.00    +0.000 HD
ENDBRANCH  23  26
BRANCH  23  28
ATOM     28  C   UNL     1      36.613 -42.533 -20.344  0.00  0.00    -0.012 C 
ATOM     29  C   UNL     1      37.273 -41.202 -20.005  0.00  0.00    -0.062 C 
ENDBRANCH  23  28
BRANCH   8  30
ATOM     30  O   UNL     1      33.317 -38.101 -30.395  0.00  0.00    -0.411 OA
BRANCH  30  31
ATOM     31  C   UNL     1      33.772 -36.785 -30.413  0.00  0.00    +0.408 C 
ATOM     32  O   UNL     1      33.040 -35.801 -30.331  0.00  0.00    -0.226 OA
ATOM     33  N   UNL     1      35.133 -36.684 -30.682  0.00  0.00    -0.267 N 
ATOM     34  C   UNL     1      36.010 -37.837 -30.777  0.00  0.00    +0.019 C 
ATOM     35  C   UNL     1      37.462 -37.497 -30.425  0.00  0.00    -0.021 C 
ATOM     36  C   UNL     1      37.916 -36.074 -30.845  0.00  0.00    +0.013 C 
ATOM     37  C   UNL     1      36.963 -35.535 -31.920  0.00  0.00    -0.021 C 
ATOM     38  C   UNL     1      35.552 -35.462 -31.349  0.00  0.00    +0.019 C 
BRANCH  36  39
ATOM     39  N   UNL     1      39.363 -36.082 -31.202  0.00  0.00    -0.299 N 
ATOM     40  C   UNL     1      39.516 -36.104 -32.675  0.00  0.00    -0.001 C 
ATOM     41  C   UNL     1      40.979 -36.097 -33.119  0.00  0.00    -0.040 C 
ATOM     42  C   UNL     1      41.746 -37.254 -32.501  0.00  0.00    -0.051 C 
ATOM     43  C   UNL     1      41.581 -37.225 -30.991  0.00  0.00    -0.040 C 
ATOM     44  C   UNL     1      40.104 -37.201 -30.592  0.00  0.00    -0.001 C 
ATOM     45  H   UNL     1      39.769 -35.227 -30.823  0.00  0.00    +0.000 HD
ENDBRANCH  36  39
ENDBRANCH  30  31
ENDBRANCH   8  30
TORSDOF 6
ENDMDL
MODEL 10
REMARK VINA RESULT:    -8.462     19.606     23.220
REMARK INTER + INTRA:         -11.794
REMARK INTER:                 -10.754
REMARK INTRA:                  -1.041
REMARK UNBOUND:                -0.611
REMARK  Name = cpd158.pdb
REMARK  8 active torsions:
REMARK  status: ('A' for Active; 'I' for Inactive)
REMARK    1  A    between atoms: C_1  and  C_2
REMARK    2  A    between atoms: C_2  and  C_3
REMARK    3  A    between atoms: C_10  and  O_11
REMARK    4  A    between atoms: O_11  and  C_12
REMARK    5  A    between atoms: C_17  and  N_18
REMARK    6  A    between atoms: C_40  and  O_41
REMARK    7  A    between atoms: C_40  and  C_42
REMARK    8  A    between atoms: C_42  and  C_43
REMARK                            x       y       z     vdW  Elec       q    Type
REMARK                         _______ _______ _______ _____ _____    ______ ____
ROOT
ATOM      1  C   UNL     1      44.402 -17.932 -38.945  0.00  0.00    -0.031 A 
ATOM      2  C   UNL     1      43.598 -18.829 -38.243  0.00  0.00    +0.003 A 
ATOM      3  C   UNL     1      43.452 -18.715 -36.865  0.00  0.00    +0.093 A 
ATOM      4  N   UNL     1      43.958 -17.741 -36.107  0.00  0.00    -0.245 NA
ATOM      5  C   UNL     1      44.669 -16.810 -36.762  0.00  0.00    +0.072 A 
ATOM      6  C   UNL     1      45.121 -15.730 -36.008  0.00  0.00    -0.032 A 
ATOM      7  C   UNL     1      45.834 -14.669 -36.570  0.00  0.00    -0.017 A 
ATOM      8  C   UNL     1      46.119 -14.715 -37.919  0.00  0.00    +0.134 A 
ATOM      9  C   UNL     1      45.743 -15.824 -38.689  0.00  0.00    -0.010 A 
ATOM     10  C   UNL     1      44.955 -16.867 -38.169  0.00  0.00    +0.007 A 
ATOM     11  C   UNL     1      42.570 -19.789 -36.416  0.00  0.00    +0.071 A 
ATOM     12  C   UNL     1      42.198 -20.163 -35.188  0.00  0.00    -0.029 A 
ATOM     13  C   UNL     1      41.266 -21.277 -35.033  0.00  0.00    +0.008 A 
ATOM     14  C   UNL     1      40.757 -21.879 -36.126  0.00  0.00    +0.061 A 
ATOM     15  C   UNL     1      41.204 -21.481 -37.499  0.00  0.00    +0.259 A 
ATOM     16  O   UNL     1      40.777 -22.052 -38.496  0.00  0.00    -0.267 OA
ATOM     17  N   UNL     1      42.120 -20.464 -37.530  0.00  0.00    -0.302 N 
ATOM     18  C   UNL     1      42.753 -19.965 -38.748  0.00  0.00    +0.054 C 
ATOM     19  C   UNL     1      39.776 -22.995 -36.080  0.00  0.00    +0.123 C 
ATOM     20  O   UNL     1      39.434 -23.443 -34.755  0.00  0.00    -0.457 OA
ATOM     21  C   UNL     1      40.266 -23.189 -33.722  0.00  0.00    +0.344 C 
ATOM     22  O   UNL     1      40.403 -23.997 -32.803  0.00  0.00    -0.247 OA
ATOM     23  C   UNL     1      40.917 -21.784 -33.656  0.00  0.00    +0.188 C 
ENDROOT
BRANCH   1  25
ATOM     24  C   UNL     1      45.626 -19.122 -41.009  0.00  0.00    -0.061 C 
ATOM     25  C   UNL     1      44.546 -18.227 -40.427  0.00  0.00    -0.030 C 
ENDBRANCH   1  25
BRANCH  23  26
ATOM     26  O   UNL     1      42.139 -21.935 -32.915  0.00  0.00    -0.373 OA
ATOM     27  H   UNL     1      42.030 -22.632 -32.249  0.00  0.00    +0.000 HD
ENDBRANCH  23  26
BRANCH  23  28
ATOM     28  C   UNL     1      39.948 -20.885 -32.853  0.00  0.00    -0.012 C 
ATOM     29  C   UNL     1      38.776 -20.306 -33.637  0.00  0.00    -0.062 C 
ENDBRANCH  23  28
BRANCH   8  30
ATOM     30  O   UNL     1      46.829 -13.666 -38.514  0.00  0.00    -0.411 OA
BRANCH  30  31
ATOM     31  C   UNL     1      48.181 -13.983 -38.622  0.00  0.00    +0.408 C 
ATOM     32  O   UNL     1      48.921 -14.182 -37.661  0.00  0.00    -0.226 OA
ATOM     33  N   UNL     1      48.654 -13.909 -39.928  0.00  0.00    -0.267 N 
ATOM     34  C   UNL     1      47.791 -13.678 -41.073  0.00  0.00    +0.019 C 
ATOM     35  C   UNL     1      48.365 -14.269 -42.364  0.00  0.00    -0.021 C 
ATOM     36  C   UNL     1      49.913 -14.219 -42.471  0.00  0.00    +0.013 C 
ATOM     37  C   UNL     1      50.454 -13.174 -41.485  0.00  0.00    -0.021 C 
ATOM     38  C   UNL     1      50.062 -13.573 -40.067  0.00  0.00    +0.019 C 
BRANCH  36  39
ATOM     39  N   UNL     1      50.323 -14.046 -43.893  0.00  0.00    -0.299 N 
ATOM     40  C   UNL     1      49.139 -14.153 -44.774  0.00  0.00    -0.001 C 
ATOM     41  C   UNL     1      49.481 -13.968 -46.253  0.00  0.00    -0.040 C 
ATOM     42  C   UNL     1      50.548 -14.956 -46.697  0.00  0.00    -0.051 C 
ATOM     43  C   UNL     1      51.758 -14.841 -45.785  0.00  0.00    -0.040 C 
ATOM     44  C   UNL     1      51.366 -14.999 -44.315  0.00  0.00    -0.001 C 
ATOM     45  H   UNL     1      50.734 -13.116 -43.974  0.00  0.00    +0.000 HD
ENDBRANCH  36  39
ENDBRANCH  30  31
ENDBRANCH   8  30
TORSDOF 6
ENDMDL
MODEL 11
REMARK VINA RESULT:    -8.456     27.513     30.000
REMARK INTER + INTRA:         -11.786
REMARK INTER:                 -10.810
REMARK INTRA:                  -0.976
REMARK UNBOUND:                -0.611
REMARK  Name = cpd158.pdb
REMARK  8 active torsions:
REMARK  status: ('A' for Active; 'I' for Inactive)
REMARK    1  A    between atoms: C_1  and  C_2
REMARK    2  A    between atoms: C_2  and  C_3
REMARK    3  A    between atoms: C_10  and  O_11
REMARK    4  A    between atoms: O_11  and  C_12
REMARK    5  A    between atoms: C_17  and  N_18
REMARK    6  A    between atoms: C_40  and  O_41
REMARK    7  A    between atoms: C_40  and  C_42
REMARK    8  A    between atoms: C_42  and  C_43
REMARK                            x       y       z     vdW  Elec       q    Type
REMARK                         _______ _______ _______ _____ _____    ______ ____
ROOT
ATOM      1  C   UNL     1      47.208 -29.607 -55.649  0.00  0.00    -0.031 A 
ATOM      2  C   UNL     1      47.058 -30.959 -55.347  0.00  0.00    +0.003 A 
ATOM      3  C   UNL     1      46.317 -31.789 -56.180  0.00  0.00    +0.093 A 
ATOM      4  N   UNL     1      45.770 -31.435 -57.343  0.00  0.00    -0.245 NA
ATOM      5  C   UNL     1      45.966 -30.159 -57.709  0.00  0.00    +0.072 A 
ATOM      6  C   UNL     1      45.491 -29.793 -58.966  0.00  0.00    -0.032 A 
ATOM      7  C   UNL     1      45.666 -28.510 -59.491  0.00  0.00    -0.017 A 
ATOM      8  C   UNL     1      46.311 -27.570 -58.714  0.00  0.00    +0.134 A 
ATOM      9  C   UNL     1      46.733 -27.886 -57.417  0.00  0.00    -0.010 A 
ATOM     10  C   UNL     1      46.644 -29.189 -56.894  0.00  0.00    +0.007 A 
ATOM     11  C   UNL     1      46.330 -33.131 -55.605  0.00  0.00    +0.071 A 
ATOM     12  C   UNL     1      45.697 -34.250 -55.973  0.00  0.00    -0.029 A 
ATOM     13  C   UNL     1      45.920 -35.478 -55.214  0.00  0.00    +0.008 A 
ATOM     14  C   UNL     1      46.796 -35.481 -54.190  0.00  0.00    +0.061 A 
ATOM     15  C   UNL     1      47.476 -34.218 -53.760  0.00  0.00    +0.259 A 
ATOM     16  O   UNL     1      48.242 -34.205 -52.802  0.00  0.00    -0.267 OA
ATOM     17  N   UNL     1      47.155 -33.114 -54.501  0.00  0.00    -0.302 N 
ATOM     18  C   UNL     1      47.635 -31.764 -54.216  0.00  0.00    +0.054 C 
ATOM     19  C   UNL     1      47.124 -36.684 -53.380  0.00  0.00    +0.123 C 
ATOM     20  O   UNL     1      46.385 -37.868 -53.732  0.00  0.00    -0.457 OA
ATOM     21  C   UNL     1      45.214 -37.759 -54.395  0.00  0.00    +0.344 C 
ATOM     22  O   UNL     1      44.286 -38.539 -54.178  0.00  0.00    -0.247 OA
ATOM     23  C   UNL     1      45.136 -36.723 -55.545  0.00  0.00    +0.188 C 
ENDROOT
BRANCH   1  25
ATOM     24  C   UNL     1      47.297 -27.833 -53.642  0.00  0.00    -0.061 C 
ATOM     25  C   UNL     1      47.963 -28.799 -54.608  0.00  0.00    -0.030 C 
ENDBRANCH   1  25
BRANCH  23  26
ATOM     26  O   UNL     1      43.752 -36.356 -55.670  0.00  0.00    -0.373 OA
ATOM     27  H   UNL     1      43.316 -36.947 -56.303  0.00  0.00    +0.000 HD
ENDBRANCH  23  26
BRANCH  23  28
ATOM     28  C   UNL     1      45.581 -37.456 -56.832  0.00  0.00    -0.012 C 
ATOM     29  C   UNL     1      47.081 -37.469 -57.103  0.00  0.00    -0.062 C 
ENDBRANCH  23  28
BRANCH   8  30
ATOM     30  O   UNL     1      46.505 -26.276 -59.211  0.00  0.00    -0.411 OA
BRANCH  30  31
ATOM     31  C   UNL     1      45.756 -25.351 -58.488  0.00  0.00    +0.408 C 
ATOM     32  O   UNL     1      44.542 -25.202 -58.609  0.00  0.00    -0.226 OA
ATOM     33  N   UNL     1      46.541 -24.503 -57.714  0.00  0.00    -0.267 N 
ATOM     34  C   UNL     1      47.974 -24.669 -57.558  0.00  0.00    +0.019 C 
ATOM     35  C   UNL     1      48.488 -24.097 -56.234  0.00  0.00    -0.021 C 
ATOM     36  C   UNL     1      47.745 -22.827 -55.742  0.00  0.00    +0.013 C 
ATOM     37  C   UNL     1      47.003 -22.186 -56.923  0.00  0.00    -0.021 C 
ATOM     38  C   UNL     1      45.986 -23.179 -57.474  0.00  0.00    +0.019 C 
BRANCH  36  39
ATOM     39  N   UNL     1      48.684 -21.936 -55.004  0.00  0.00    -0.299 N 
ATOM     40  C   UNL     1      47.919 -20.969 -54.184  0.00  0.00    -0.001 C 
ATOM     41  C   UNL     1      48.820 -20.030 -53.381  0.00  0.00    -0.040 C 
ATOM     42  C   UNL     1      49.787 -19.288 -54.290  0.00  0.00    -0.051 C 
ATOM     43  C   UNL     1      50.565 -20.287 -55.129  0.00  0.00    -0.040 C 
ATOM     44  C   UNL     1      49.627 -21.227 -55.889  0.00  0.00    -0.001 C 
ATOM     45  H   UNL     1      49.250 -22.533 -54.401  0.00  0.00    +0.000 HD
ENDBRANCH  36  39
ENDBRANCH  30  31
ENDBRANCH   8  30
TORSDOF 6
ENDMDL
MODEL 12
REMARK VINA RESULT:    -8.438     15.415     18.189
REMARK INTER + INTRA:         -11.763
REMARK INTER:                 -11.053
REMARK INTRA:                  -0.709
REMARK UNBOUND:                -0.611
REMARK  Name = cpd158.pdb
REMARK  8 active torsions:
REMARK  status: ('A' for Active; 'I' for Inactive)
REMARK    1  A    between atoms: C_1  and  C_2
REMARK    2  A    between atoms: C_2  and  C_3
REMARK    3  A    between atoms: C_10  and  O_11
REMARK    4  A    between atoms: O_11  and  C_12
REMARK    5  A    between atoms: C_17  and  N_18
REMARK    6  A    between atoms: C_40  and  O_41
REMARK    7  A    between atoms: C_40  and  C_42
REMARK    8  A    between atoms: C_42  and  C_43
REMARK                            x       y       z     vdW  Elec       q    Type
REMARK                         _______ _______ _______ _____ _____    ______ ____
ROOT
ATOM      1  C   UNL     1      43.834 -18.270 -35.039  0.00  0.00    -0.031 A 
ATOM      2  C   UNL     1      44.455 -18.607 -36.241  0.00  0.00    +0.003 A 
ATOM      3  C   UNL     1      44.092 -19.763 -36.922  0.00  0.00    +0.093 A 
ATOM      4  N   UNL     1      43.105 -20.591 -36.577  0.00  0.00    -0.245 NA
ATOM      5  C   UNL     1      42.427 -20.252 -35.470  0.00  0.00    +0.072 A 
ATOM      6  C   UNL     1      41.329 -21.045 -35.147  0.00  0.00    -0.032 A 
ATOM      7  C   UNL     1      40.509 -20.780 -34.047  0.00  0.00    -0.017 A 
ATOM      8  C   UNL     1      40.825 -19.706 -33.241  0.00  0.00    +0.134 A 
ATOM      9  C   UNL     1      41.966 -18.936 -33.497  0.00  0.00    -0.010 A 
ATOM     10  C   UNL     1      42.763 -19.128 -34.640  0.00  0.00    +0.007 A 
ATOM     11  C   UNL     1      44.914 -19.852 -38.125  0.00  0.00    +0.071 A 
ATOM     12  C   UNL     1      45.012 -20.812 -39.051  0.00  0.00    -0.029 A 
ATOM     13  C   UNL     1      45.914 -20.620 -40.184  0.00  0.00    +0.008 A 
ATOM     14  C   UNL     1      46.595 -19.463 -40.308  0.00  0.00    +0.061 A 
ATOM     15  C   UNL     1      46.509 -18.406 -39.250  0.00  0.00    +0.259 A 
ATOM     16  O   UNL     1      47.158 -17.370 -39.335  0.00  0.00    -0.267 OA
ATOM     17  N   UNL     1      45.680 -18.709 -38.204  0.00  0.00    -0.302 N 
ATOM     18  C   UNL     1      45.502 -17.866 -37.025  0.00  0.00    +0.054 C 
ATOM     19  C   UNL     1      47.508 -19.152 -41.439  0.00  0.00    +0.123 C 
ATOM     20  O   UNL     1      47.666 -20.216 -42.396  0.00  0.00    -0.457 OA
ATOM     21  C   UNL     1      47.388 -21.489 -42.040  0.00  0.00    +0.344 C 
ATOM     22  O   UNL     1      48.044 -22.431 -42.485  0.00  0.00    -0.247 OA
ATOM     23  C   UNL     1      46.120 -21.731 -41.182  0.00  0.00    +0.188 C 
ENDROOT
BRANCH   1  25
ATOM     24  C   UNL     1      45.247 -17.073 -33.102  0.00  0.00    -0.061 C 
ATOM     25  C   UNL     1      44.390 -17.033 -34.356  0.00  0.00    -0.030 C 
ENDBRANCH   1  25
BRANCH  23  26
ATOM     26  O   UNL     1      46.350 -22.948 -40.451  0.00  0.00    -0.373 OA
ATOM     27  H   UNL     1      47.151 -22.856 -39.913  0.00  0.00    +0.000 HD
ENDBRANCH  23  26
BRANCH  23  28
ATOM     28  C   UNL     1      44.952 -21.950 -42.172  0.00  0.00    -0.012 C 
ATOM     29  C   UNL     1      44.244 -20.688 -42.650  0.00  0.00    -0.062 C 
ENDBRANCH  23  28
BRANCH   8  30
ATOM     30  O   UNL     1      40.022 -19.412 -32.133  0.00  0.00    -0.411 OA
BRANCH  30  31
ATOM     31  C   UNL     1      39.541 -18.107 -32.204  0.00  0.00    +0.408 C 
ATOM     32  O   UNL     1      40.202 -17.111 -31.919  0.00  0.00    -0.226 OA
ATOM     33  N   UNL     1      38.181 -18.044 -32.491  0.00  0.00    -0.267 N 
ATOM     34  C   UNL     1      37.387 -19.211 -32.833  0.00  0.00    +0.019 C 
ATOM     35  C   UNL     1      36.180 -18.859 -33.708  0.00  0.00    -0.021 C 
ATOM     36  C   UNL     1      35.536 -17.480 -33.404  0.00  0.00    +0.013 C 
ATOM     37  C   UNL     1      35.963 -17.021 -32.003  0.00  0.00    -0.021 C 
ATOM     38  C   UNL     1      37.480 -16.885 -31.961  0.00  0.00    +0.019 C 
BRANCH  36  39
ATOM     39  N   UNL     1      34.068 -17.535 -33.651  0.00  0.00    -0.299 N 
ATOM     40  C   UNL     1      33.377 -18.072 -32.457  0.00  0.00    -0.001 C 
ATOM     41  C   UNL     1      31.859 -18.141 -32.631  0.00  0.00    -0.040 C 
ATOM     42  C   UNL     1      31.484 -18.957 -33.858  0.00  0.00    -0.051 C 
ATOM     43  C   UNL     1      32.200 -18.400 -35.077  0.00  0.00    -0.040 C 
ATOM     44  C   UNL     1      33.710 -18.318 -34.848  0.00  0.00    -0.001 C 
ATOM     45  H   UNL     1      33.760 -16.579 -33.831  0.00  0.00    +0.000 HD
ENDBRANCH  36  39
ENDBRANCH  30  31
ENDBRANCH   8  30
TORSDOF 6
ENDMDL
MODEL 13
REMARK VINA RESULT:    -8.345      2.079      4.181
REMARK INTER + INTRA:         -11.639
REMARK INTER:                 -11.076
REMARK INTRA:                  -0.562
REMARK UNBOUND:                -0.611
REMARK  Name = cpd158.pdb
REMARK  8 active torsions:
REMARK  status: ('A' for Active; 'I' for Inactive)
REMARK    1  A    between atoms: C_1  and  C_2
REMARK    2  A    between atoms: C_2  and  C_3
REMARK    3  A    between atoms: C_10  and  O_11
REMARK    4  A    between atoms: O_11  and  C_12
REMARK    5  A    between atoms: C_17  and  N_18
REMARK    6  A    between atoms: C_40  and  O_41
REMARK    7  A    between atoms: C_40  and  C_42
REMARK    8  A    between atoms: C_42  and  C_43
REMARK                            x       y       z     vdW  Elec       q    Type
REMARK                         _______ _______ _______ _____ _____    ______ ____
ROOT
ATOM      1  C   UNL     1      32.148 -32.729 -29.838  0.00  0.00    -0.031 A 
ATOM      2  C   UNL     1      33.290 -33.528 -29.828  0.00  0.00    +0.003 A 
ATOM      3  C   UNL     1      33.334 -34.685 -29.058  0.00  0.00    +0.093 A 
ATOM      4  N   UNL     1      32.321 -35.187 -28.350  0.00  0.00    -0.245 NA
ATOM      5  C   UNL     1      31.177 -34.487 -28.404  0.00  0.00    +0.072 A 
ATOM      6  C   UNL     1      30.078 -35.045 -27.756  0.00  0.00    -0.032 A 
ATOM      7  C   UNL     1      28.815 -34.447 -27.769  0.00  0.00    -0.017 A 
ATOM      8  C   UNL     1      28.670 -33.244 -28.429  0.00  0.00    +0.134 A 
ATOM      9  C   UNL     1      29.773 -32.622 -29.026  0.00  0.00    -0.010 A 
ATOM     10  C   UNL     1      31.036 -33.238 -29.099  0.00  0.00    +0.007 A 
ATOM     11  C   UNL     1      34.647 -35.297 -29.241  0.00  0.00    +0.071 A 
ATOM     12  C   UNL     1      35.209 -36.359 -28.655  0.00  0.00    -0.029 A 
ATOM     13  C   UNL     1      36.551 -36.770 -29.060  0.00  0.00    +0.008 A 
ATOM     14  C   UNL     1      37.182 -36.108 -30.050  0.00  0.00    +0.061 A 
ATOM     15  C   UNL     1      36.563 -34.898 -30.679  0.00  0.00    +0.259 A 
ATOM     16  O   UNL     1      37.150 -34.266 -31.550  0.00  0.00    -0.267 OA
ATOM     17  N   UNL     1      35.330 -34.565 -30.189  0.00  0.00    -0.302 N 
ATOM     18  C   UNL     1      34.574 -33.384 -30.595  0.00  0.00    +0.054 C 
ATOM     19  C   UNL     1      38.531 -36.468 -30.562  0.00  0.00    +0.123 C 
ATOM     20  O   UNL     1      39.163 -37.565 -29.879  0.00  0.00    -0.457 OA
ATOM     21  C   UNL     1      38.767 -37.900 -28.632  0.00  0.00    +0.344 C 
ATOM     22  O   UNL     1      39.574 -38.312 -27.797  0.00  0.00    -0.247 OA
ATOM     23  C   UNL     1      37.245 -37.898 -28.338  0.00  0.00    +0.188 C 
ENDROOT
BRANCH   1  25
ATOM     24  C   UNL     1      31.525 -30.168 -30.319  0.00  0.00    -0.061 C 
ATOM     25  C   UNL     1      32.269 -31.450 -30.648  0.00  0.00    -0.030 C 
ENDBRANCH   1  25
BRANCH  23  26
ATOM     26  O   UNL     1      37.103 -37.675 -26.925  0.00  0.00    -0.373 OA
ATOM     27  H   UNL     1      36.294 -37.167 -26.757  0.00  0.00    +0.000 HD
ENDBRANCH  23  26
BRANCH  23  28
ATOM     28  C   UNL     1      36.727 -39.314 -28.681  0.00  0.00    -0.012 C 
ATOM     29  C   UNL     1      36.280 -39.526 -30.123  0.00  0.00    -0.062 C 
ENDBRANCH  23  28
BRANCH   8  30
ATOM     30  O   UNL     1      27.417 -32.620 -28.464  0.00  0.00    -0.411 OA
BRANCH  30  31
ATOM     31  C   UNL     1      27.308 -31.795 -29.580  0.00  0.00    +0.408 C 
ATOM     32  O   UNL     1      27.286 -32.202 -30.740  0.00  0.00    -0.226 OA
ATOM     33  N   UNL     1      27.372 -30.441 -29.264  0.00  0.00    -0.267 N 
ATOM     34  C   UNL     1      27.394 -29.946 -27.899  0.00  0.00    +0.019 C 
ATOM     35  C   UNL     1      26.820 -28.530 -27.784  0.00  0.00    -0.021 C 
ATOM     36  C   UNL     1      27.103 -27.612 -29.002  0.00  0.00    +0.013 C 
ATOM     37  C   UNL     1      28.278 -28.185 -29.805  0.00  0.00    -0.021 C 
ATOM     38  C   UNL     1      27.913 -29.579 -30.303  0.00  0.00    +0.019 C 
BRANCH  36  39
ATOM     39  N   UNL     1      27.248 -26.198 -28.556  0.00  0.00    -0.299 N 
ATOM     40  C   UNL     1      27.691 -25.357 -29.690  0.00  0.00    -0.001 C 
ATOM     41  C   UNL     1      27.846 -23.884 -29.311  0.00  0.00    -0.040 C 
ATOM     42  C   UNL     1      28.799 -23.716 -28.138  0.00  0.00    -0.051 C 
ATOM     43  C   UNL     1      28.338 -24.585 -26.980  0.00  0.00    -0.040 C 
ATOM     44  C   UNL     1      28.165 -26.042 -27.411  0.00  0.00    -0.001 C 
ATOM     45  H   UNL     1      26.330 -25.891 -28.233  0.00  0.00    +0.000 HD
ENDBRANCH  36  39
ENDBRANCH  30  31
ENDBRANCH   8  30
TORSDOF 6
ENDMDL
MODEL 14
REMARK VINA RESULT:    -8.244     26.707     33.119
REMARK INTER + INTRA:         -11.506
REMARK INTER:                 -11.226
REMARK INTRA:                  -0.280
REMARK UNBOUND:                -0.611
REMARK  Name = cpd158.pdb
REMARK  8 active torsions:
REMARK  status: ('A' for Active; 'I' for Inactive)
REMARK    1  A    between atoms: C_1  and  C_2
REMARK    2  A    between atoms: C_2  and  C_3
REMARK    3  A    between atoms: C_10  and  O_11
REMARK    4  A    between atoms: O_11  and  C_12
REMARK    5  A    between atoms: C_17  and  N_18
REMARK    6  A    between atoms: C_40  and  O_41
REMARK    7  A    between atoms: C_40  and  C_42
REMARK    8  A    between atoms: C_42  and  C_43
REMARK                            x       y       z     vdW  Elec       q    Type
REMARK                         _______ _______ _______ _____ _____    ______ ____
ROOT
ATOM      1  C   UNL     1      54.466 -47.812 -45.869  0.00  0.00    -0.031 A 
ATOM      2  C   UNL     1      53.151 -47.684 -46.312  0.00  0.00    +0.003 A 
ATOM      3  C   UNL     1      52.381 -48.812 -46.572  0.00  0.00    +0.093 A 
ATOM      4  N   UNL     1      52.754 -50.074 -46.357  0.00  0.00    -0.245 NA
ATOM      5  C   UNL     1      53.986 -50.233 -45.849  0.00  0.00    +0.072 A 
ATOM      6  C   UNL     1      54.358 -51.535 -45.521  0.00  0.00    -0.032 A 
ATOM      7  C   UNL     1      55.594 -51.839 -44.943  0.00  0.00    -0.017 A 
ATOM      8  C   UNL     1      56.481 -50.807 -44.720  0.00  0.00    +0.134 A 
ATOM      9  C   UNL     1      56.165 -49.499 -45.108  0.00  0.00    -0.010 A 
ATOM     10  C   UNL     1      54.900 -49.150 -45.615  0.00  0.00    +0.007 A 
ATOM     11  C   UNL     1      51.068 -48.365 -47.028  0.00  0.00    +0.071 A 
ATOM     12  C   UNL     1      50.016 -49.053 -47.484  0.00  0.00    -0.029 A 
ATOM     13  C   UNL     1      48.798 -48.335 -47.850  0.00  0.00    +0.008 A 
ATOM     14  C   UNL     1      48.732 -47.000 -47.676  0.00  0.00    +0.061 A 
ATOM     15  C   UNL     1      49.924 -46.229 -47.199  0.00  0.00    +0.259 A 
ATOM     16  O   UNL     1      49.884 -45.010 -47.079  0.00  0.00    -0.267 OA
ATOM     17  N   UNL     1      51.031 -46.990 -46.937  0.00  0.00    -0.302 N 
ATOM     18  C   UNL     1      52.326 -46.447 -46.538  0.00  0.00    +0.054 C 
ATOM     19  C   UNL     1      47.529 -46.181 -47.981  0.00  0.00    +0.123 C 
ATOM     20  O   UNL     1      46.425 -46.915 -48.540  0.00  0.00    -0.457 OA
ATOM     21  C   UNL     1      46.643 -48.103 -49.143  0.00  0.00    +0.344 C 
ATOM     22  O   UNL     1      45.982 -48.450 -50.123  0.00  0.00    -0.247 OA
ATOM     23  C   UNL     1      47.640 -49.078 -48.466  0.00  0.00    +0.188 C 
ENDROOT
BRANCH   1  25
ATOM     24  C   UNL     1      56.131 -45.921 -46.778  0.00  0.00    -0.061 C 
ATOM     25  C   UNL     1      55.219 -46.503 -45.712  0.00  0.00    -0.030 C 
ENDBRANCH   1  25
BRANCH  23  26
ATOM     26  O   UNL     1      48.157 -49.922 -49.509  0.00  0.00    -0.373 OA
ATOM     27  H   UNL     1      47.574 -49.874 -50.282  0.00  0.00    +0.000 HD
ENDBRANCH  23  26
BRANCH  23  28
ATOM     28  C   UNL     1      46.815 -49.940 -47.482  0.00  0.00    -0.012 C 
ATOM     29  C   UNL     1      46.288 -51.259 -48.035  0.00  0.00    -0.062 C 
ENDBRANCH  23  28
BRANCH   8  30
ATOM     30  O   UNL     1      57.726 -51.078 -44.140  0.00  0.00    -0.411 OA
BRANCH  30  31
ATOM     31  C   UNL     1      58.526 -49.937 -44.133  0.00  0.00    +0.408 C 
ATOM     32  O   UNL     1      58.215 -48.880 -43.589  0.00  0.00    -0.226 OA
ATOM     33  N   UNL     1      59.658 -50.063 -44.932  0.00  0.00    -0.267 N 
ATOM     34  C   UNL     1      60.041 -51.306 -45.577  0.00  0.00    +0.019 C 
ATOM     35  C   UNL     1      61.550 -51.397 -45.820  0.00  0.00    -0.021 C 
ATOM     36  C   UNL     1      62.237 -50.046 -46.154  0.00  0.00    +0.013 C 
ATOM     37  C   UNL     1      61.177 -49.041 -46.621  0.00  0.00    -0.021 C 
ATOM     38  C   UNL     1      60.164 -48.825 -45.503  0.00  0.00    +0.019 C 
BRANCH  36  39
ATOM     39  N   UNL     1      63.379 -50.268 -47.085  0.00  0.00    -0.299 N 
ATOM     40  C   UNL     1      62.871 -50.479 -48.460  0.00  0.00    -0.001 C 
ATOM     41  C   UNL     1      63.990 -50.697 -49.479  0.00  0.00    -0.040 C 
ATOM     42  C   UNL     1      64.884 -51.858 -49.073  0.00  0.00    -0.051 C 
ATOM     43  C   UNL     1      65.397 -51.635 -47.660  0.00  0.00    -0.040 C 
ATOM     44  C   UNL     1      64.248 -51.389 -46.681  0.00  0.00    -0.001 C 
ATOM     45  H   UNL     1      63.958 -49.429 -47.053  0.00  0.00    +0.000 HD
ENDBRANCH  36  39
ENDBRANCH  30  31
ENDBRANCH   8  30
TORSDOF 6
ENDMDL
MODEL 15
REMARK VINA RESULT:    -8.216     15.482     18.129
REMARK INTER + INTRA:         -11.469
REMARK INTER:                 -10.876
REMARK INTRA:                  -0.592
REMARK UNBOUND:                -0.611
REMARK  Name = cpd158.pdb
REMARK  8 active torsions:
REMARK  status: ('A' for Active; 'I' for Inactive)
REMARK    1  A    between atoms: C_1  and  C_2
REMARK    2  A    between atoms: C_2  and  C_3
REMARK    3  A    between atoms: C_10  and  O_11
REMARK    4  A    between atoms: O_11  and  C_12
REMARK    5  A    between atoms: C_17  and  N_18
REMARK    6  A    between atoms: C_40  and  O_41
REMARK    7  A    between atoms: C_40  and  C_42
REMARK    8  A    between atoms: C_42  and  C_43
REMARK                            x       y       z     vdW  Elec       q    Type
REMARK                         _______ _______ _______ _____ _____    ______ ____
ROOT
ATOM      1  C   UNL     1      43.051 -19.019 -34.681  0.00  0.00    -0.031 A 
ATOM      2  C   UNL     1      43.757 -19.150 -35.876  0.00  0.00    +0.003 A 
ATOM      3  C   UNL     1      43.518 -20.227 -36.721  0.00  0.00    +0.093 A 
ATOM      4  N   UNL     1      42.581 -21.160 -36.547  0.00  0.00    -0.245 NA
ATOM      5  C   UNL     1      41.823 -21.018 -35.448  0.00  0.00    +0.072 A 
ATOM      6  C   UNL     1      40.773 -21.920 -35.298  0.00  0.00    -0.032 A 
ATOM      7  C   UNL     1      39.880 -21.861 -34.225  0.00  0.00    -0.017 A 
ATOM      8  C   UNL     1      40.071 -20.884 -33.270  0.00  0.00    +0.134 A 
ATOM      9  C   UNL     1      41.162 -20.010 -33.354  0.00  0.00    -0.010 A 
ATOM     10  C   UNL     1      42.029 -19.993 -34.462  0.00  0.00    +0.007 A 
ATOM     11  C   UNL     1      44.406 -20.100 -37.874  0.00  0.00    +0.071 A 
ATOM     12  C   UNL     1      44.624 -20.919 -38.908  0.00  0.00    -0.029 A 
ATOM     13  C   UNL     1      45.566 -20.516 -39.949  0.00  0.00    +0.008 A 
ATOM     14  C   UNL     1      46.162 -19.310 -39.881  0.00  0.00    +0.061 A 
ATOM     15  C   UNL     1      45.942 -18.411 -38.703  0.00  0.00    +0.259 A 
ATOM     16  O   UNL     1      46.514 -17.330 -38.615  0.00  0.00    -0.267 OA
ATOM     17  N   UNL     1      45.085 -18.906 -37.758  0.00  0.00    -0.302 N 
ATOM     18  C   UNL     1      44.783 -18.241 -36.494  0.00  0.00    +0.054 C 
ATOM     19  C   UNL     1      47.106 -18.790 -40.906  0.00  0.00    +0.123 C 
ATOM     20  O   UNL     1      47.394 -19.704 -41.980  0.00  0.00    -0.457 OA
ATOM     21  C   UNL     1      47.195 -21.028 -41.808  0.00  0.00    +0.344 C 
ATOM     22  O   UNL     1      47.943 -21.856 -42.330  0.00  0.00    -0.247 OA
ATOM     23  C   UNL     1      45.907 -21.469 -41.067  0.00  0.00    +0.188 C 
ENDROOT
BRANCH   1  25
ATOM     24  C   UNL     1      44.387 -17.980 -32.605  0.00  0.00    -0.061 C 
ATOM     25  C   UNL     1      43.475 -17.848 -33.812  0.00  0.00    -0.030 C 
ENDBRANCH   1  25
BRANCH  23  26
ATOM     26  O   UNL     1      46.190 -22.753 -40.486  0.00  0.00    -0.373 OA
ATOM     27  H   UNL     1      46.585 -23.332 -41.157  0.00  0.00    +0.000 HD
ENDBRANCH  23  26
BRANCH  23  28
ATOM     28  C   UNL     1      44.811 -21.634 -42.146  0.00  0.00    -0.012 C 
ATOM     29  C   UNL     1      44.187 -20.342 -42.660  0.00  0.00    -0.062 C 
ENDBRANCH  23  28
BRANCH   8  30
ATOM     30  O   UNL     1      39.192 -20.795 -32.184  0.00  0.00    -0.411 OA
BRANCH  30  31
ATOM     31  C   UNL     1      37.882 -20.614 -32.622  0.00  0.00    +0.408 C 
ATOM     32  O   UNL     1      37.127 -21.532 -32.936  0.00  0.00    -0.226 OA
ATOM     33  N   UNL     1      37.553 -19.276 -32.813  0.00  0.00    -0.267 N 
ATOM     34  C   UNL     1      38.433 -18.182 -32.444  0.00  0.00    +0.019 C 
ATOM     35  C   UNL     1      37.664 -16.895 -32.129  0.00  0.00    -0.021 C 
ATOM     36  C   UNL     1      36.385 -16.678 -32.980  0.00  0.00    +0.013 C 
ATOM     37  C   UNL     1      36.461 -17.551 -34.240  0.00  0.00    -0.021 C 
ATOM     38  C   UNL     1      36.545 -19.016 -33.829  0.00  0.00    +0.019 C 
BRANCH  36  39
ATOM     39  N   UNL     1      36.164 -15.222 -33.211  0.00  0.00    -0.299 N 
ATOM     40  C   UNL     1      37.334 -14.641 -33.907  0.00  0.00    -0.001 C 
ATOM     41  C   UNL     1      37.172 -13.148 -34.194  0.00  0.00    -0.040 C 
ATOM     42  C   UNL     1      36.890 -12.371 -32.918  0.00  0.00    -0.051 C 
ATOM     43  C   UNL     1      35.690 -12.976 -32.208  0.00  0.00    -0.040 C 
ATOM     44  C   UNL     1      35.881 -14.476 -31.971  0.00  0.00    -0.001 C 
ATOM     45  H   UNL     1      35.332 -15.135 -33.795  0.00  0.00    +0.000 HD
ENDBRANCH  36  39
ENDBRANCH  30  31
ENDBRANCH   8  30
TORSDOF 6
ENDMDL
MODEL 16
REMARK VINA RESULT:    -8.208     25.488     32.197
REMARK INTER + INTRA:         -11.459
REMARK INTER:                 -10.552
REMARK INTRA:                  -0.907
REMARK UNBOUND:                -0.611
REMARK  Name = cpd158.pdb
REMARK  8 active torsions:
REMARK  status: ('A' for Active; 'I' for Inactive)
REMARK    1  A    between atoms: C_1  and  C_2
REMARK    2  A    between atoms: C_2  and  C_3
REMARK    3  A    between atoms: C_10  and  O_11
REMARK    4  A    between atoms: O_11  and  C_12
REMARK    5  A    between atoms: C_17  and  N_18
REMARK    6  A    between atoms: C_40  and  O_41
REMARK    7  A    between atoms: C_40  and  C_42
REMARK    8  A    between atoms: C_42  and  C_43
REMARK                            x       y       z     vdW  Elec       q    Type
REMARK                         _______ _______ _______ _____ _____    ______ ____
ROOT
ATOM      1  C   UNL     1      53.105 -49.156 -46.259  0.00  0.00    -0.031 A 
ATOM      2  C   UNL     1      52.002 -48.440 -46.722  0.00  0.00    +0.003 A 
ATOM      3  C   UNL     1      51.949 -47.058 -46.581  0.00  0.00    +0.093 A 
ATOM      4  N   UNL     1      52.924 -46.288 -46.097  0.00  0.00    -0.245 NA
ATOM      5  C   UNL     1      54.037 -46.935 -45.718  0.00  0.00    +0.072 A 
ATOM      6  C   UNL     1      55.106 -46.143 -45.305  0.00  0.00    -0.032 A 
ATOM      7  C   UNL     1      56.338 -46.683 -44.926  0.00  0.00    -0.017 A 
ATOM      8  C   UNL     1      56.481 -48.055 -44.940  0.00  0.00    +0.134 A 
ATOM      9  C   UNL     1      55.401 -48.880 -45.278  0.00  0.00    -0.010 A 
ATOM     10  C   UNL     1      54.177 -48.365 -45.742  0.00  0.00    +0.007 A 
ATOM     11  C   UNL     1      50.683 -46.597 -47.144  0.00  0.00    +0.071 A 
ATOM     12  C   UNL     1      50.125 -45.382 -47.169  0.00  0.00    -0.029 A 
ATOM     13  C   UNL     1      48.838 -45.203 -47.837  0.00  0.00    +0.008 A 
ATOM     14  C   UNL     1      48.258 -46.247 -48.461  0.00  0.00    +0.061 A 
ATOM     15  C   UNL     1      48.870 -47.612 -48.401  0.00  0.00    +0.259 A 
ATOM     16  O   UNL     1      48.326 -48.575 -48.931  0.00  0.00    -0.267 OA
ATOM     17  N   UNL     1      50.045 -47.683 -47.704  0.00  0.00    -0.302 N 
ATOM     18  C   UNL     1      50.777 -48.920 -47.448  0.00  0.00    +0.054 C 
ATOM     19  C   UNL     1      46.971 -46.162 -49.201  0.00  0.00    +0.123 C 
ATOM     20  O   UNL     1      46.337 -44.871 -49.162  0.00  0.00    -0.457 OA
ATOM     21  C   UNL     1      46.647 -43.997 -48.181  0.00  0.00    +0.344 C 
ATOM     22  O   UNL     1      45.796 -43.242 -47.709  0.00  0.00    -0.247 OA
ATOM     23  C   UNL     1      48.140 -43.867 -47.784  0.00  0.00    +0.188 C 
ENDROOT
BRANCH   1  25
ATOM     24  C   UNL     1      53.573 -51.454 -47.553  0.00  0.00    -0.061 C 
ATOM     25  C   UNL     1      52.991 -50.664 -46.394  0.00  0.00    -0.030 C 
ENDBRANCH   1  25
BRANCH  23  26
ATOM     26  O   UNL     1      48.161 -43.409 -46.422  0.00  0.00    -0.373 OA
ATOM     27  H   UNL     1      47.462 -42.748 -46.292  0.00  0.00    +0.000 HD
ENDBRANCH  23  26
BRANCH  23  28
ATOM     28  C   UNL     1      48.746 -42.773 -48.694  0.00  0.00    -0.012 C 
ATOM     29  C   UNL     1      49.392 -43.266 -49.984  0.00  0.00    -0.062 C 
ENDBRANCH  23  28
BRANCH   8  30
ATOM     30  O   UNL     1      57.703 -48.627 -44.569  0.00  0.00    -0.411 OA
BRANCH  30  31
ATOM     31  C   UNL     1      58.220 -49.403 -45.604  0.00  0.00    +0.408 C 
ATOM     32  O   UNL     1      58.089 -49.137 -46.797  0.00  0.00    -0.226 OA
ATOM     33  N   UNL     1      58.778 -50.598 -45.161  0.00  0.00    -0.267 N 
ATOM     34  C   UNL     1      58.942 -50.924 -43.756  0.00  0.00    +0.019 C 
ATOM     35  C   UNL     1      60.102 -51.896 -43.514  0.00  0.00    -0.021 C 
ATOM     36  C   UNL     1      60.317 -52.944 -44.638  0.00  0.00    +0.013 C 
ATOM     37  C   UNL     1      59.037 -53.055 -45.478  0.00  0.00    -0.021 C 
ATOM     38  C   UNL     1      58.732 -51.701 -46.108  0.00  0.00    +0.019 C 
BRANCH  36  39
ATOM     39  N   UNL     1      60.828 -54.218 -44.060  0.00  0.00    -0.299 N 
ATOM     40  C   UNL     1      59.787 -55.267 -44.157  0.00  0.00    -0.001 C 
ATOM     41  C   UNL     1      60.247 -56.613 -43.597  0.00  0.00    -0.040 C 
ATOM     42  C   UNL     1      60.713 -56.478 -42.156  0.00  0.00    -0.051 C 
ATOM     43  C   UNL     1      61.778 -55.398 -42.065  0.00  0.00    -0.040 C 
ATOM     44  C   UNL     1      61.288 -54.079 -42.665  0.00  0.00    -0.001 C 
ATOM     45  H   UNL     1      61.646 -54.488 -44.606  0.00  0.00    +0.000 HD
ENDBRANCH  36  39
ENDBRANCH  30  31
ENDBRANCH   8  30
TORSDOF 6
ENDMDL
MODEL 17
REMARK VINA RESULT:    -8.190     19.515     22.457
REMARK INTER + INTRA:         -11.434
REMARK INTER:                 -10.508
REMARK INTRA:                  -0.927
REMARK UNBOUND:                -0.611
REMARK  Name = cpd158.pdb
REMARK  8 active torsions:
REMARK  status: ('A' for Active; 'I' for Inactive)
REMARK    1  A    between atoms: C_1  and  C_2
REMARK    2  A    between atoms: C_2  and  C_3
REMARK    3  A    between atoms: C_10  and  O_11
REMARK    4  A    between atoms: O_11  and  C_12
REMARK    5  A    between atoms: C_17  and  N_18
REMARK    6  A    between atoms: C_40  and  O_41
REMARK    7  A    between atoms: C_40  and  C_42
REMARK    8  A    between atoms: C_42  and  C_43
REMARK                            x       y       z     vdW  Elec       q    Type
REMARK                         _______ _______ _______ _____ _____    ______ ____
ROOT
ATOM      1  C   UNL     1      45.650 -17.911 -38.345  0.00  0.00    -0.031 A 
ATOM      2  C   UNL     1      46.430 -16.913 -38.927  0.00  0.00    +0.003 A 
ATOM      3  C   UNL     1      46.926 -17.068 -40.217  0.00  0.00    +0.093 A 
ATOM      4  N   UNL     1      46.658 -18.086 -41.036  0.00  0.00    -0.245 NA
ATOM      5  C   UNL     1      45.839 -19.026 -40.539  0.00  0.00    +0.072 A 
ATOM      6  C   UNL     1      45.464 -20.046 -41.410  0.00  0.00    -0.032 A 
ATOM      7  C   UNL     1      44.583 -21.065 -41.039  0.00  0.00    -0.017 A 
ATOM      8  C   UNL     1      44.093 -21.066 -39.749  0.00  0.00    +0.134 A 
ATOM      9  C   UNL     1      44.510 -20.097 -38.828  0.00  0.00    -0.010 A 
ATOM     10  C   UNL     1      45.331 -19.015 -39.195  0.00  0.00    +0.007 A 
ATOM     11  C   UNL     1      47.706 -15.878 -40.545  0.00  0.00    +0.071 A 
ATOM     12  C   UNL     1      48.453 -15.586 -41.614  0.00  0.00    -0.029 A 
ATOM     13  C   UNL     1      49.113 -14.285 -41.690  0.00  0.00    +0.008 A 
ATOM     14  C   UNL     1      48.921 -13.381 -40.709  0.00  0.00    +0.061 A 
ATOM     15  C   UNL     1      48.113 -13.726 -39.496  0.00  0.00    +0.259 A 
ATOM     16  O   UNL     1      47.969 -12.923 -38.580  0.00  0.00    -0.267 OA
ATOM     17  N   UNL     1      47.585 -14.988 -39.499  0.00  0.00    -0.302 N 
ATOM     18  C   UNL     1      46.831 -15.567 -38.391  0.00  0.00    +0.054 C 
ATOM     19  C   UNL     1      49.514 -12.018 -40.707  0.00  0.00    +0.123 C 
ATOM     20  O   UNL     1      50.376 -11.734 -41.824  0.00  0.00    -0.457 OA
ATOM     21  C   UNL     1      50.936 -12.748 -42.518  0.00  0.00    +0.344 C 
ATOM     22  O   UNL     1      52.069 -12.647 -42.990  0.00  0.00    -0.247 OA
ATOM     23  C   UNL     1      50.044 -13.976 -42.834  0.00  0.00    +0.188 C 
ENDROOT
BRANCH   1  25
ATOM     24  C   UNL     1      46.040 -18.155 -35.706  0.00  0.00    -0.061 C 
ATOM     25  C   UNL     1      45.252 -17.652 -36.903  0.00  0.00    -0.030 C 
ENDBRANCH   1  25
BRANCH  23  26
ATOM     26  O   UNL     1      50.934 -15.094 -42.997  0.00  0.00    -0.373 OA
ATOM     27  H   UNL     1      50.974 -15.342 -43.934  0.00  0.00    +0.000 HD
ENDBRANCH  23  26
BRANCH  23  28
ATOM     28  C   UNL     1      49.350 -13.683 -44.184  0.00  0.00    -0.012 C 
ATOM     29  C   UNL     1      49.676 -14.644 -45.321  0.00  0.00    -0.062 C 
ENDBRANCH  23  28
BRANCH   8  30
ATOM     30  O   UNL     1      43.206 -22.071 -39.346  0.00  0.00    -0.411 OA
BRANCH  30  31
ATOM     31  C   UNL     1      41.885 -21.659 -39.511  0.00  0.00    +0.408 C 
ATOM     32  O   UNL     1      41.369 -21.419 -40.600  0.00  0.00    -0.226 OA
ATOM     33  N   UNL     1      41.242 -21.402 -38.305  0.00  0.00    -0.267 N 
ATOM     34  C   UNL     1      41.838 -21.684 -37.012  0.00  0.00    +0.019 C 
ATOM     35  C   UNL     1      40.786 -21.946 -35.929  0.00  0.00    -0.021 C 
ATOM     36  C   UNL     1      39.481 -21.119 -36.077  0.00  0.00    +0.013 C 
ATOM     37  C   UNL     1      39.748 -19.910 -36.983  0.00  0.00    -0.021 C 
ATOM     38  C   UNL     1      40.188 -20.401 -38.357  0.00  0.00    +0.019 C 
BRANCH  36  39
ATOM     39  N   UNL     1      38.914 -20.813 -34.734  0.00  0.00    -0.299 N 
ATOM     40  C   UNL     1      38.069 -21.940 -34.276  0.00  0.00    -0.001 C 
ATOM     41  C   UNL     1      37.464 -21.704 -32.892  0.00  0.00    -0.040 C 
ATOM     42  C   UNL     1      36.667 -20.410 -32.855  0.00  0.00    -0.051 C 
ATOM     43  C   UNL     1      37.540 -19.260 -33.328  0.00  0.00    -0.040 C 
ATOM     44  C   UNL     1      38.150 -19.552 -34.701  0.00  0.00    -0.001 C 
ATOM     45  H   UNL     1      39.702 -20.689 -34.098  0.00  0.00    +0.000 HD
ENDBRANCH  36  39
ENDBRANCH  30  31
ENDBRANCH   8  30
TORSDOF 6
ENDMDL
MODEL 18
REMARK VINA RESULT:    -8.027     27.042     32.792
REMARK INTER + INTRA:         -11.219
REMARK INTER:                 -10.272
REMARK INTRA:                  -0.947
REMARK UNBOUND:                -0.611
REMARK  Name = cpd158.pdb
REMARK  8 active torsions:
REMARK  status: ('A' for Active; 'I' for Inactive)
REMARK    1  A    between atoms: C_1  and  C_2
REMARK    2  A    between atoms: C_2  and  C_3
REMARK    3  A    between atoms: C_10  and  O_11
REMARK    4  A    between atoms: O_11  and  C_12
REMARK    5  A    between atoms: C_17  and  N_18
REMARK    6  A    between atoms: C_40  and  O_41
REMARK    7  A    between atoms: C_40  and  C_42
REMARK    8  A    between atoms: C_42  and  C_43
REMARK                            x       y       z     vdW  Elec       q    Type
REMARK                         _______ _______ _______ _____ _____    ______ ____
ROOT
ATOM      1  C   UNL     1      54.355 -47.608 -45.820  0.00  0.00    -0.031 A 
ATOM      2  C   UNL     1      53.055 -47.579 -46.320  0.00  0.00    +0.003 A 
ATOM      3  C   UNL     1      52.326 -48.755 -46.456  0.00  0.00    +0.093 A 
ATOM      4  N   UNL     1      52.724 -49.966 -46.066  0.00  0.00    -0.245 NA
ATOM      5  C   UNL     1      53.940 -50.019 -45.501  0.00  0.00    +0.072 A 
ATOM      6  C   UNL     1      54.335 -51.255 -44.993  0.00  0.00    -0.032 A 
ATOM      7  C   UNL     1      55.556 -51.443 -44.341  0.00  0.00    -0.017 A 
ATOM      8  C   UNL     1      56.407 -50.363 -44.224  0.00  0.00    +0.134 A 
ATOM      9  C   UNL     1      56.070 -49.127 -44.790  0.00  0.00    -0.010 A 
ATOM     10  C   UNL     1      54.816 -48.887 -45.380  0.00  0.00    +0.007 A 
ATOM     11  C   UNL     1      51.019 -48.412 -47.009  0.00  0.00    +0.071 A 
ATOM     12  C   UNL     1      50.003 -49.186 -47.406  0.00  0.00    -0.029 A 
ATOM     13  C   UNL     1      48.781 -48.560 -47.903  0.00  0.00    +0.008 A 
ATOM     14  C   UNL     1      48.673 -47.217 -47.907  0.00  0.00    +0.061 A 
ATOM     15  C   UNL     1      49.825 -46.353 -47.495  0.00  0.00    +0.259 A 
ATOM     16  O   UNL     1      49.748 -45.130 -47.537  0.00  0.00    -0.267 OA
ATOM     17  N   UNL     1      50.941 -47.039 -47.100  0.00  0.00    -0.302 N 
ATOM     18  C   UNL     1      52.206 -46.409 -46.732  0.00  0.00    +0.054 C 
ATOM     19  C   UNL     1      47.461 -46.482 -48.356  0.00  0.00    +0.123 C 
ATOM     20  O   UNL     1      46.398 -47.317 -48.851  0.00  0.00    -0.457 OA
ATOM     21  C   UNL     1      46.669 -48.565 -49.287  0.00  0.00    +0.344 C 
ATOM     22  O   UNL     1      46.055 -49.057 -50.234  0.00  0.00    -0.247 OA
ATOM     23  C   UNL     1      47.666 -49.412 -48.455  0.00  0.00    +0.188 C 
ENDROOT
BRANCH   1  25
ATOM     24  C   UNL     1      56.131 -45.868 -46.818  0.00  0.00    -0.061 C 
ATOM     25  C   UNL     1      55.067 -46.266 -45.811  0.00  0.00    -0.030 C 
ENDBRANCH   1  25
BRANCH  23  26
ATOM     26  O   UNL     1      48.244 -50.367 -49.361  0.00  0.00    -0.373 OA
ATOM     27  H   UNL     1      48.395 -51.205 -48.896  0.00  0.00    +0.000 HD
ENDBRANCH  23  26
BRANCH  23  28
ATOM     28  C   UNL     1      46.829 -50.165 -47.395  0.00  0.00    -0.012 C 
ATOM     29  C   UNL     1      46.284 -51.523 -47.821  0.00  0.00    -0.062 C 
ENDBRANCH  23  28
BRANCH   8  30
ATOM     30  O   UNL     1      57.636 -50.518 -43.573  0.00  0.00    -0.411 OA
BRANCH  30  31
ATOM     31  C   UNL     1      58.440 -51.435 -44.246  0.00  0.00    +0.408 C 
ATOM     32  O   UNL     1      58.774 -51.326 -45.423  0.00  0.00    -0.226 OA
ATOM     33  N   UNL     1      58.711 -52.574 -43.493  0.00  0.00    -0.267 N 
ATOM     34  C   UNL     1      58.327 -52.714 -42.100  0.00  0.00    +0.019 C 
ATOM     35  C   UNL     1      59.246 -53.672 -41.335  0.00  0.00    -0.021 C 
ATOM     36  C   UNL     1      59.783 -54.864 -42.170  0.00  0.00    +0.013 C 
ATOM     37  C   UNL     1      58.895 -55.056 -43.407  0.00  0.00    -0.021 C 
ATOM     38  C   UNL     1      58.938 -53.791 -44.256  0.00  0.00    +0.019 C 
BRANCH  36  39
ATOM     39  N   UNL     1      59.955 -56.062 -41.301  0.00  0.00    -0.299 N 
ATOM     40  C   UNL     1      60.633 -57.138 -42.059  0.00  0.00    -0.001 C 
ATOM     41  C   UNL     1      60.861 -58.399 -41.224  0.00  0.00    -0.040 C 
ATOM     42  C   UNL     1      59.555 -58.917 -40.644  0.00  0.00    -0.051 C 
ATOM     43  C   UNL     1      58.865 -57.805 -39.871  0.00  0.00    -0.040 C 
ATOM     44  C   UNL     1      58.686 -56.554 -40.734  0.00  0.00    -0.001 C 
ATOM     45  H   UNL     1      60.533 -55.776 -40.510  0.00  0.00    +0.000 HD
ENDBRANCH  36  39
ENDBRANCH  30  31
ENDBRANCH   8  30
TORSDOF 6
ENDMDL
MODEL 19
REMARK VINA RESULT:    -7.952     15.548     20.675
REMARK INTER + INTRA:         -11.120
REMARK INTER:                 -10.366
REMARK INTRA:                  -0.754
REMARK UNBOUND:                -0.611
REMARK  Name = cpd158.pdb
REMARK  8 active torsions:
REMARK  status: ('A' for Active; 'I' for Inactive)
REMARK    1  A    between atoms: C_1  and  C_2
REMARK    2  A    between atoms: C_2  and  C_3
REMARK    3  A    between atoms: C_10  and  O_11
REMARK    4  A    between atoms: O_11  and  C_12
REMARK    5  A    between atoms: C_17  and  N_18
REMARK    6  A    between atoms: C_40  and  O_41
REMARK    7  A    between atoms: C_40  and  C_42
REMARK    8  A    between atoms: C_42  and  C_43
REMARK                            x       y       z     vdW  Elec       q    Type
REMARK                         _______ _______ _______ _____ _____    ______ ____
ROOT
ATOM      1  C   UNL     1      40.864 -19.950 -35.140  0.00  0.00    -0.031 A 
ATOM      2  C   UNL     1      39.603 -19.428 -34.858  0.00  0.00    +0.003 A 
ATOM      3  C   UNL     1      39.444 -18.472 -33.861  0.00  0.00    +0.093 A 
ATOM      4  N   UNL     1      40.428 -17.908 -33.160  0.00  0.00    -0.245 NA
ATOM      5  C   UNL     1      41.667 -18.326 -33.464  0.00  0.00    +0.072 A 
ATOM      6  C   UNL     1      42.717 -17.679 -32.817  0.00  0.00    -0.032 A 
ATOM      7  C   UNL     1      44.056 -17.983 -33.072  0.00  0.00    -0.017 A 
ATOM      8  C   UNL     1      44.338 -18.982 -33.981  0.00  0.00    +0.134 A 
ATOM      9  C   UNL     1      43.303 -19.701 -34.591  0.00  0.00    -0.010 A 
ATOM     10  C   UNL     1      41.948 -19.364 -34.417  0.00  0.00    +0.007 A 
ATOM     11  C   UNL     1      38.026 -18.128 -33.790  0.00  0.00    +0.071 A 
ATOM     12  C   UNL     1      37.356 -17.338 -32.945  0.00  0.00    -0.029 A 
ATOM     13  C   UNL     1      35.919 -17.153 -33.129  0.00  0.00    +0.008 A 
ATOM     14  C   UNL     1      35.299 -17.737 -34.174  0.00  0.00    +0.061 A 
ATOM     15  C   UNL     1      36.046 -18.649 -35.097  0.00  0.00    +0.259 A 
ATOM     16  O   UNL     1      35.479 -19.216 -36.024  0.00  0.00    -0.267 OA
ATOM     17  N   UNL     1      37.374 -18.798 -34.803  0.00  0.00    -0.302 N 
ATOM     18  C   UNL     1      38.279 -19.695 -35.517  0.00  0.00    +0.054 C 
ATOM     19  C   UNL     1      33.851 -17.582 -34.473  0.00  0.00    +0.123 C 
ATOM     20  O   UNL     1      33.119 -16.791 -33.519  0.00  0.00    -0.457 OA
ATOM     21  C   UNL     1      33.606 -16.619 -32.271  0.00  0.00    +0.344 C 
ATOM     22  O   UNL     1      32.853 -16.551 -31.299  0.00  0.00    -0.247 OA
ATOM     23  C   UNL     1      35.126 -16.354 -32.126  0.00  0.00    +0.188 C 
ENDROOT
BRANCH   1  25
ATOM     24  C   UNL     1      40.828 -22.532 -35.855  0.00  0.00    -0.061 C 
ATOM     25  C   UNL     1      40.881 -21.051 -36.187  0.00  0.00    -0.030 C 
ENDBRANCH   1  25
BRANCH  23  26
ATOM     26  O   UNL     1      35.494 -16.801 -30.811  0.00  0.00    -0.373 OA
ATOM     27  H   UNL     1      34.903 -16.400 -30.155  0.00  0.00    +0.000 HD
ENDBRANCH  23  26
BRANCH  23  28
ATOM     28  C   UNL     1      35.317 -14.821 -32.210  0.00  0.00    -0.012 C 
ATOM     29  C   UNL     1      36.018 -14.308 -33.462  0.00  0.00    -0.062 C 
ENDBRANCH  23  28
BRANCH   8  30
ATOM     30  O   UNL     1      45.670 -19.308 -34.261  0.00  0.00    -0.411 OA
BRANCH  30  31
ATOM     31  C   UNL     1      46.200 -18.444 -35.215  0.00  0.00    +0.408 C 
ATOM     32  O   UNL     1      46.501 -17.273 -34.993  0.00  0.00    -0.226 OA
ATOM     33  N   UNL     1      46.222 -18.992 -36.493  0.00  0.00    -0.267 N 
ATOM     34  C   UNL     1      45.874 -20.374 -36.770  0.00  0.00    +0.019 C 
ATOM     35  C   UNL     1      46.568 -20.911 -38.025  0.00  0.00    -0.021 C 
ATOM     36  C   UNL     1      46.768 -19.866 -39.155  0.00  0.00    +0.013 C 
ATOM     37  C   UNL     1      45.808 -18.689 -38.931  0.00  0.00    -0.021 C 
ATOM     38  C   UNL     1      46.118 -18.039 -37.587  0.00  0.00    +0.019 C 
BRANCH  36  39
ATOM     39  N   UNL     1      46.684 -20.528 -40.487  0.00  0.00    -0.299 N 
ATOM     40  C   UNL     1      45.514 -20.012 -41.232  0.00  0.00    -0.001 C 
ATOM     41  C   UNL     1      45.372 -20.635 -42.621  0.00  0.00    -0.040 C 
ATOM     42  C   UNL     1      45.305 -22.152 -42.537  0.00  0.00    -0.051 C 
ATOM     43  C   UNL     1      46.508 -22.673 -41.769  0.00  0.00    -0.040 C 
ATOM     44  C   UNL     1      46.630 -21.999 -40.400  0.00  0.00    -0.001 C 
ATOM     45  H   UNL     1      47.543 -20.301 -40.988  0.00  0.00    +0.000 HD
ENDBRANCH  36  39
ENDBRANCH  30  31
ENDBRANCH   8  30
TORSDOF 6
ENDMDL
MODEL 20
REMARK VINA RESULT:    -7.686     16.107     21.267
REMARK INTER + INTRA:         -10.769
REMARK INTER:                  -9.927
REMARK INTRA:                  -0.842
REMARK UNBOUND:                -0.611
REMARK  Name = cpd158.pdb
REMARK  8 active torsions:
REMARK  status: ('A' for Active; 'I' for Inactive)
REMARK    1  A    between atoms: C_1  and  C_2
REMARK    2  A    between atoms: C_2  and  C_3
REMARK    3  A    between atoms: C_10  and  O_11
REMARK    4  A    between atoms: O_11  and  C_12
REMARK    5  A    between atoms: C_17  and  N_18
REMARK    6  A    between atoms: C_40  and  O_41
REMARK    7  A    between atoms: C_40  and  C_42
REMARK    8  A    between atoms: C_42  and  C_43
REMARK                            x       y       z     vdW  Elec       q    Type
REMARK                         _______ _______ _______ _____ _____    ______ ____
ROOT
ATOM      1  C   UNL     1      37.872 -18.278 -33.076  0.00  0.00    -0.031 A 
ATOM      2  C   UNL     1      37.795 -17.073 -32.380  0.00  0.00    +0.003 A 
ATOM      3  C   UNL     1      38.939 -16.320 -32.145  0.00  0.00    +0.093 A 
ATOM      4  N   UNL     1      40.160 -16.596 -32.605  0.00  0.00    -0.245 NA
ATOM      5  C   UNL     1      40.258 -17.706 -33.353  0.00  0.00    +0.072 A 
ATOM      6  C   UNL     1      41.500 -17.960 -33.929  0.00  0.00    -0.032 A 
ATOM      7  C   UNL     1      41.731 -19.055 -34.765  0.00  0.00    -0.017 A 
ATOM      8  C   UNL     1      40.688 -19.927 -35.001  0.00  0.00    +0.134 A 
ATOM      9  C   UNL     1      39.448 -19.740 -34.377  0.00  0.00    -0.010 A 
ATOM     10  C   UNL     1      39.163 -18.604 -33.597  0.00  0.00    +0.007 A 
ATOM     11  C   UNL     1      38.549 -15.131 -31.391  0.00  0.00    +0.071 A 
ATOM     12  C   UNL     1      39.285 -14.155 -30.850  0.00  0.00    -0.029 A 
ATOM     13  C   UNL     1      38.613 -13.055 -30.162  0.00  0.00    +0.008 A 
ATOM     14  C   UNL     1      37.267 -13.011 -30.127  0.00  0.00    +0.061 A 
ATOM     15  C   UNL     1      36.448 -14.125 -30.704  0.00  0.00    +0.259 A 
ATOM     16  O   UNL     1      35.224 -14.112 -30.638  0.00  0.00    -0.267 OA
ATOM     17  N   UNL     1      37.176 -15.133 -31.275  0.00  0.00    -0.302 N 
ATOM     18  C   UNL     1      36.596 -16.354 -31.829  0.00  0.00    +0.054 C 
ATOM     19  C   UNL     1      36.487 -11.919 -29.487  0.00  0.00    +0.123 C 
ATOM     20  O   UNL     1      37.283 -10.908 -28.842  0.00  0.00    -0.457 OA
ATOM     21  C   UNL     1      38.550 -11.185 -28.467  0.00  0.00    +0.344 C 
ATOM     22  O   UNL     1      39.030 -10.702 -27.441  0.00  0.00    -0.247 OA
ATOM     23  C   UNL     1      39.426 -12.001 -29.453  0.00  0.00    +0.188 C 
ENDROOT
BRANCH   1  25
ATOM     24  C   UNL     1      36.376 -20.466 -32.692  0.00  0.00    -0.061 C 
ATOM     25  C   UNL     1      36.564 -19.041 -33.182  0.00  0.00    -0.030 C 
ENDBRANCH   1  25
BRANCH  23  26
ATOM     26  O   UNL     1      40.421 -12.667 -28.658  0.00  0.00    -0.373 OA
ATOM     27  H   UNL     1      41.303 -12.365 -28.924  0.00  0.00    +0.000 HD
ENDBRANCH  23  26
BRANCH  23  28
ATOM     28  C   UNL     1      40.122 -10.975 -30.378  0.00  0.00    -0.012 C 
ATOM     29  C   UNL     1      41.641 -11.072 -30.451  0.00  0.00    -0.062 C 
ENDBRANCH  23  28
BRANCH   8  30
ATOM     30  O   UNL     1      40.885 -21.032 -35.837  0.00  0.00    -0.411 OA
BRANCH  30  31
ATOM     31  C   UNL     1      40.427 -20.765 -37.125  0.00  0.00    +0.408 C 
ATOM     32  O   UNL     1      39.240 -20.686 -37.432  0.00  0.00    -0.226 OA
ATOM     33  N   UNL     1      41.447 -20.742 -38.071  0.00  0.00    -0.267 N 
ATOM     34  C   UNL     1      42.854 -20.830 -37.722  0.00  0.00    +0.019 C 
ATOM     35  C   UNL     1      43.755 -20.151 -38.758  0.00  0.00    -0.021 C 
ATOM     36  C   UNL     1      43.257 -20.258 -40.223  0.00  0.00    +0.013 C 
ATOM     37  C   UNL     1      42.249 -21.410 -40.332  0.00  0.00    -0.021 C 
ATOM     38  C   UNL     1      41.062 -21.124 -39.420  0.00  0.00    +0.019 C 
BRANCH  36  39
ATOM     39  N   UNL     1      44.418 -20.319 -41.156  0.00  0.00    -0.299 N 
ATOM     40  C   UNL     1      44.906 -21.713 -41.260  0.00  0.00    -0.001 C 
ATOM     41  C   UNL     1      46.089 -21.858 -42.216  0.00  0.00    -0.040 C 
ATOM     42  C   UNL     1      47.232 -20.937 -41.819  0.00  0.00    -0.051 C 
ATOM     43  C   UNL     1      46.722 -19.510 -41.713  0.00  0.00    -0.040 C 
ATOM     44  C   UNL     1      45.519 -19.417 -40.772  0.00  0.00    -0.001 C 
ATOM     45  H   UNL     1      44.087 -19.998 -42.066  0.00  0.00    +0.000 HD
ENDBRANCH  36  39
ENDBRANCH  30  31
ENDBRANCH   8  30
TORSDOF 6
ENDMDL
