REMARK  Name = cpd314.pdb
REMARK  8 active torsions:
REMARK  status: ('A' for Active; 'I' for Inactive)
REMARK    1  A    between atoms: C_1  and  O_2
REMARK    2  A    between atoms: O_2  and  C_3
REMARK    3  A    between atoms: C_12  and  O_13
REMARK    4  A    between atoms: C_20  and  C_22
REMARK    5  A    between atoms: C_22  and  C_23
REMARK    6  A    between atoms: C_23  and  C_24
REMARK    7  A    between atoms: C_28  and  N_29
REMARK    8  A    between atoms: N_29  and  C_30
REMARK                            x       y       z     vdW  Elec       q    Type
REMARK                         _______ _______ _______ _____ _____    ______ ____
ROOT
ATOM      1  C   UNL A   1       4.268  -1.363  -1.203  0.00  0.00    +0.162 A 
ATOM      2  C   UNL A   1       4.389  -0.055  -0.731  0.00  0.00    -0.016 A 
ATOM      3  C   UNL A   1       3.334   0.554  -0.026  0.00  0.00    -0.053 A 
ATOM      4  C   UNL A   1       2.140  -0.135   0.241  0.00  0.00    -0.022 A 
ATOM      5  C   UNL A   1       2.076  -1.474  -0.142  0.00  0.00    +0.016 A 
ATOM      6  C   UNL A   1       3.096  -2.043  -0.898  0.00  0.00    +0.167 A 
ATOM      7  O   UNL A   1       2.792  -3.295  -1.376  0.00  0.00    -0.484 OA
ATOM      8  C   UNL A   1       1.612  -3.701  -0.637  0.00  0.00    +0.116 C 
ATOM      9  C   UNL A   1       2.080  -4.744   0.384  0.00  0.00    +0.015 C 
ATOM     10  C   UNL A   1       0.984  -5.102   1.372  0.00  0.00    +0.077 C 
ATOM     11  C   UNL A   1       0.426  -3.868   2.002  0.00  0.00    -0.059 C 
ATOM     12  C   UNL A   1       0.440  -2.671   1.395  0.00  0.00    -0.071 C 
ATOM     13  C   UNL A   1       0.928  -2.429  -0.026  0.00  0.00    +0.056 C 
ATOM     14  C   UNL A   1      -0.234  -1.930  -0.927  0.00  0.00    -0.020 C 
ATOM     15  C   UNL A   1      -0.489  -0.410  -0.915  0.00  0.00    +0.016 C 
ATOM     16  N   UNL A   1      -0.363   0.201   0.411  0.00  0.00    -0.297 N 
ATOM     17  C   UNL A   1      -1.437   0.525   1.235  0.00  0.00    +0.216 C 
ATOM     18  O   UNL A   1      -1.277   1.125   2.299  0.00  0.00    -0.276 OA
ATOM     19  C   UNL A   1       0.978   0.586   0.884  0.00  0.00    +0.040 C 
ENDROOT
BRANCH   1  21
ATOM     20  C   UNL A   1       6.419  -1.373  -2.212  0.00  0.00    +0.079 C 
ATOM     21  O   UNL A   1       5.192  -2.037  -1.946  0.00  0.00    -0.491 OA
ENDBRANCH   1  21
BRANCH  10  22
ATOM     22  O   UNL A   1       1.546  -5.922   2.385  0.00  0.00    -0.388 OA
ATOM     23  H   UNL A   1       2.256  -5.438   2.836  0.00  0.00    +0.000 HD
ENDBRANCH  10  22
BRANCH  17  24
ATOM     24  C   UNL A   1      -2.819   0.097   0.773  0.00  0.00    +0.028 C 
BRANCH  24  25
ATOM     25  C   UNL A   1      -3.872   0.324   1.856  0.00  0.00    -0.019 C 
BRANCH  25  26
ATOM     26  C   UNL A   1      -5.234  -0.142   1.402  0.00  0.00    -0.045 A 
ATOM     27  C   UNL A   1      -5.635  -1.467   1.605  0.00  0.00    -0.058 A 
ATOM     28  C   UNL A   1      -6.876  -1.900   1.145  0.00  0.00    -0.060 A 
ATOM     29  C   UNL A   1      -7.728  -1.016   0.479  0.00  0.00    -0.041 A 
ATOM     30  C   UNL A   1      -7.358   0.317   0.275  0.00  0.00    +0.032 A 
ATOM     31  C   UNL A   1      -6.098   0.736   0.731  0.00  0.00    -0.037 A 
BRANCH  30  32
ATOM     32  N   UNL A   1      -8.165   1.257  -0.417  0.00  0.00    -0.312 N 
ATOM     33  H   UNL A   1      -7.802   2.168  -0.506  0.00  0.00    +0.000 HD
BRANCH  32  34
ATOM     34  C   UNL A   1      -9.443   1.023  -0.995  0.00  0.00    +0.068 A 
ATOM     35  C   UNL A   1      -9.629   0.182  -2.111  0.00  0.00    +0.063 A 
ATOM     36 CL   UNL A   1      -8.294  -0.521  -2.962  0.00  0.00    -0.082 Cl
ATOM     37  C   UNL A   1     -10.911  -0.074  -2.615  0.00  0.00    -0.041 A 
ATOM     38  C   UNL A   1     -12.031   0.500  -2.017  0.00  0.00    -0.059 A 
ATOM     39  C   UNL A   1     -11.872   1.338  -0.916  0.00  0.00    -0.041 A 
ATOM     40  C   UNL A   1     -10.594   1.595  -0.412  0.00  0.00    +0.063 A 
ATOM     41 CL   UNL A   1     -10.460   2.646   0.958  0.00  0.00    -0.082 Cl
ENDBRANCH  32  34
ENDBRANCH  30  32
ENDBRANCH  25  26
ENDBRANCH  24  25
ENDBRANCH  17  24
TORSDOF 7
