@<TRIPOS>MOLECULE
*****
 39 44 0 0 0
SMALL
GASTEIGER

@<TRIPOS>ATOM
      1 C           4.0669   -0.9972    0.0000 C.3     1  UNL1        0.2526
      2 O           3.3045   -1.5512    0.0000 O.3     1  UNL1       -0.4684
      3 C           2.4883   -1.0799    0.0000 C.ar    1  UNL1        0.1721
      4 C           2.4882   -0.1375    0.0000 C.ar    1  UNL1        0.0398
      5 C           1.6716    0.3340    0.0000 C.ar    1  UNL1        0.0004
      6 C           0.8554   -0.1371    0.0000 C.ar    1  UNL1       -0.0028
      7 C           0.8552   -1.0800    0.0000 C.ar    1  UNL1        0.0191
      8 C           1.6719   -1.5515    0.0000 C.ar    1  UNL1        0.1682
      9 O           1.6719   -2.4940    0.0000 O.3     1  UNL1       -0.4757
     10 C           0.8555   -2.9656    0.0000 C.3     1  UNL1        0.1762
     11 C           0.8553   -3.9084    0.0000 C.3     1  UNL1        0.0816
     12 C           0.0391   -4.3796    0.0000 C.3     1  UNL1        0.1773
     13 O           0.0390   -5.3520    0.0000 O.3     1  UNL1       -0.2182
     14 C          -0.7776   -3.9081    0.0000 C.2     1  UNL1        0.0021
     15 C          -0.7777   -2.9656    0.0000 C.2     1  UNL1       -0.0211
     16 C           0.0388   -2.4940    0.0000 C.3     1  UNL1        0.0783
     17 C          -0.7181   -2.0726    0.0000 C.3     1  UNL1        0.0332
     18 C          -1.0270   -1.2633    0.0000 C.3     1  UNL1        0.0945
     19 N          -0.7434   -0.4447    0.0000 N.am    1  UNL1       -0.2754
     20 C          -1.5106    0.1790    0.0000 C.2     1  UNL1        0.2262
     21 O          -1.3541    1.1553    0.0000 O.2     1  UNL1       -0.2748
     22 C          -2.4344   -0.1736    0.0000 C.3     1  UNL1        0.0900
     23 C          -3.2016    0.4501    0.0000 C.3     1  UNL1        0.0360
     24 C          -4.1254    0.0975    0.0000 C.ar    1  UNL1       -0.0204
     25 C          -4.2819   -0.8788    0.0000 C.ar    1  UNL1       -0.0042
     26 C          -5.2057   -1.2313    0.0000 C.ar    1  UNL1        0.0010
     27 C          -5.9729   -0.6076    0.0000 C.ar    1  UNL1        0.0165
     28 C          -5.8164    0.3687    0.0000 C.ar    1  UNL1        0.0702
     29 N          -6.5836    0.9924    0.0000 N.pl3   1  UNL1       -0.2108
     30 C          -7.5073    0.6398    0.0000 C.ar    1  UNL1        0.0915
     31 C          -7.6639   -0.3365    0.0000 C.ar    1  UNL1        0.0737
     32 CL         -6.8967   -0.9602    0.0000 Cl      1  UNL1       -0.0809
     33 C          -8.5876   -0.6891    0.0000 C.ar    1  UNL1        0.0128
     34 C          -9.3549   -0.0654    0.0000 C.ar    1  UNL1        0.0018
     35 C          -9.1983    0.9109    0.0000 C.ar    1  UNL1        0.0128
     36 C          -8.2746    1.2635    0.0000 C.ar    1  UNL1        0.0737
     37 CL         -8.1180    2.2398    0.0000 Cl      1  UNL1       -0.0809
     38 C          -4.8926    0.7212    0.0000 C.ar    1  UNL1        0.0123
     39 C           0.0000    0.0000    0.0000 C.3     1  UNL1        0.1199
@<TRIPOS>BOND
     1     1     2    1
     2     2     3    1
     3     3     4   ar
     4     4     5   ar
     5     5     6   ar
     6     6     7   ar
     7     7     8   ar
     8     3     8   ar
     9     8     9    1
    10     9    10    1
    11    10    11    1
    12    11    12    1
    13    12    13    1
    14    12    14    1
    15    14    15    2
    16    15    16    1
    17     7    16    1
    18    10    16    1
    19    16    17    1
    20    17    18    1
    21    18    19    1
    22    19    20   am
    23    20    21    2
    24    20    22    1
    25    22    23    1
    26    23    24    1
    27    24    25   ar
    28    25    26   ar
    29    26    27   ar
    30    27    28   ar
    31    28    29    1
    32    29    30    1
    33    30    31   ar
    34    31    32    1
    35    31    33   ar
    36    33    34   ar
    37    34    35   ar
    38    35    36   ar
    39    30    36   ar
    40    36    37    1
    41    28    38   ar
    42    24    38   ar
    43    19    39    1
    44     6    39    1
