MODEL 1
REMARK VINA RESULT:    -8.053      0.000      0.000
REMARK INTER + INTRA:         -17.677
REMARK INTER:                 -13.702
REMARK INTRA:                  -3.976
REMARK UNBOUND:                -3.976
REMARK  Name = cpd177.pdb
REMARK  14 active torsions:
REMARK  status: ('A' for Active; 'I' for Inactive)
REMARK    1  A    between atoms: C_1  and  C_2
REMARK    2  A    between atoms: C_6  and  N_7
REMARK    3  A    between atoms: N_7  and  C_8
REMARK    4  A    between atoms: C_13  and  C_14
REMARK    5  A    between atoms: N_16  and  C_17
REMARK    6  A    between atoms: C_17  and  C_18
REMARK    7  A    between atoms: C_18  and  C_19
REMARK    8  A    between atoms: N_21  and  C_22
REMARK    9  A    between atoms: C_22  and  C_23
REMARK   10  A    between atoms: C_23  and  C_24
REMARK   11  A    between atoms: C_24  and  C_25
REMARK   12  A    between atoms: C_25  and  N_26
REMARK   13  A    between atoms: N_26  and  C_27
REMARK   14  A    between atoms: C_42  and  C_43
REMARK                            x       y       z     vdW  Elec       q    Type
REMARK                         _______ _______ _______ _____ _____    ______ ____
ROOT
ATOM      1  C   UNL A   1      31.281 -34.003 -29.081  0.00  0.00    +0.215 C 
ATOM      2  O   UNL A   1      31.191 -33.706 -27.895  0.00  0.00    -0.276 OA
ATOM      3  N   UNL A   1      31.986 -33.267 -30.006  0.00  0.00    -0.315 N 
ATOM      4  H   UNL A   1      31.994 -33.566 -30.944  0.00  0.00    +0.000 HD
ENDROOT
BRANCH   1   5
ATOM      5  C   UNL A   1      30.654 -35.258 -29.640  0.00  0.00    +0.039 C 
BRANCH   5   6
ATOM      6  C   UNL A   1      30.545 -35.133 -31.148  0.00  0.00    +0.020 C 
BRANCH   6   9
ATOM      7  C   UNL A   1      31.165 -37.471 -31.549  0.00  0.00    +0.246 C 
ATOM      8  O   UNL A   1      30.461 -37.875 -30.629  0.00  0.00    -0.270 OA
ATOM      9  N   UNL A   1      31.347 -36.130 -31.836  0.00  0.00    -0.311 N 
ATOM     10  H   UNL A   1      32.015 -35.852 -32.503  0.00  0.00    +0.000 HD
BRANCH   7  16
ATOM     11  C   UNL A   1      33.006 -39.105 -32.058  0.00  0.00    +0.044 A 
ATOM     12  C   UNL A   1      33.544 -40.070 -32.925  0.00  0.00    -0.040 A 
ATOM     13  C   UNL A   1      32.992 -40.301 -34.189  0.00  0.00    -0.060 A 
ATOM     14  C   UNL A   1      31.870 -39.589 -34.603  0.00  0.00    -0.061 A 
ATOM     15  C   UNL A   1      31.282 -38.663 -33.742  0.00  0.00    -0.048 A 
ATOM     16  C   UNL A   1      31.828 -38.440 -32.466  0.00  0.00    +0.058 A 
BRANCH  11  17
ATOM     17  N   UNL A   1      33.531 -38.933 -30.748  0.00  0.00    -0.314 N 
ATOM     18  H   UNL A   1      33.334 -38.069 -30.317  0.00  0.00    +0.000 HD
BRANCH  17  24
ATOM     19  C   UNL A   1      34.058 -41.747 -26.651  0.00  0.00    -0.039 C 
ATOM     20  C   UNL A   1      34.576 -41.173 -27.942  0.00  0.00    -0.046 A 
ATOM     21  C   UNL A   1      35.898 -41.450 -28.321  0.00  0.00    -0.058 A 
ATOM     22  C   UNL A   1      36.430 -40.916 -29.491  0.00  0.00    -0.060 A 
ATOM     23  C   UNL A   1      35.643 -40.104 -30.303  0.00  0.00    -0.040 A 
ATOM     24  C   UNL A   1      34.302 -39.846 -29.980  0.00  0.00    +0.035 A 
ATOM     25  C   UNL A   1      33.763 -40.375 -28.783  0.00  0.00    -0.026 A 
ATOM     26  C   UNL A   1      32.344 -40.039 -28.389  0.00  0.00    -0.038 C 
ENDBRANCH  17  24
ENDBRANCH  11  17
ENDBRANCH   7  16
ENDBRANCH   6   9
ENDBRANCH   5   6
ENDBRANCH   1   5
BRANCH   3  27
ATOM     27  C   UNL A   1      32.717 -32.069 -29.650  0.00  0.00    +0.012 C 
BRANCH  27  28
ATOM     28  C   UNL A   1      33.923 -31.821 -30.555  0.00  0.00    -0.036 C 
BRANCH  28  29
ATOM     29  C   UNL A   1      34.332 -33.055 -31.363  0.00  0.00    -0.036 C 
BRANCH  29  30
ATOM     30  C   UNL A   1      35.740 -33.518 -30.990  0.00  0.00    +0.009 C 
BRANCH  30  31
ATOM     31  N   UNL A   1      35.976 -34.848 -31.566  0.00  0.00    -0.343 N 
ATOM     32  H   UNL A   1      35.663 -35.128 -32.456  0.00  0.00    +0.000 HD
BRANCH  31  33
ATOM     33  C   UNL A   1      36.714 -35.686 -30.678  0.00  0.00    +0.041 A 
ATOM     34  C   UNL A   1      38.039 -36.022 -31.020  0.00  0.00    -0.005 A 
ATOM     35  C   UNL A   1      38.735 -36.872 -30.160  0.00  0.00    +0.047 A 
ATOM     36  N   UNL A   1      38.180 -37.419 -29.053  0.00  0.00    -0.251 NA
ATOM     37  C   UNL A   1      36.916 -37.114 -28.737  0.00  0.00    +0.074 A 
ATOM     38  C   UNL A   1      36.385 -37.689 -27.592  0.00  0.00    -0.017 A 
ATOM     39  C   UNL A   1      35.079 -37.428 -27.189  0.00  0.00    +0.043 A 
ATOM     40 CL   UNL A   1      34.456 -38.165 -25.765  0.00  0.00    -0.083 Cl
ATOM     41  C   UNL A   1      34.275 -36.577 -27.932  0.00  0.00    -0.043 A 
ATOM     42  C   UNL A   1      34.791 -35.989 -29.086  0.00  0.00    -0.049 A 
ATOM     43  C   UNL A   1      36.119 -36.247 -29.513  0.00  0.00    +0.022 A 
ATOM     44  C   UNL A   1      40.156 -37.287 -30.438  0.00  0.00    -0.010 C 
ATOM     45  C   UNL A   1      40.889 -36.336 -31.377  0.00  0.00    -0.047 C 
ATOM     46  C   UNL A   1      40.034 -36.064 -32.605  0.00  0.00    -0.049 C 
ATOM     47  C   UNL A   1      38.723 -35.387 -32.208  0.00  0.00    -0.024 C 
ENDBRANCH  31  33
ENDBRANCH  30  31
ENDBRANCH  29  30
ENDBRANCH  28  29
ENDBRANCH  27  28
ENDBRANCH   3  27
TORSDOF 12
ENDMDL
MODEL 2
REMARK VINA RESULT:    -7.871      1.675      2.902
REMARK INTER + INTRA:         -17.368
REMARK INTER:                 -12.969
REMARK INTRA:                  -4.400
REMARK UNBOUND:                -3.976
REMARK  Name = cpd177.pdb
REMARK  14 active torsions:
REMARK  status: ('A' for Active; 'I' for Inactive)
REMARK    1  A    between atoms: C_1  and  C_2
REMARK    2  A    between atoms: C_6  and  N_7
REMARK    3  A    between atoms: N_7  and  C_8
REMARK    4  A    between atoms: C_13  and  C_14
REMARK    5  A    between atoms: N_16  and  C_17
REMARK    6  A    between atoms: C_17  and  C_18
REMARK    7  A    between atoms: C_18  and  C_19
REMARK    8  A    between atoms: N_21  and  C_22
REMARK    9  A    between atoms: C_22  and  C_23
REMARK   10  A    between atoms: C_23  and  C_24
REMARK   11  A    between atoms: C_24  and  C_25
REMARK   12  A    between atoms: C_25  and  N_26
REMARK   13  A    between atoms: N_26  and  C_27
REMARK   14  A    between atoms: C_42  and  C_43
REMARK                            x       y       z     vdW  Elec       q    Type
REMARK                         _______ _______ _______ _____ _____    ______ ____
ROOT
ATOM      1  C   UNL A   1      31.645 -35.242 -31.443  0.00  0.00    +0.215 C 
ATOM      2  O   UNL A   1      32.288 -35.458 -32.465  0.00  0.00    -0.276 OA
ATOM      3  N   UNL A   1      31.643 -34.037 -30.777  0.00  0.00    -0.315 N 
ATOM      4  H   UNL A   1      31.112 -33.951 -29.953  0.00  0.00    +0.000 HD
ENDROOT
BRANCH   1   5
ATOM      5  C   UNL A   1      30.737 -36.283 -30.835  0.00  0.00    +0.039 C 
BRANCH   5   6
ATOM      6  C   UNL A   1      31.134 -37.654 -31.351  0.00  0.00    +0.020 C 
BRANCH   6   9
ATOM      7  C   UNL A   1      32.661 -39.482 -30.768  0.00  0.00    +0.246 C 
ATOM      8  O   UNL A   1      31.875 -40.340 -31.159  0.00  0.00    -0.270 OA
ATOM      9  N   UNL A   1      32.361 -38.132 -30.738  0.00  0.00    -0.311 N 
ATOM     10  H   UNL A   1      32.976 -37.498 -30.304  0.00  0.00    +0.000 HD
BRANCH   7  16
ATOM     11  C   UNL A   1      34.240 -40.656 -29.205  0.00  0.00    +0.044 A 
ATOM     12  C   UNL A   1      35.553 -41.058 -28.907  0.00  0.00    -0.040 A 
ATOM     13  C   UNL A   1      36.639 -40.614 -29.667  0.00  0.00    -0.060 A 
ATOM     14  C   UNL A   1      36.432 -39.778 -30.760  0.00  0.00    -0.061 A 
ATOM     15  C   UNL A   1      35.136 -39.406 -31.112  0.00  0.00    -0.048 A 
ATOM     16  C   UNL A   1      34.041 -39.863 -30.357  0.00  0.00    +0.058 A 
BRANCH  11  17
ATOM     17  N   UNL A   1      33.138 -41.174 -28.470  0.00  0.00    -0.314 N 
ATOM     18  H   UNL A   1      32.484 -40.510 -28.152  0.00  0.00    +0.000 HD
BRANCH  17  24
ATOM     19  C   UNL A   1      33.314 -44.919 -25.165  0.00  0.00    -0.039 C 
ATOM     20  C   UNL A   1      33.005 -44.368 -26.531  0.00  0.00    -0.046 A 
ATOM     21  C   UNL A   1      32.554 -45.248 -27.526  0.00  0.00    -0.058 A 
ATOM     22  C   UNL A   1      32.285 -44.789 -28.812  0.00  0.00    -0.060 A 
ATOM     23  C   UNL A   1      32.456 -43.442 -29.118  0.00  0.00    -0.040 A 
ATOM     24  C   UNL A   1      32.859 -42.526 -28.135  0.00  0.00    +0.035 A 
ATOM     25  C   UNL A   1      33.148 -42.992 -26.830  0.00  0.00    -0.026 A 
ATOM     26  C   UNL A   1      33.657 -42.025 -25.787  0.00  0.00    -0.038 C 
ENDBRANCH  17  24
ENDBRANCH  11  17
ENDBRANCH   7  16
ENDBRANCH   6   9
ENDBRANCH   5   6
ENDBRANCH   1   5
BRANCH   3  27
ATOM     27  C   UNL A   1      32.394 -32.890 -31.246  0.00  0.00    +0.012 C 
BRANCH  27  28
ATOM     28  C   UNL A   1      33.752 -32.752 -30.560  0.00  0.00    -0.036 C 
BRANCH  28  29
ATOM     29  C   UNL A   1      34.914 -32.627 -31.548  0.00  0.00    -0.036 C 
BRANCH  29  30
ATOM     30  C   UNL A   1      36.164 -33.334 -31.024  0.00  0.00    +0.009 C 
BRANCH  30  31
ATOM     31  N   UNL A   1      36.177 -34.716 -31.521  0.00  0.00    -0.343 N 
ATOM     32  H   UNL A   1      35.736 -35.009 -32.351  0.00  0.00    +0.000 HD
BRANCH  31  33
ATOM     33  C   UNL A   1      36.905 -35.583 -30.654  0.00  0.00    +0.041 A 
ATOM     34  C   UNL A   1      38.232 -35.913 -30.996  0.00  0.00    -0.005 A 
ATOM     35  C   UNL A   1      38.919 -36.791 -30.158  0.00  0.00    +0.047 A 
ATOM     36  N   UNL A   1      38.354 -37.371 -29.072  0.00  0.00    -0.251 NA
ATOM     37  C   UNL A   1      37.089 -37.072 -28.756  0.00  0.00    +0.074 A 
ATOM     38  C   UNL A   1      36.547 -37.681 -27.634  0.00  0.00    -0.017 A 
ATOM     39  C   UNL A   1      35.239 -37.429 -27.233  0.00  0.00    +0.043 A 
ATOM     40 CL   UNL A   1      34.603 -38.208 -25.838  0.00  0.00    -0.083 Cl
ATOM     41  C   UNL A   1      34.443 -36.553 -27.955  0.00  0.00    -0.043 A 
ATOM     42  C   UNL A   1      34.970 -35.931 -29.086  0.00  0.00    -0.049 A 
ATOM     43  C   UNL A   1      36.300 -36.179 -29.511  0.00  0.00    +0.022 A 
ATOM     44  C   UNL A   1      40.341 -37.202 -30.438  0.00  0.00    -0.010 C 
ATOM     45  C   UNL A   1      41.084 -36.224 -31.341  0.00  0.00    -0.047 C 
ATOM     46  C   UNL A   1      40.239 -35.911 -32.567  0.00  0.00    -0.049 C 
ATOM     47  C   UNL A   1      38.927 -35.243 -32.159  0.00  0.00    -0.024 C 
ENDBRANCH  31  33
ENDBRANCH  30  31
ENDBRANCH  29  30
ENDBRANCH  28  29
ENDBRANCH  27  28
ENDBRANCH   3  27
TORSDOF 12
ENDMDL
MODEL 3
REMARK VINA RESULT:    -7.555     18.411     22.072
REMARK INTER + INTRA:         -16.831
REMARK INTER:                 -12.017
REMARK INTRA:                  -4.814
REMARK UNBOUND:                -3.976
REMARK  Name = cpd177.pdb
REMARK  14 active torsions:
REMARK  status: ('A' for Active; 'I' for Inactive)
REMARK    1  A    between atoms: C_1  and  C_2
REMARK    2  A    between atoms: C_6  and  N_7
REMARK    3  A    between atoms: N_7  and  C_8
REMARK    4  A    between atoms: C_13  and  C_14
REMARK    5  A    between atoms: N_16  and  C_17
REMARK    6  A    between atoms: C_17  and  C_18
REMARK    7  A    between atoms: C_18  and  C_19
REMARK    8  A    between atoms: N_21  and  C_22
REMARK    9  A    between atoms: C_22  and  C_23
REMARK   10  A    between atoms: C_23  and  C_24
REMARK   11  A    between atoms: C_24  and  C_25
REMARK   12  A    between atoms: C_25  and  N_26
REMARK   13  A    between atoms: N_26  and  C_27
REMARK   14  A    between atoms: C_42  and  C_43
REMARK                            x       y       z     vdW  Elec       q    Type
REMARK                         _______ _______ _______ _____ _____    ______ ____
ROOT
ATOM      1  C   UNL A   1      43.335 -16.222 -35.267  0.00  0.00    +0.215 C 
ATOM      2  O   UNL A   1      42.465 -17.016 -34.925  0.00  0.00    -0.276 OA
ATOM      3  N   UNL A   1      44.590 -16.169 -34.705  0.00  0.00    -0.315 N 
ATOM      4  H   UNL A   1      45.225 -15.488 -35.026  0.00  0.00    +0.000 HD
ENDROOT
BRANCH   1   5
ATOM      5  C   UNL A   1      43.122 -15.241 -36.395  0.00  0.00    +0.039 C 
BRANCH   5   6
ATOM      6  C   UNL A   1      43.590 -15.866 -37.696  0.00  0.00    +0.020 C 
BRANCH   6   9
ATOM      7  C   UNL A   1      42.256 -17.827 -38.317  0.00  0.00    +0.246 C 
ATOM      8  O   UNL A   1      41.325 -17.137 -38.721  0.00  0.00    -0.270 OA
ATOM      9  N   UNL A   1      43.386 -17.304 -37.713  0.00  0.00    -0.311 N 
ATOM     10  H   UNL A   1      44.047 -17.902 -37.297  0.00  0.00    +0.000 HD
BRANCH   7  16
ATOM     11  C   UNL A   1      41.875 -20.159 -37.462  0.00  0.00    +0.044 A 
ATOM     12  C   UNL A   1      41.793 -21.535 -37.732  0.00  0.00    -0.040 A 
ATOM     13  C   UNL A   1      42.151 -22.054 -38.981  0.00  0.00    -0.060 A 
ATOM     14  C   UNL A   1      42.572 -21.201 -39.997  0.00  0.00    -0.061 A 
ATOM     15  C   UNL A   1      42.612 -19.826 -39.774  0.00  0.00    -0.048 A 
ATOM     16  C   UNL A   1      42.239 -19.301 -38.524  0.00  0.00    +0.058 A 
BRANCH  11  17
ATOM     17  N   UNL A   1      41.437 -19.637 -36.214  0.00  0.00    -0.314 N 
ATOM     18  H   UNL A   1      41.425 -18.655 -36.140  0.00  0.00    +0.000 HD
BRANCH  17  24
ATOM     19  C   UNL A   1      37.740 -21.400 -33.349  0.00  0.00    -0.039 C 
ATOM     20  C   UNL A   1      39.197 -21.156 -33.633  0.00  0.00    -0.046 A 
ATOM     21  C   UNL A   1      40.144 -21.531 -32.668  0.00  0.00    -0.058 A 
ATOM     22  C   UNL A   1      41.500 -21.297 -32.873  0.00  0.00    -0.060 A 
ATOM     23  C   UNL A   1      41.930 -20.693 -34.052  0.00  0.00    -0.040 A 
ATOM     24  C   UNL A   1      41.016 -20.350 -35.059  0.00  0.00    +0.035 A 
ATOM     25  C   UNL A   1      39.634 -20.572 -34.847  0.00  0.00    -0.026 A 
ATOM     26  C   UNL A   1      38.636 -20.135 -35.894  0.00  0.00    -0.038 C 
ENDBRANCH  17  24
ENDBRANCH  11  17
ENDBRANCH   7  16
ENDBRANCH   6   9
ENDBRANCH   5   6
ENDBRANCH   1   5
BRANCH   3  27
ATOM     27  C   UNL A   1      45.011 -17.077 -33.658  0.00  0.00    +0.012 C 
BRANCH  27  28
ATOM     28  C   UNL A   1      46.009 -18.123 -34.149  0.00  0.00    -0.036 C 
BRANCH  28  29
ATOM     29  C   UNL A   1      45.343 -19.424 -34.604  0.00  0.00    -0.036 C 
BRANCH  29  30
ATOM     30  C   UNL A   1      45.354 -19.548 -36.127  0.00  0.00    +0.009 C 
BRANCH  30  31
ATOM     31  N   UNL A   1      46.737 -19.439 -36.608  0.00  0.00    -0.343 N 
ATOM     32  H   UNL A   1      47.529 -19.650 -36.063  0.00  0.00    +0.000 HD
BRANCH  31  33
ATOM     33  C   UNL A   1      46.794 -18.990 -37.961  0.00  0.00    +0.041 A 
ATOM     34  C   UNL A   1      47.035 -17.623 -38.204  0.00  0.00    -0.005 A 
ATOM     35  C   UNL A   1      47.050 -17.192 -39.530  0.00  0.00    +0.047 A 
ATOM     36  N   UNL A   1      46.796 -18.014 -40.576  0.00  0.00    -0.251 NA
ATOM     37  C   UNL A   1      46.550 -19.308 -40.346  0.00  0.00    +0.074 A 
ATOM     38  C   UNL A   1      46.300 -20.119 -41.443  0.00  0.00    -0.017 A 
ATOM     39  C   UNL A   1      46.034 -21.477 -41.296  0.00  0.00    +0.043 A 
ATOM     40 CL   UNL A   1      45.725 -22.447 -42.682  0.00  0.00    -0.083 Cl
ATOM     41  C   UNL A   1      46.014 -22.052 -40.034  0.00  0.00    -0.043 A 
ATOM     42  C   UNL A   1      46.263 -21.254 -38.919  0.00  0.00    -0.049 A 
ATOM     43  C   UNL A   1      46.533 -19.868 -39.051  0.00  0.00    +0.022 A 
ATOM     44  C   UNL A   1      47.301 -15.751 -39.891  0.00  0.00    -0.010 C 
ATOM     45  C   UNL A   1      48.024 -14.974 -38.797  0.00  0.00    -0.047 C 
ATOM     46  C   UNL A   1      47.334 -15.203 -37.461  0.00  0.00    -0.049 C 
ATOM     47  C   UNL A   1      47.387 -16.681 -37.076  0.00  0.00    -0.024 C 
ENDBRANCH  31  33
ENDBRANCH  30  31
ENDBRANCH  29  30
ENDBRANCH  28  29
ENDBRANCH  27  28
ENDBRANCH   3  27
TORSDOF 12
ENDMDL
MODEL 4
REMARK VINA RESULT:    -7.438     16.624     20.898
REMARK INTER + INTRA:         -16.632
REMARK INTER:                 -11.603
REMARK INTRA:                  -5.029
REMARK UNBOUND:                -3.976
REMARK  Name = cpd177.pdb
REMARK  14 active torsions:
REMARK  status: ('A' for Active; 'I' for Inactive)
REMARK    1  A    between atoms: C_1  and  C_2
REMARK    2  A    between atoms: C_6  and  N_7
REMARK    3  A    between atoms: N_7  and  C_8
REMARK    4  A    between atoms: C_13  and  C_14
REMARK    5  A    between atoms: N_16  and  C_17
REMARK    6  A    between atoms: C_17  and  C_18
REMARK    7  A    between atoms: C_18  and  C_19
REMARK    8  A    between atoms: N_21  and  C_22
REMARK    9  A    between atoms: C_22  and  C_23
REMARK   10  A    between atoms: C_23  and  C_24
REMARK   11  A    between atoms: C_24  and  C_25
REMARK   12  A    between atoms: C_25  and  N_26
REMARK   13  A    between atoms: N_26  and  C_27
REMARK   14  A    between atoms: C_42  and  C_43
REMARK                            x       y       z     vdW  Elec       q    Type
REMARK                         _______ _______ _______ _____ _____    ______ ____
ROOT
ATOM      1  C   UNL A   1      45.823 -17.270 -36.446  0.00  0.00    +0.215 C 
ATOM      2  O   UNL A   1      44.946 -16.631 -35.875  0.00  0.00    -0.276 OA
ATOM      3  N   UNL A   1      46.380 -18.426 -35.948  0.00  0.00    -0.315 N 
ATOM      4  H   UNL A   1      47.093 -18.869 -36.462  0.00  0.00    +0.000 HD
ENDROOT
BRANCH   1   5
ATOM      5  C   UNL A   1      46.352 -16.865 -37.801  0.00  0.00    +0.039 C 
BRANCH   5   6
ATOM      6  C   UNL A   1      47.126 -18.024 -38.402  0.00  0.00    +0.020 C 
BRANCH   6   9
ATOM      7  C   UNL A   1      45.850 -19.982 -39.141  0.00  0.00    +0.246 C 
ATOM      8  O   UNL A   1      46.133 -20.620 -38.131  0.00  0.00    -0.270 OA
ATOM      9  N   UNL A   1      46.357 -18.725 -39.415  0.00  0.00    -0.311 N 
ATOM     10  H   UNL A   1      46.198 -18.307 -40.292  0.00  0.00    +0.000 HD
BRANCH   7  16
ATOM     11  C   UNL A   1      43.624 -21.025 -39.663  0.00  0.00    +0.044 A 
ATOM     12  C   UNL A   1      42.696 -21.449 -40.629  0.00  0.00    -0.040 A 
ATOM     13  C   UNL A   1      43.020 -21.466 -41.989  0.00  0.00    -0.060 A 
ATOM     14  C   UNL A   1      44.273 -21.032 -42.415  0.00  0.00    -0.061 A 
ATOM     15  C   UNL A   1      45.194 -20.557 -41.483  0.00  0.00    -0.048 A 
ATOM     16  C   UNL A   1      44.865 -20.526 -40.117  0.00  0.00    +0.058 A 
BRANCH  11  17
ATOM     17  N   UNL A   1      43.256 -20.942 -38.291  0.00  0.00    -0.314 N 
ATOM     18  H   UNL A   1      43.992 -21.034 -37.643  0.00  0.00    +0.000 HD
BRANCH  17  24
ATOM     19  C   UNL A   1      39.861 -17.891 -36.255  0.00  0.00    -0.039 C 
ATOM     20  C   UNL A   1      40.332 -19.254 -36.684  0.00  0.00    -0.046 A 
ATOM     21  C   UNL A   1      39.521 -20.365 -36.407  0.00  0.00    -0.058 A 
ATOM     22  C   UNL A   1      39.929 -21.649 -36.758  0.00  0.00    -0.060 A 
ATOM     23  C   UNL A   1      41.150 -21.837 -37.399  0.00  0.00    -0.040 A 
ATOM     24  C   UNL A   1      41.963 -20.745 -37.735  0.00  0.00    +0.035 A 
ATOM     25  C   UNL A   1      41.559 -19.440 -37.366  0.00  0.00    -0.026 A 
ATOM     26  C   UNL A   1      42.464 -18.266 -37.655  0.00  0.00    -0.038 C 
ENDBRANCH  17  24
ENDBRANCH  11  17
ENDBRANCH   7  16
ENDBRANCH   6   9
ENDBRANCH   5   6
ENDBRANCH   1   5
BRANCH   3  27
ATOM     27  C   UNL A   1      45.954 -19.015 -34.695  0.00  0.00    +0.012 C 
BRANCH  27  28
ATOM     28  C   UNL A   1      44.802 -20.004 -34.868  0.00  0.00    -0.036 C 
BRANCH  28  29
ATOM     29  C   UNL A   1      43.513 -19.551 -34.179  0.00  0.00    -0.036 C 
BRANCH  29  30
ATOM     30  C   UNL A   1      42.523 -20.708 -34.043  0.00  0.00    +0.009 C 
BRANCH  30  31
ATOM     31  N   UNL A   1      41.915 -20.664 -32.706  0.00  0.00    -0.343 N 
ATOM     32  H   UNL A   1      42.413 -20.799 -31.869  0.00  0.00    +0.000 HD
BRANCH  31  33
ATOM     33  C   UNL A   1      40.514 -20.403 -32.771  0.00  0.00    +0.041 A 
ATOM     34  C   UNL A   1      39.644 -21.477 -33.045  0.00  0.00    -0.005 A 
ATOM     35  C   UNL A   1      38.281 -21.199 -33.142  0.00  0.00    +0.047 A 
ATOM     36  N   UNL A   1      37.772 -19.949 -33.034  0.00  0.00    -0.251 NA
ATOM     37  C   UNL A   1      38.599 -18.926 -32.791  0.00  0.00    +0.074 A 
ATOM     38  C   UNL A   1      38.040 -17.662 -32.682  0.00  0.00    -0.017 A 
ATOM     39  C   UNL A   1      38.826 -16.541 -32.432  0.00  0.00    +0.043 A 
ATOM     40 CL   UNL A   1      38.094 -14.989 -32.307  0.00  0.00    -0.083 Cl
ATOM     41  C   UNL A   1      40.199 -16.669 -32.283  0.00  0.00    -0.043 A 
ATOM     42  C   UNL A   1      40.779 -17.932 -32.389  0.00  0.00    -0.049 A 
ATOM     43  C   UNL A   1      39.993 -19.084 -32.647  0.00  0.00    +0.022 A 
ATOM     44  C   UNL A   1      37.271 -22.281 -33.429  0.00  0.00    -0.010 C 
ATOM     45  C   UNL A   1      37.773 -23.679 -33.087  0.00  0.00    -0.047 C 
ATOM     46  C   UNL A   1      39.153 -23.893 -33.691  0.00  0.00    -0.049 C 
ATOM     47  C   UNL A   1      40.155 -22.898 -33.109  0.00  0.00    -0.024 C 
ENDBRANCH  31  33
ENDBRANCH  30  31
ENDBRANCH  29  30
ENDBRANCH  28  29
ENDBRANCH  27  28
ENDBRANCH   3  27
TORSDOF 12
ENDMDL
MODEL 5
REMARK VINA RESULT:    -7.362     19.191     23.084
REMARK INTER + INTRA:         -16.503
REMARK INTER:                 -11.137
REMARK INTRA:                  -5.365
REMARK UNBOUND:                -3.976
REMARK  Name = cpd177.pdb
REMARK  14 active torsions:
REMARK  status: ('A' for Active; 'I' for Inactive)
REMARK    1  A    between atoms: C_1  and  C_2
REMARK    2  A    between atoms: C_6  and  N_7
REMARK    3  A    between atoms: N_7  and  C_8
REMARK    4  A    between atoms: C_13  and  C_14
REMARK    5  A    between atoms: N_16  and  C_17
REMARK    6  A    between atoms: C_17  and  C_18
REMARK    7  A    between atoms: C_18  and  C_19
REMARK    8  A    between atoms: N_21  and  C_22
REMARK    9  A    between atoms: C_22  and  C_23
REMARK   10  A    between atoms: C_23  and  C_24
REMARK   11  A    between atoms: C_24  and  C_25
REMARK   12  A    between atoms: C_25  and  N_26
REMARK   13  A    between atoms: N_26  and  C_27
REMARK   14  A    between atoms: C_42  and  C_43
REMARK                            x       y       z     vdW  Elec       q    Type
REMARK                         _______ _______ _______ _____ _____    ______ ____
ROOT
ATOM      1  C   UNL A   1      44.123 -18.930 -34.816  0.00  0.00    +0.215 C 
ATOM      2  O   UNL A   1      43.869 -19.196 -35.986  0.00  0.00    -0.276 OA
ATOM      3  N   UNL A   1      45.294 -19.284 -34.185  0.00  0.00    -0.315 N 
ATOM      4  H   UNL A   1      45.413 -19.047 -33.237  0.00  0.00    +0.000 HD
ENDROOT
BRANCH   1   5
ATOM      5  C   UNL A   1      43.177 -18.128 -33.955  0.00  0.00    +0.039 C 
BRANCH   5   6
ATOM      6  C   UNL A   1      43.237 -16.670 -34.371  0.00  0.00    +0.020 C 
BRANCH   6   9
ATOM      7  C   UNL A   1      42.792 -16.081 -36.709  0.00  0.00    +0.246 C 
ATOM      8  O   UNL A   1      43.983 -15.910 -36.952  0.00  0.00    -0.270 OA
ATOM      9  N   UNL A   1      42.307 -16.373 -35.447  0.00  0.00    -0.311 N 
ATOM     10  H   UNL A   1      41.337 -16.380 -35.279  0.00  0.00    +0.000 HD
BRANCH   7  16
ATOM     11  C   UNL A   1      41.583 -17.186 -38.615  0.00  0.00    +0.044 A 
ATOM     12  C   UNL A   1      40.570 -17.126 -39.586  0.00  0.00    -0.040 A 
ATOM     13  C   UNL A   1      39.851 -15.949 -39.816  0.00  0.00    -0.060 A 
ATOM     14  C   UNL A   1      40.114 -14.811 -39.059  0.00  0.00    -0.061 A 
ATOM     15  C   UNL A   1      41.078 -14.856 -38.053  0.00  0.00    -0.048 A 
ATOM     16  C   UNL A   1      41.791 -16.043 -37.811  0.00  0.00    +0.058 A 
BRANCH  11  17
ATOM     17  N   UNL A   1      42.254 -18.409 -38.340  0.00  0.00    -0.314 N 
ATOM     18  H   UNL A   1      43.102 -18.332 -37.846  0.00  0.00    +0.000 HD
BRANCH  17  24
ATOM     19  C   UNL A   1      39.786 -22.604 -37.203  0.00  0.00    -0.039 C 
ATOM     20  C   UNL A   1      40.696 -21.799 -38.091  0.00  0.00    -0.046 A 
ATOM     21  C   UNL A   1      41.262 -22.419 -39.215  0.00  0.00    -0.058 A 
ATOM     22  C   UNL A   1      42.133 -21.724 -40.048  0.00  0.00    -0.060 A 
ATOM     23  C   UNL A   1      42.443 -20.395 -39.773  0.00  0.00    -0.040 A 
ATOM     24  C   UNL A   1      41.857 -19.729 -38.686  0.00  0.00    +0.035 A 
ATOM     25  C   UNL A   1      40.983 -20.438 -37.828  0.00  0.00    -0.026 A 
ATOM     26  C   UNL A   1      40.409 -19.751 -36.611  0.00  0.00    -0.038 C 
ENDBRANCH  17  24
ENDBRANCH  11  17
ENDBRANCH   7  16
ENDBRANCH   6   9
ENDBRANCH   5   6
ENDBRANCH   1   5
BRANCH   3  27
ATOM     27  C   UNL A   1      46.358 -19.994 -34.865  0.00  0.00    +0.012 C 
BRANCH  27  28
ATOM     28  C   UNL A   1      47.375 -19.056 -35.512  0.00  0.00    -0.036 C 
BRANCH  28  29
ATOM     29  C   UNL A   1      47.572 -19.320 -37.006  0.00  0.00    -0.036 C 
BRANCH  29  30
ATOM     30  C   UNL A   1      46.737 -18.359 -37.853  0.00  0.00    +0.009 C 
BRANCH  30  31
ATOM     31  N   UNL A   1      47.291 -18.312 -39.212  0.00  0.00    -0.343 N 
ATOM     32  H   UNL A   1      48.243 -18.166 -39.415  0.00  0.00    +0.000 HD
BRANCH  31  33
ATOM     33  C   UNL A   1      46.282 -18.503 -40.202  0.00  0.00    +0.041 A 
ATOM     34  C   UNL A   1      46.247 -19.730 -40.895  0.00  0.00    -0.005 A 
ATOM     35  C   UNL A   1      45.278 -19.888 -41.885  0.00  0.00    +0.047 A 
ATOM     36  N   UNL A   1      44.415 -18.906 -42.237  0.00  0.00    -0.251 NA
ATOM     37  C   UNL A   1      44.459 -17.735 -41.592  0.00  0.00    +0.074 A 
ATOM     38  C   UNL A   1      43.555 -16.756 -41.977  0.00  0.00    -0.017 A 
ATOM     39  C   UNL A   1      43.531 -15.509 -41.361  0.00  0.00    +0.043 A 
ATOM     40 CL   UNL A   1      42.396 -14.321 -41.872  0.00  0.00    -0.083 Cl
ATOM     41  C   UNL A   1      44.420 -15.218 -40.338  0.00  0.00    -0.043 A 
ATOM     42  C   UNL A   1      45.336 -16.189 -39.936  0.00  0.00    -0.049 A 
ATOM     43  C   UNL A   1      45.376 -17.464 -40.555  0.00  0.00    +0.022 A 
ATOM     44  C   UNL A   1      45.159 -21.163 -42.679  0.00  0.00    -0.010 C 
ATOM     45  C   UNL A   1      45.785 -22.366 -41.983  0.00  0.00    -0.047 C 
ATOM     46  C   UNL A   1      47.188 -22.017 -41.512  0.00  0.00    -0.049 C 
ATOM     47  C   UNL A   1      47.145 -20.878 -40.494  0.00  0.00    -0.024 C 
ENDBRANCH  31  33
ENDBRANCH  30  31
ENDBRANCH  29  30
ENDBRANCH  28  29
ENDBRANCH  27  28
ENDBRANCH   3  27
TORSDOF 12
ENDMDL
MODEL 6
REMARK VINA RESULT:    -7.358     17.513     21.577
REMARK INTER + INTRA:         -16.495
REMARK INTER:                 -12.363
REMARK INTRA:                  -4.132
REMARK UNBOUND:                -3.976
REMARK  Name = cpd177.pdb
REMARK  14 active torsions:
REMARK  status: ('A' for Active; 'I' for Inactive)
REMARK    1  A    between atoms: C_1  and  C_2
REMARK    2  A    between atoms: C_6  and  N_7
REMARK    3  A    between atoms: N_7  and  C_8
REMARK    4  A    between atoms: C_13  and  C_14
REMARK    5  A    between atoms: N_16  and  C_17
REMARK    6  A    between atoms: C_17  and  C_18
REMARK    7  A    between atoms: C_18  and  C_19
REMARK    8  A    between atoms: N_21  and  C_22
REMARK    9  A    between atoms: C_22  and  C_23
REMARK   10  A    between atoms: C_23  and  C_24
REMARK   11  A    between atoms: C_24  and  C_25
REMARK   12  A    between atoms: C_25  and  N_26
REMARK   13  A    between atoms: N_26  and  C_27
REMARK   14  A    between atoms: C_42  and  C_43
REMARK                            x       y       z     vdW  Elec       q    Type
REMARK                         _______ _______ _______ _____ _____    ______ ____
ROOT
ATOM      1  C   UNL A   1      43.162 -16.266 -38.743  0.00  0.00    +0.215 C 
ATOM      2  O   UNL A   1      42.363 -16.687 -39.573  0.00  0.00    -0.276 OA
ATOM      3  N   UNL A   1      42.838 -15.999 -37.432  0.00  0.00    -0.315 N 
ATOM      4  H   UNL A   1      43.536 -15.647 -36.834  0.00  0.00    +0.000 HD
ENDROOT
BRANCH   1   5
ATOM      5  C   UNL A   1      44.617 -16.043 -39.077  0.00  0.00    +0.039 C 
BRANCH   5   6
ATOM      6  C   UNL A   1      44.852 -16.376 -40.539  0.00  0.00    +0.020 C 
BRANCH   6   9
ATOM      7  C   UNL A   1      46.376 -18.293 -40.656  0.00  0.00    +0.246 C 
ATOM      8  O   UNL A   1      47.371 -17.581 -40.559  0.00  0.00    -0.270 OA
ATOM      9  N   UNL A   1      45.088 -17.794 -40.742  0.00  0.00    -0.311 N 
ATOM     10  H   UNL A   1      44.336 -18.398 -40.941  0.00  0.00    +0.000 HD
BRANCH   7  16
ATOM     11  C   UNL A   1      46.959 -20.413 -39.439  0.00  0.00    +0.044 A 
ATOM     12  C   UNL A   1      46.989 -21.818 -39.427  0.00  0.00    -0.040 A 
ATOM     13  C   UNL A   1      46.676 -22.562 -40.569  0.00  0.00    -0.060 A 
ATOM     14  C   UNL A   1      46.300 -21.915 -41.743  0.00  0.00    -0.061 A 
ATOM     15  C   UNL A   1      46.211 -20.524 -41.769  0.00  0.00    -0.048 A 
ATOM     16  C   UNL A   1      46.510 -19.776 -40.618  0.00  0.00    +0.058 A 
BRANCH  11  17
ATOM     17  N   UNL A   1      47.206 -19.672 -38.251  0.00  0.00    -0.314 N 
ATOM     18  H   UNL A   1      48.147 -19.441 -38.077  0.00  0.00    +0.000 HD
BRANCH  17  24
ATOM     19  C   UNL A   1      46.272 -17.589 -33.805  0.00  0.00    -0.039 C 
ATOM     20  C   UNL A   1      45.825 -18.257 -35.077  0.00  0.00    -0.046 A 
ATOM     21  C   UNL A   1      44.464 -18.552 -35.241  0.00  0.00    -0.058 A 
ATOM     22  C   UNL A   1      44.009 -19.196 -36.388  0.00  0.00    -0.060 A 
ATOM     23  C   UNL A   1      44.909 -19.546 -37.391  0.00  0.00    -0.040 A 
ATOM     24  C   UNL A   1      46.269 -19.222 -37.282  0.00  0.00    +0.035 A 
ATOM     25  C   UNL A   1      46.738 -18.581 -36.110  0.00  0.00    -0.026 A 
ATOM     26  C   UNL A   1      48.213 -18.298 -35.951  0.00  0.00    -0.038 C 
ENDBRANCH  17  24
ENDBRANCH  11  17
ENDBRANCH   7  16
ENDBRANCH   6   9
ENDBRANCH   5   6
ENDBRANCH   1   5
BRANCH   3  27
ATOM     27  C   UNL A   1      41.509 -16.219 -36.901  0.00  0.00    +0.012 C 
BRANCH  27  28
ATOM     28  C   UNL A   1      41.497 -16.362 -35.380  0.00  0.00    -0.036 C 
BRANCH  28  29
ATOM     29  C   UNL A   1      40.271 -17.114 -34.857  0.00  0.00    -0.036 C 
BRANCH  29  30
ATOM     30  C   UNL A   1      40.440 -18.625 -35.012  0.00  0.00    +0.009 C 
BRANCH  30  31
ATOM     31  N   UNL A   1      39.539 -19.103 -36.069  0.00  0.00    -0.343 N 
ATOM     32  H   UNL A   1      38.881 -18.536 -36.531  0.00  0.00    +0.000 HD
BRANCH  31  33
ATOM     33  C   UNL A   1      39.734 -20.489 -36.344  0.00  0.00    +0.041 A 
ATOM     34  C   UNL A   1      40.485 -20.848 -37.481  0.00  0.00    -0.005 A 
ATOM     35  C   UNL A   1      40.635 -22.206 -37.757  0.00  0.00    +0.047 A 
ATOM     36  N   UNL A   1      40.055 -23.180 -37.015  0.00  0.00    -0.251 NA
ATOM     37  C   UNL A   1      39.327 -22.839 -35.945  0.00  0.00    +0.074 A 
ATOM     38  C   UNL A   1      38.754 -23.864 -35.208  0.00  0.00    -0.017 A 
ATOM     39  C   UNL A   1      37.980 -23.602 -34.081  0.00  0.00    +0.043 A 
ATOM     40 CL   UNL A   1      37.283 -24.901 -33.196  0.00  0.00    -0.083 Cl
ATOM     41  C   UNL A   1      37.767 -22.295 -33.669  0.00  0.00    -0.043 A 
ATOM     42  C   UNL A   1      38.336 -21.251 -34.397  0.00  0.00    -0.049 A 
ATOM     43  C   UNL A   1      39.124 -21.501 -35.550  0.00  0.00    +0.022 A 
ATOM     44  C   UNL A   1      41.422 -22.690 -38.948  0.00  0.00    -0.010 C 
ATOM     45  C   UNL A   1      42.418 -21.660 -39.469  0.00  0.00    -0.047 C 
ATOM     46  C   UNL A   1      41.726 -20.316 -39.643  0.00  0.00    -0.049 C 
ATOM     47  C   UNL A   1      41.206 -19.803 -38.301  0.00  0.00    -0.024 C 
ENDBRANCH  31  33
ENDBRANCH  30  31
ENDBRANCH  29  30
ENDBRANCH  28  29
ENDBRANCH  27  28
ENDBRANCH   3  27
TORSDOF 12
ENDMDL
MODEL 7
REMARK VINA RESULT:    -7.337     16.725     21.023
REMARK INTER + INTRA:         -16.460
REMARK INTER:                 -11.807
REMARK INTRA:                  -4.654
REMARK UNBOUND:                -3.976
REMARK  Name = cpd177.pdb
REMARK  14 active torsions:
REMARK  status: ('A' for Active; 'I' for Inactive)
REMARK    1  A    between atoms: C_1  and  C_2
REMARK    2  A    between atoms: C_6  and  N_7
REMARK    3  A    between atoms: N_7  and  C_8
REMARK    4  A    between atoms: C_13  and  C_14
REMARK    5  A    between atoms: N_16  and  C_17
REMARK    6  A    between atoms: C_17  and  C_18
REMARK    7  A    between atoms: C_18  and  C_19
REMARK    8  A    between atoms: N_21  and  C_22
REMARK    9  A    between atoms: C_22  and  C_23
REMARK   10  A    between atoms: C_23  and  C_24
REMARK   11  A    between atoms: C_24  and  C_25
REMARK   12  A    between atoms: C_25  and  N_26
REMARK   13  A    between atoms: N_26  and  C_27
REMARK   14  A    between atoms: C_42  and  C_43
REMARK                            x       y       z     vdW  Elec       q    Type
REMARK                         _______ _______ _______ _____ _____    ______ ____
ROOT
ATOM      1  C   UNL A   1      45.921 -18.651 -35.409  0.00  0.00    +0.215 C 
ATOM      2  O   UNL A   1      44.893 -18.425 -36.038  0.00  0.00    -0.276 OA
ATOM      3  N   UNL A   1      46.199 -18.111 -34.173  0.00  0.00    -0.315 N 
ATOM      4  H   UNL A   1      47.057 -18.330 -33.742  0.00  0.00    +0.000 HD
ENDROOT
BRANCH   1   5
ATOM      5  C   UNL A   1      46.978 -19.602 -35.918  0.00  0.00    +0.039 C 
BRANCH   5   6
ATOM      6  C   UNL A   1      47.311 -19.255 -37.357  0.00  0.00    +0.020 C 
BRANCH   6   9
ATOM      7  C   UNL A   1      45.766 -19.296 -39.261  0.00  0.00    +0.246 C 
ATOM      8  O   UNL A   1      45.669 -18.073 -39.282  0.00  0.00    -0.270 OA
ATOM      9  N   UNL A   1      46.481 -19.987 -38.298  0.00  0.00    -0.311 N 
ATOM     10  H   UNL A   1      46.429 -20.969 -38.252  0.00  0.00    +0.000 HD
BRANCH   7  16
ATOM     11  C   UNL A   1      43.812 -20.551 -40.222  0.00  0.00    +0.044 A 
ATOM     12  C   UNL A   1      43.252 -21.248 -41.306  0.00  0.00    -0.040 A 
ATOM     13  C   UNL A   1      44.017 -21.584 -42.427  0.00  0.00    -0.060 A 
ATOM     14  C   UNL A   1      45.354 -21.205 -42.501  0.00  0.00    -0.061 A 
ATOM     15  C   UNL A   1      45.922 -20.466 -41.464  0.00  0.00    -0.048 A 
ATOM     16  C   UNL A   1      45.151 -20.115 -40.342  0.00  0.00    +0.058 A 
BRANCH  11  17
ATOM     17  N   UNL A   1      43.005 -20.151 -39.122  0.00  0.00    -0.314 N 
ATOM     18  H   UNL A   1      43.390 -19.459 -38.537  0.00  0.00    +0.000 HD
BRANCH  17  24
ATOM     19  C   UNL A   1      38.309 -19.190 -37.705  0.00  0.00    -0.039 C 
ATOM     20  C   UNL A   1      39.436 -20.141 -38.005  0.00  0.00    -0.046 A 
ATOM     21  C   UNL A   1      39.235 -21.513 -37.793  0.00  0.00    -0.058 A 
ATOM     22  C   UNL A   1      40.258 -22.426 -38.028  0.00  0.00    -0.060 A 
ATOM     23  C   UNL A   1      41.495 -21.981 -38.487  0.00  0.00    -0.040 A 
ATOM     24  C   UNL A   1      41.715 -20.622 -38.757  0.00  0.00    +0.035 A 
ATOM     25  C   UNL A   1      40.681 -19.688 -38.505  0.00  0.00    -0.026 A 
ATOM     26  C   UNL A   1      40.936 -18.215 -38.719  0.00  0.00    -0.038 C 
ENDBRANCH  17  24
ENDBRANCH  11  17
ENDBRANCH   7  16
ENDBRANCH   6   9
ENDBRANCH   5   6
ENDBRANCH   1   5
BRANCH   3  27
ATOM     27  C   UNL A   1      45.277 -17.232 -33.485  0.00  0.00    +0.012 C 
BRANCH  27  28
ATOM     28  C   UNL A   1      44.546 -17.925 -32.336  0.00  0.00    -0.036 C 
BRANCH  28  29
ATOM     29  C   UNL A   1      43.066 -18.178 -32.631  0.00  0.00    -0.036 C 
BRANCH  29  30
ATOM     30  C   UNL A   1      42.868 -19.495 -33.381  0.00  0.00    +0.009 C 
BRANCH  30  31
ATOM     31  N   UNL A   1      42.187 -19.225 -34.654  0.00  0.00    -0.343 N 
ATOM     32  H   UNL A   1      42.650 -18.980 -35.487  0.00  0.00    +0.000 HD
BRANCH  31  33
ATOM     33  C   UNL A   1      40.772 -19.359 -34.536  0.00  0.00    +0.041 A 
ATOM     34  C   UNL A   1      39.989 -18.189 -34.477  0.00  0.00    -0.005 A 
ATOM     35  C   UNL A   1      38.611 -18.336 -34.324  0.00  0.00    +0.047 A 
ATOM     36  N   UNL A   1      38.008 -19.540 -34.181  0.00  0.00    -0.251 NA
ATOM     37  C   UNL A   1      38.752 -20.652 -34.219  0.00  0.00    +0.074 A 
ATOM     38  C   UNL A   1      38.098 -21.866 -34.074  0.00  0.00    -0.017 A 
ATOM     39  C   UNL A   1      38.793 -23.071 -34.099  0.00  0.00    +0.043 A 
ATOM     40 CL   UNL A   1      37.945 -24.556 -33.912  0.00  0.00    -0.083 Cl
ATOM     41  C   UNL A   1      40.169 -23.081 -34.273  0.00  0.00    -0.043 A 
ATOM     42  C   UNL A   1      40.844 -21.870 -34.421  0.00  0.00    -0.049 A 
ATOM     43  C   UNL A   1      40.152 -20.633 -34.394  0.00  0.00    +0.022 A 
ATOM     44  C   UNL A   1      37.691 -17.145 -34.254  0.00  0.00    -0.010 C 
ATOM     45  C   UNL A   1      38.290 -15.885 -34.867  0.00  0.00    -0.047 C 
ATOM     46  C   UNL A   1      39.692 -15.662 -34.321  0.00  0.00    -0.049 C 
ATOM     47  C   UNL A   1      40.606 -16.827 -34.698  0.00  0.00    -0.024 C 
ENDBRANCH  31  33
ENDBRANCH  30  31
ENDBRANCH  29  30
ENDBRANCH  28  29
ENDBRANCH  27  28
ENDBRANCH   3  27
TORSDOF 12
ENDMDL
MODEL 8
REMARK VINA RESULT:    -7.247     18.372     21.996
REMARK INTER + INTRA:         -16.307
REMARK INTER:                 -12.029
REMARK INTRA:                  -4.278
REMARK UNBOUND:                -3.976
REMARK  Name = cpd177.pdb
REMARK  14 active torsions:
REMARK  status: ('A' for Active; 'I' for Inactive)
REMARK    1  A    between atoms: C_1  and  C_2
REMARK    2  A    between atoms: C_6  and  N_7
REMARK    3  A    between atoms: N_7  and  C_8
REMARK    4  A    between atoms: C_13  and  C_14
REMARK    5  A    between atoms: N_16  and  C_17
REMARK    6  A    between atoms: C_17  and  C_18
REMARK    7  A    between atoms: C_18  and  C_19
REMARK    8  A    between atoms: N_21  and  C_22
REMARK    9  A    between atoms: C_22  and  C_23
REMARK   10  A    between atoms: C_23  and  C_24
REMARK   11  A    between atoms: C_24  and  C_25
REMARK   12  A    between atoms: C_25  and  N_26
REMARK   13  A    between atoms: N_26  and  C_27
REMARK   14  A    between atoms: C_42  and  C_43
REMARK                            x       y       z     vdW  Elec       q    Type
REMARK                         _______ _______ _______ _____ _____    ______ ____
ROOT
ATOM      1  C   UNL A   1      44.044 -14.748 -36.262  0.00  0.00    +0.215 C 
ATOM      2  O   UNL A   1      45.172 -14.319 -36.047  0.00  0.00    -0.276 OA
ATOM      3  N   UNL A   1      43.381 -14.600 -37.460  0.00  0.00    -0.315 N 
ATOM      4  H   UNL A   1      42.469 -14.960 -37.545  0.00  0.00    +0.000 HD
ENDROOT
BRANCH   1   5
ATOM      5  C   UNL A   1      43.278 -15.538 -35.228  0.00  0.00    +0.039 C 
BRANCH   5   6
ATOM      6  C   UNL A   1      43.938 -16.892 -35.044  0.00  0.00    +0.020 C 
BRANCH   6   9
ATOM      7  C   UNL A   1      43.784 -19.189 -35.887  0.00  0.00    +0.246 C 
ATOM      8  O   UNL A   1      44.482 -19.630 -34.979  0.00  0.00    -0.270 OA
ATOM      9  N   UNL A   1      43.524 -17.841 -36.062  0.00  0.00    -0.311 N 
ATOM     10  H   UNL A   1      43.061 -17.527 -36.872  0.00  0.00    +0.000 HD
BRANCH   7  16
ATOM     11  C   UNL A   1      42.350 -21.203 -36.337  0.00  0.00    +0.044 A 
ATOM     12  C   UNL A   1      41.666 -22.003 -37.267  0.00  0.00    -0.040 A 
ATOM     13  C   UNL A   1      41.805 -21.798 -38.643  0.00  0.00    -0.060 A 
ATOM     14  C   UNL A   1      42.612 -20.768 -39.118  0.00  0.00    -0.061 A 
ATOM     15  C   UNL A   1      43.261 -19.925 -38.217  0.00  0.00    -0.048 A 
ATOM     16  C   UNL A   1      43.110 -20.121 -36.833  0.00  0.00    +0.058 A 
BRANCH  11  17
ATOM     17  N   UNL A   1      42.141 -21.374 -34.940  0.00  0.00    -0.314 N 
ATOM     18  H   UNL A   1      42.819 -21.909 -34.468  0.00  0.00    +0.000 HD
BRANCH  17  24
ATOM     19  C   UNL A   1      37.497 -21.850 -33.154  0.00  0.00    -0.039 C 
ATOM     20  C   UNL A   1      38.783 -21.087 -33.320  0.00  0.00    -0.046 A 
ATOM     21  C   UNL A   1      38.877 -19.797 -32.775  0.00  0.00    -0.058 A 
ATOM     22  C   UNL A   1      40.035 -19.042 -32.929  0.00  0.00    -0.060 A 
ATOM     23  C   UNL A   1      41.120 -19.570 -33.624  0.00  0.00    -0.040 A 
ATOM     24  C   UNL A   1      41.079 -20.873 -34.140  0.00  0.00    +0.035 A 
ATOM     25  C   UNL A   1      39.897 -21.639 -33.998  0.00  0.00    -0.026 A 
ATOM     26  C   UNL A   1      39.817 -23.014 -34.617  0.00  0.00    -0.038 C 
ENDBRANCH  17  24
ENDBRANCH  11  17
ENDBRANCH   7  16
ENDBRANCH   6   9
ENDBRANCH   5   6
ENDBRANCH   1   5
BRANCH   3  27
ATOM     27  C   UNL A   1      43.978 -13.936 -38.600  0.00  0.00    +0.012 C 
BRANCH  27  28
ATOM     28  C   UNL A   1      44.180 -14.871 -39.791  0.00  0.00    -0.036 C 
BRANCH  28  29
ATOM     29  C   UNL A   1      43.386 -16.174 -39.673  0.00  0.00    -0.036 C 
BRANCH  29  30
ATOM     30  C   UNL A   1      43.834 -17.192 -40.722  0.00  0.00    +0.009 C 
BRANCH  30  31
ATOM     31  N   UNL A   1      45.302 -17.198 -40.787  0.00  0.00    -0.343 N 
ATOM     32  H   UNL A   1      45.837 -16.501 -41.229  0.00  0.00    +0.000 HD
BRANCH  31  33
ATOM     33  C   UNL A   1      45.855 -18.338 -40.132  0.00  0.00    +0.041 A 
ATOM     34  C   UNL A   1      45.742 -19.594 -40.762  0.00  0.00    -0.005 A 
ATOM     35  C   UNL A   1      46.255 -20.704 -40.092  0.00  0.00    +0.047 A 
ATOM     36  N   UNL A   1      46.805 -20.633 -38.857  0.00  0.00    -0.251 NA
ATOM     37  C   UNL A   1      46.897 -19.443 -38.251  0.00  0.00    +0.074 A 
ATOM     38  C   UNL A   1      47.471 -19.410 -36.989  0.00  0.00    -0.017 A 
ATOM     39  C   UNL A   1      47.607 -18.217 -36.285  0.00  0.00    +0.043 A 
ATOM     40 CL   UNL A   1      48.321 -18.219 -34.720  0.00  0.00    -0.083 Cl
ATOM     41  C   UNL A   1      47.166 -17.025 -36.840  0.00  0.00    -0.043 A 
ATOM     42  C   UNL A   1      46.586 -17.038 -38.107  0.00  0.00    -0.049 A 
ATOM     43  C   UNL A   1      46.438 -18.246 -38.837  0.00  0.00    +0.022 A 
ATOM     44  C   UNL A   1      46.184 -22.088 -40.684  0.00  0.00    -0.010 C 
ATOM     45  C   UNL A   1      46.009 -22.086 -42.198  0.00  0.00    -0.047 C 
ATOM     46  C   UNL A   1      44.875 -21.149 -42.586  0.00  0.00    -0.049 C 
ATOM     47  C   UNL A   1      45.196 -19.716 -42.166  0.00  0.00    -0.024 C 
ENDBRANCH  31  33
ENDBRANCH  30  31
ENDBRANCH  29  30
ENDBRANCH  28  29
ENDBRANCH  27  28
ENDBRANCH   3  27
TORSDOF 12
ENDMDL
MODEL 9
REMARK VINA RESULT:    -7.183     16.786     21.096
REMARK INTER + INTRA:         -16.198
REMARK INTER:                 -13.690
REMARK INTRA:                  -2.508
REMARK UNBOUND:                -3.976
REMARK  Name = cpd177.pdb
REMARK  14 active torsions:
REMARK  status: ('A' for Active; 'I' for Inactive)
REMARK    1  A    between atoms: C_1  and  C_2
REMARK    2  A    between atoms: C_6  and  N_7
REMARK    3  A    between atoms: N_7  and  C_8
REMARK    4  A    between atoms: C_13  and  C_14
REMARK    5  A    between atoms: N_16  and  C_17
REMARK    6  A    between atoms: C_17  and  C_18
REMARK    7  A    between atoms: C_18  and  C_19
REMARK    8  A    between atoms: N_21  and  C_22
REMARK    9  A    between atoms: C_22  and  C_23
REMARK   10  A    between atoms: C_23  and  C_24
REMARK   11  A    between atoms: C_24  and  C_25
REMARK   12  A    between atoms: C_25  and  N_26
REMARK   13  A    between atoms: N_26  and  C_27
REMARK   14  A    between atoms: C_42  and  C_43
REMARK                            x       y       z     vdW  Elec       q    Type
REMARK                         _______ _______ _______ _____ _____    ______ ____
ROOT
ATOM      1  C   UNL A   1      40.202 -20.695 -38.654  0.00  0.00    +0.215 C 
ATOM      2  O   UNL A   1      39.201 -20.004 -38.811  0.00  0.00    -0.276 OA
ATOM      3  N   UNL A   1      40.471 -21.409 -37.509  0.00  0.00    -0.315 N 
ATOM      4  H   UNL A   1      41.307 -21.926 -37.457  0.00  0.00    +0.000 HD
ENDROOT
BRANCH   1   5
ATOM      5  C   UNL A   1      41.231 -20.869 -39.745  0.00  0.00    +0.039 C 
BRANCH   5   6
ATOM      6  C   UNL A   1      42.275 -19.774 -39.626  0.00  0.00    +0.020 C 
BRANCH   6   9
ATOM      7  C   UNL A   1      44.447 -20.904 -39.506  0.00  0.00    +0.246 C 
ATOM      8  O   UNL A   1      44.320 -21.145 -38.309  0.00  0.00    -0.270 OA
ATOM      9  N   UNL A   1      43.537 -20.158 -40.233  0.00  0.00    -0.311 N 
ATOM     10  H   UNL A   1      43.744 -19.890 -41.157  0.00  0.00    +0.000 HD
BRANCH   7  16
ATOM     11  C   UNL A   1      46.906 -21.361 -39.759  0.00  0.00    +0.044 A 
ATOM     12  C   UNL A   1      47.940 -21.990 -40.472  0.00  0.00    -0.040 A 
ATOM     13  C   UNL A   1      47.698 -22.631 -41.691  0.00  0.00    -0.060 A 
ATOM     14  C   UNL A   1      46.408 -22.679 -42.211  0.00  0.00    -0.061 A 
ATOM     15  C   UNL A   1      45.353 -22.109 -41.499  0.00  0.00    -0.048 A 
ATOM     16  C   UNL A   1      45.592 -21.477 -40.267  0.00  0.00    +0.058 A 
BRANCH  11  17
ATOM     17  N   UNL A   1      47.152 -20.778 -38.485  0.00  0.00    -0.314 N 
ATOM     18  H   UNL A   1      47.398 -21.406 -37.767  0.00  0.00    +0.000 HD
BRANCH  17  24
ATOM     19  C   UNL A   1      46.355 -17.290 -34.996  0.00  0.00    -0.039 C 
ATOM     20  C   UNL A   1      46.638 -17.709 -36.413  0.00  0.00    -0.046 A 
ATOM     21  C   UNL A   1      46.711 -16.720 -37.406  0.00  0.00    -0.058 A 
ATOM     22  C   UNL A   1      46.940 -17.062 -38.735  0.00  0.00    -0.060 A 
ATOM     23  C   UNL A   1      47.108 -18.398 -39.088  0.00  0.00    -0.040 A 
ATOM     24  C   UNL A   1      47.090 -19.408 -38.115  0.00  0.00    +0.035 A 
ATOM     25  C   UNL A   1      46.841 -19.065 -36.764  0.00  0.00    -0.026 A 
ATOM     26  C   UNL A   1      46.743 -20.154 -35.722  0.00  0.00    -0.038 C 
ENDBRANCH  17  24
ENDBRANCH  11  17
ENDBRANCH   7  16
ENDBRANCH   6   9
ENDBRANCH   5   6
ENDBRANCH   1   5
BRANCH   3  27
ATOM     27  C   UNL A   1      39.568 -21.429 -36.377  0.00  0.00    +0.012 C 
BRANCH  27  28
ATOM     28  C   UNL A   1      39.300 -22.841 -35.859  0.00  0.00    -0.036 C 
BRANCH  28  29
ATOM     29  C   UNL A   1      39.938 -23.112 -34.495  0.00  0.00    -0.036 C 
BRANCH  29  30
ATOM     30  C   UNL A   1      40.995 -22.060 -34.159  0.00  0.00    +0.009 C 
BRANCH  30  31
ATOM     31  N   UNL A   1      40.738 -21.535 -32.811  0.00  0.00    -0.343 N 
ATOM     32  H   UNL A   1      40.896 -22.042 -31.982  0.00  0.00    +0.000 HD
BRANCH  31  33
ATOM     33  C   UNL A   1      40.233 -20.202 -32.849  0.00  0.00    +0.041 A 
ATOM     34  C   UNL A   1      41.155 -19.136 -32.848  0.00  0.00    -0.005 A 
ATOM     35  C   UNL A   1      40.645 -17.838 -32.848  0.00  0.00    +0.047 A 
ATOM     36  N   UNL A   1      39.319 -17.564 -32.800  0.00  0.00    -0.251 NA
ATOM     37  C   UNL A   1      38.444 -18.576 -32.784  0.00  0.00    +0.074 A 
ATOM     38  C   UNL A   1      37.095 -18.256 -32.740  0.00  0.00    -0.017 A 
ATOM     39  C   UNL A   1      36.116 -19.245 -32.720  0.00  0.00    +0.043 A 
ATOM     40 CL   UNL A   1      34.454 -18.806 -32.661  0.00  0.00    -0.083 Cl
ATOM     41  C   UNL A   1      36.475 -20.584 -32.744  0.00  0.00    -0.043 A 
ATOM     42  C   UNL A   1      37.826 -20.926 -32.788  0.00  0.00    -0.049 A 
ATOM     43  C   UNL A   1      38.836 -19.931 -32.807  0.00  0.00    +0.022 A 
ATOM     44  C   UNL A   1      41.549 -16.633 -32.849  0.00  0.00    -0.010 C 
ATOM     45  C   UNL A   1      42.952 -16.933 -33.363  0.00  0.00    -0.047 C 
ATOM     46  C   UNL A   1      43.504 -18.166 -32.663  0.00  0.00    -0.049 C 
ATOM     47  C   UNL A   1      42.640 -19.388 -32.967  0.00  0.00    -0.024 C 
ENDBRANCH  31  33
ENDBRANCH  30  31
ENDBRANCH  29  30
ENDBRANCH  28  29
ENDBRANCH  27  28
ENDBRANCH   3  27
TORSDOF 12
ENDMDL
MODEL 10
REMARK VINA RESULT:    -7.179     19.070     23.020
REMARK INTER + INTRA:         -16.191
REMARK INTER:                 -10.988
REMARK INTRA:                  -5.203
REMARK UNBOUND:                -3.976
REMARK  Name = cpd177.pdb
REMARK  14 active torsions:
REMARK  status: ('A' for Active; 'I' for Inactive)
REMARK    1  A    between atoms: C_1  and  C_2
REMARK    2  A    between atoms: C_6  and  N_7
REMARK    3  A    between atoms: N_7  and  C_8
REMARK    4  A    between atoms: C_13  and  C_14
REMARK    5  A    between atoms: N_16  and  C_17
REMARK    6  A    between atoms: C_17  and  C_18
REMARK    7  A    between atoms: C_18  and  C_19
REMARK    8  A    between atoms: N_21  and  C_22
REMARK    9  A    between atoms: C_22  and  C_23
REMARK   10  A    between atoms: C_23  and  C_24
REMARK   11  A    between atoms: C_24  and  C_25
REMARK   12  A    between atoms: C_25  and  N_26
REMARK   13  A    between atoms: N_26  and  C_27
REMARK   14  A    between atoms: C_42  and  C_43
REMARK                            x       y       z     vdW  Elec       q    Type
REMARK                         _______ _______ _______ _____ _____    ______ ____
ROOT
ATOM      1  C   UNL A   1      44.057 -19.131 -34.663  0.00  0.00    +0.215 C 
ATOM      2  O   UNL A   1      43.860 -19.356 -35.852  0.00  0.00    -0.276 OA
ATOM      3  N   UNL A   1      45.254 -19.365 -34.025  0.00  0.00    -0.315 N 
ATOM      4  H   UNL A   1      45.325 -19.173 -33.062  0.00  0.00    +0.000 HD
ENDROOT
BRANCH   1   5
ATOM      5  C   UNL A   1      42.997 -18.519 -33.779  0.00  0.00    +0.039 C 
BRANCH   5   6
ATOM      6  C   UNL A   1      42.953 -17.021 -34.018  0.00  0.00    +0.020 C 
BRANCH   6   9
ATOM      7  C   UNL A   1      42.662 -16.249 -36.327  0.00  0.00    +0.246 C 
ATOM      8  O   UNL A   1      43.857 -16.001 -36.455  0.00  0.00    -0.270 OA
ATOM      9  N   UNL A   1      42.096 -16.674 -35.138  0.00  0.00    -0.311 N 
ATOM     10  H   UNL A   1      41.118 -16.742 -35.052  0.00  0.00    +0.000 HD
BRANCH   7  16
ATOM     11  C   UNL A   1      41.639 -17.253 -38.391  0.00  0.00    +0.044 A 
ATOM     12  C   UNL A   1      40.703 -17.153 -39.434  0.00  0.00    -0.040 A 
ATOM     13  C   UNL A   1      39.971 -15.980 -39.645  0.00  0.00    -0.060 A 
ATOM     14  C   UNL A   1      40.141 -14.889 -38.798  0.00  0.00    -0.061 A 
ATOM     15  C   UNL A   1      41.024 -14.978 -37.722  0.00  0.00    -0.048 A 
ATOM     16  C   UNL A   1      41.749 -16.161 -37.501  0.00  0.00    +0.058 A 
BRANCH  11  17
ATOM     17  N   UNL A   1      42.320 -18.476 -38.143  0.00  0.00    -0.314 N 
ATOM     18  H   UNL A   1      43.183 -18.398 -37.673  0.00  0.00    +0.000 HD
BRANCH  17  24
ATOM     19  C   UNL A   1      39.833 -22.656 -36.993  0.00  0.00    -0.039 C 
ATOM     20  C   UNL A   1      40.747 -21.858 -37.884  0.00  0.00    -0.046 A 
ATOM     21  C   UNL A   1      41.310 -22.484 -39.006  0.00  0.00    -0.058 A 
ATOM     22  C   UNL A   1      42.184 -21.795 -39.841  0.00  0.00    -0.060 A 
ATOM     23  C   UNL A   1      42.501 -20.466 -39.569  0.00  0.00    -0.040 A 
ATOM     24  C   UNL A   1      41.918 -19.795 -38.484  0.00  0.00    +0.035 A 
ATOM     25  C   UNL A   1      41.040 -20.497 -37.624  0.00  0.00    -0.026 A 
ATOM     26  C   UNL A   1      40.469 -19.804 -36.410  0.00  0.00    -0.038 C 
ENDBRANCH  17  24
ENDBRANCH  11  17
ENDBRANCH   7  16
ENDBRANCH   6   9
ENDBRANCH   5   6
ENDBRANCH   1   5
BRANCH   3  27
ATOM     27  C   UNL A   1      46.415 -19.883 -34.719  0.00  0.00    +0.012 C 
BRANCH  27  28
ATOM     28  C   UNL A   1      47.308 -18.779 -35.283  0.00  0.00    -0.036 C 
BRANCH  28  29
ATOM     29  C   UNL A   1      47.508 -18.880 -36.796  0.00  0.00    -0.036 C 
BRANCH  29  30
ATOM     30  C   UNL A   1      46.577 -17.926 -37.543  0.00  0.00    +0.009 C 
BRANCH  30  31
ATOM     31  N   UNL A   1      47.170 -17.598 -38.846  0.00  0.00    -0.343 N 
ATOM     32  H   UNL A   1      48.063 -17.200 -38.962  0.00  0.00    +0.000 HD
BRANCH  31  33
ATOM     33  C   UNL A   1      46.295 -17.929 -39.923  0.00  0.00    +0.041 A 
ATOM     34  C   UNL A   1      45.312 -16.992 -40.300  0.00  0.00    -0.005 A 
ATOM     35  C   UNL A   1      44.441 -17.344 -41.330  0.00  0.00    +0.047 A 
ATOM     36  N   UNL A   1      44.468 -18.552 -41.940  0.00  0.00    -0.251 NA
ATOM     37  C   UNL A   1      45.391 -19.449 -41.572  0.00  0.00    +0.074 A 
ATOM     38  C   UNL A   1      45.391 -20.673 -42.224  0.00  0.00    -0.017 A 
ATOM     39  C   UNL A   1      46.313 -21.665 -41.904  0.00  0.00    +0.043 A 
ATOM     40 CL   UNL A   1      46.278 -23.171 -42.734  0.00  0.00    -0.083 Cl
ATOM     41  C   UNL A   1      47.262 -21.445 -40.917  0.00  0.00    -0.043 A 
ATOM     42  C   UNL A   1      47.277 -20.220 -40.250  0.00  0.00    -0.049 A 
ATOM     43  C   UNL A   1      46.342 -19.200 -40.561  0.00  0.00    +0.022 A 
ATOM     44  C   UNL A   1      43.358 -16.410 -41.805  0.00  0.00    -0.010 C 
ATOM     45  C   UNL A   1      43.630 -14.950 -41.460  0.00  0.00    -0.047 C 
ATOM     46  C   UNL A   1      44.002 -14.827 -39.991  0.00  0.00    -0.049 C 
ATOM     47  C   UNL A   1      45.282 -15.607 -39.694  0.00  0.00    -0.024 C 
ENDBRANCH  31  33
ENDBRANCH  30  31
ENDBRANCH  29  30
ENDBRANCH  28  29
ENDBRANCH  27  28
ENDBRANCH   3  27
TORSDOF 12
ENDMDL
MODEL 11
REMARK VINA RESULT:    -7.154     18.028     22.273
REMARK INTER + INTRA:         -16.148
REMARK INTER:                 -11.800
REMARK INTRA:                  -4.348
REMARK UNBOUND:                -3.976
REMARK  Name = cpd177.pdb
REMARK  14 active torsions:
REMARK  status: ('A' for Active; 'I' for Inactive)
REMARK    1  A    between atoms: C_1  and  C_2
REMARK    2  A    between atoms: C_6  and  N_7
REMARK    3  A    between atoms: N_7  and  C_8
REMARK    4  A    between atoms: C_13  and  C_14
REMARK    5  A    between atoms: N_16  and  C_17
REMARK    6  A    between atoms: C_17  and  C_18
REMARK    7  A    between atoms: C_18  and  C_19
REMARK    8  A    between atoms: N_21  and  C_22
REMARK    9  A    between atoms: C_22  and  C_23
REMARK   10  A    between atoms: C_23  and  C_24
REMARK   11  A    between atoms: C_24  and  C_25
REMARK   12  A    between atoms: C_25  and  N_26
REMARK   13  A    between atoms: N_26  and  C_27
REMARK   14  A    between atoms: C_42  and  C_43
REMARK                            x       y       z     vdW  Elec       q    Type
REMARK                         _______ _______ _______ _____ _____    ______ ____
ROOT
ATOM      1  C   UNL A   1      42.330 -14.664 -36.475  0.00  0.00    +0.215 C 
ATOM      2  O   UNL A   1      43.029 -14.379 -35.509  0.00  0.00    -0.276 OA
ATOM      3  N   UNL A   1      41.102 -15.278 -36.379  0.00  0.00    -0.315 N 
ATOM      4  H   UNL A   1      40.611 -15.489 -37.206  0.00  0.00    +0.000 HD
ENDROOT
BRANCH   1   5
ATOM      5  C   UNL A   1      42.737 -14.316 -37.886  0.00  0.00    +0.039 C 
BRANCH   5   6
ATOM      6  C   UNL A   1      44.200 -14.665 -38.085  0.00  0.00    +0.020 C 
BRANCH   6   9
ATOM      7  C   UNL A   1      45.803 -16.479 -37.698  0.00  0.00    +0.246 C 
ATOM      8  O   UNL A   1      46.722 -15.856 -38.221  0.00  0.00    -0.270 OA
ATOM      9  N   UNL A   1      44.499 -16.020 -37.656  0.00  0.00    -0.311 N 
ATOM     10  H   UNL A   1      43.777 -16.608 -37.336  0.00  0.00    +0.000 HD
BRANCH   7  16
ATOM     11  C   UNL A   1      46.512 -18.890 -37.751  0.00  0.00    +0.044 A 
ATOM     12  C   UNL A   1      46.832 -20.060 -37.042  0.00  0.00    -0.040 A 
ATOM     13  C   UNL A   1      46.637 -20.150 -35.661  0.00  0.00    -0.060 A 
ATOM     14  C   UNL A   1      46.140 -19.060 -34.953  0.00  0.00    -0.061 A 
ATOM     15  C   UNL A   1      45.863 -17.868 -35.621  0.00  0.00    -0.048 A 
ATOM     16  C   UNL A   1      46.073 -17.771 -37.008  0.00  0.00    +0.058 A 
BRANCH  11  17
ATOM     17  N   UNL A   1      46.786 -18.787 -39.143  0.00  0.00    -0.314 N 
ATOM     18  H   UNL A   1      47.682 -18.456 -39.380  0.00  0.00    +0.000 HD
BRANCH  17  24
ATOM     19  C   UNL A   1      45.393 -21.946 -42.756  0.00  0.00    -0.039 C 
ATOM     20  C   UNL A   1      45.299 -20.627 -42.038  0.00  0.00    -0.046 A 
ATOM     21  C   UNL A   1      44.438 -19.643 -42.547  0.00  0.00    -0.058 A 
ATOM     22  C   UNL A   1      44.342 -18.397 -41.934  0.00  0.00    -0.060 A 
ATOM     23  C   UNL A   1      45.099 -18.122 -40.798  0.00  0.00    -0.040 A 
ATOM     24  C   UNL A   1      45.932 -19.099 -40.235  0.00  0.00    +0.035 A 
ATOM     25  C   UNL A   1      46.045 -20.362 -40.864  0.00  0.00    -0.026 A 
ATOM     26  C   UNL A   1      46.998 -21.392 -40.308  0.00  0.00    -0.038 C 
ENDBRANCH  17  24
ENDBRANCH  11  17
ENDBRANCH   7  16
ENDBRANCH   6   9
ENDBRANCH   5   6
ENDBRANCH   1   5
BRANCH   3  27
ATOM     27  C   UNL A   1      40.506 -15.626 -35.106  0.00  0.00    +0.012 C 
BRANCH  27  28
ATOM     28  C   UNL A   1      40.421 -17.136 -34.886  0.00  0.00    -0.036 C 
BRANCH  28  29
ATOM     29  C   UNL A   1      41.747 -17.753 -34.437  0.00  0.00    -0.036 C 
BRANCH  29  30
ATOM     30  C   UNL A   1      42.412 -18.525 -35.576  0.00  0.00    +0.009 C 
BRANCH  30  31
ATOM     31  N   UNL A   1      42.677 -19.900 -35.135  0.00  0.00    -0.343 N 
ATOM     32  H   UNL A   1      43.380 -20.147 -34.492  0.00  0.00    +0.000 HD
BRANCH  31  33
ATOM     33  C   UNL A   1      41.792 -20.833 -35.750  0.00  0.00    +0.041 A 
ATOM     34  C   UNL A   1      40.877 -21.529 -34.934  0.00  0.00    -0.005 A 
ATOM     35  C   UNL A   1      40.044 -22.465 -35.545  0.00  0.00    +0.047 A 
ATOM     36  N   UNL A   1      40.111 -22.765 -36.864  0.00  0.00    -0.251 NA
ATOM     37  C   UNL A   1      40.991 -22.117 -37.637  0.00  0.00    +0.074 A 
ATOM     38  C   UNL A   1      41.027 -22.448 -38.983  0.00  0.00    -0.017 A 
ATOM     39  C   UNL A   1      41.911 -21.826 -39.859  0.00  0.00    +0.043 A 
ATOM     40 CL   UNL A   1      41.927 -22.268 -41.522  0.00  0.00    -0.083 Cl
ATOM     41  C   UNL A   1      42.783 -20.852 -39.397  0.00  0.00    -0.043 A 
ATOM     42  C   UNL A   1      42.762 -20.506 -38.047  0.00  0.00    -0.049 A 
ATOM     43  C   UNL A   1      41.870 -21.132 -37.140  0.00  0.00    +0.022 A 
ATOM     44  C   UNL A   1      39.032 -23.257 -34.758  0.00  0.00    -0.010 C 
ATOM     45  C   UNL A   1      38.652 -22.602 -33.435  0.00  0.00    -0.047 C 
ATOM     46  C   UNL A   1      39.910 -22.207 -32.676  0.00  0.00    -0.049 C 
ATOM     47  C   UNL A   1      40.719 -21.184 -33.471  0.00  0.00    -0.024 C 
ENDBRANCH  31  33
ENDBRANCH  30  31
ENDBRANCH  29  30
ENDBRANCH  28  29
ENDBRANCH  27  28
ENDBRANCH   3  27
TORSDOF 12
ENDMDL
MODEL 12
REMARK VINA RESULT:    -7.151     18.267     21.853
REMARK INTER + INTRA:         -16.143
REMARK INTER:                 -10.464
REMARK INTRA:                  -5.679
REMARK UNBOUND:                -3.976
REMARK  Name = cpd177.pdb
REMARK  14 active torsions:
REMARK  status: ('A' for Active; 'I' for Inactive)
REMARK    1  A    between atoms: C_1  and  C_2
REMARK    2  A    between atoms: C_6  and  N_7
REMARK    3  A    between atoms: N_7  and  C_8
REMARK    4  A    between atoms: C_13  and  C_14
REMARK    5  A    between atoms: N_16  and  C_17
REMARK    6  A    between atoms: C_17  and  C_18
REMARK    7  A    between atoms: C_18  and  C_19
REMARK    8  A    between atoms: N_21  and  C_22
REMARK    9  A    between atoms: C_22  and  C_23
REMARK   10  A    between atoms: C_23  and  C_24
REMARK   11  A    between atoms: C_24  and  C_25
REMARK   12  A    between atoms: C_25  and  N_26
REMARK   13  A    between atoms: N_26  and  C_27
REMARK   14  A    between atoms: C_42  and  C_43
REMARK                            x       y       z     vdW  Elec       q    Type
REMARK                         _______ _______ _______ _____ _____    ______ ____
ROOT
ATOM      1  C   UNL A   1      46.434 -18.039 -35.015  0.00  0.00    +0.215 C 
ATOM      2  O   UNL A   1      46.044 -17.932 -33.858  0.00  0.00    -0.276 OA
ATOM      3  N   UNL A   1      46.224 -17.088 -35.987  0.00  0.00    -0.315 N 
ATOM      4  H   UNL A   1      46.556 -17.260 -36.899  0.00  0.00    +0.000 HD
ENDROOT
BRANCH   1   5
ATOM      5  C   UNL A   1      47.241 -19.228 -35.479  0.00  0.00    +0.039 C 
BRANCH   5   6
ATOM      6  C   UNL A   1      47.782 -18.952 -36.870  0.00  0.00    +0.020 C 
BRANCH   6   9
ATOM      7  C   UNL A   1      46.321 -19.350 -38.798  0.00  0.00    +0.246 C 
ATOM      8  O   UNL A   1      45.860 -18.213 -38.757  0.00  0.00    -0.270 OA
ATOM      9  N   UNL A   1      47.211 -19.846 -37.862  0.00  0.00    -0.311 N 
ATOM     10  H   UNL A   1      47.456 -20.799 -37.869  0.00  0.00    +0.000 HD
BRANCH   7  16
ATOM     11  C   UNL A   1      44.627 -20.532 -40.230  0.00  0.00    +0.044 A 
ATOM     12  C   UNL A   1      44.356 -21.323 -41.359  0.00  0.00    -0.040 A 
ATOM     13  C   UNL A   1      45.387 -21.895 -42.111  0.00  0.00    -0.060 A 
ATOM     14  C   UNL A   1      46.715 -21.666 -41.763  0.00  0.00    -0.061 A 
ATOM     15  C   UNL A   1      47.015 -20.842 -40.680  0.00  0.00    -0.048 A 
ATOM     16  C   UNL A   1      45.980 -20.254 -39.932  0.00  0.00    +0.058 A 
BRANCH  11  17
ATOM     17  N   UNL A   1      43.572 -19.895 -39.520  0.00  0.00    -0.314 N 
ATOM     18  H   UNL A   1      43.685 -18.930 -39.358  0.00  0.00    +0.000 HD
BRANCH  17  24
ATOM     19  C   UNL A   1      41.191 -22.399 -35.908  0.00  0.00    -0.039 C 
ATOM     20  C   UNL A   1      41.236 -21.751 -37.266  0.00  0.00    -0.046 A 
ATOM     21  C   UNL A   1      40.105 -21.837 -38.091  0.00  0.00    -0.058 A 
ATOM     22  C   UNL A   1      40.111 -21.279 -39.366  0.00  0.00    -0.060 A 
ATOM     23  C   UNL A   1      41.246 -20.619 -39.829  0.00  0.00    -0.040 A 
ATOM     24  C   UNL A   1      42.376 -20.472 -39.013  0.00  0.00    +0.035 A 
ATOM     25  C   UNL A   1      42.379 -21.052 -37.721  0.00  0.00    -0.026 A 
ATOM     26  C   UNL A   1      43.621 -20.965 -36.865  0.00  0.00    -0.038 C 
ENDBRANCH  17  24
ENDBRANCH  11  17
ENDBRANCH   7  16
ENDBRANCH   6   9
ENDBRANCH   5   6
ENDBRANCH   1   5
BRANCH   3  27
ATOM     27  C   UNL A   1      45.534 -15.844 -35.719  0.00  0.00    +0.012 C 
BRANCH  27  28
ATOM     28  C   UNL A   1      44.860 -15.262 -36.961  0.00  0.00    -0.036 C 
BRANCH  28  29
ATOM     29  C   UNL A   1      43.347 -15.093 -36.800  0.00  0.00    -0.036 C 
BRANCH  29  30
ATOM     30  C   UNL A   1      42.764 -16.170 -35.885  0.00  0.00    +0.009 C 
BRANCH  30  31
ATOM     31  N   UNL A   1      42.650 -17.427 -36.635  0.00  0.00    -0.343 N 
ATOM     32  H   UNL A   1      43.396 -17.854 -37.114  0.00  0.00    +0.000 HD
BRANCH  31  33
ATOM     33  C   UNL A   1      41.325 -17.955 -36.584  0.00  0.00    +0.041 A 
ATOM     34  C   UNL A   1      40.447 -17.666 -37.647  0.00  0.00    -0.005 A 
ATOM     35  C   UNL A   1      39.145 -18.158 -37.566  0.00  0.00    +0.047 A 
ATOM     36  N   UNL A   1      38.682 -18.849 -36.497  0.00  0.00    -0.251 NA
ATOM     37  C   UNL A   1      39.510 -19.109 -35.479  0.00  0.00    +0.074 A 
ATOM     38  C   UNL A   1      39.001 -19.824 -34.405  0.00  0.00    -0.017 A 
ATOM     39  C   UNL A   1      39.790 -20.139 -33.303  0.00  0.00    +0.043 A 
ATOM     40 CL   UNL A   1      39.120 -21.024 -31.990  0.00  0.00    -0.083 Cl
ATOM     41  C   UNL A   1      41.118 -19.738 -33.258  0.00  0.00    -0.043 A 
ATOM     42  C   UNL A   1      41.648 -19.018 -34.328  0.00  0.00    -0.049 A 
ATOM     43  C   UNL A   1      40.856 -18.687 -35.457  0.00  0.00    +0.022 A 
ATOM     44  C   UNL A   1      38.134 -17.904 -38.653  0.00  0.00    -0.010 C 
ATOM     45  C   UNL A   1      38.768 -17.558 -39.996  0.00  0.00    -0.047 C 
ATOM     46  C   UNL A   1      39.813 -16.470 -39.807  0.00  0.00    -0.049 C 
ATOM     47  C   UNL A   1      40.934 -16.955 -38.889  0.00  0.00    -0.024 C 
ENDBRANCH  31  33
ENDBRANCH  30  31
ENDBRANCH  29  30
ENDBRANCH  28  29
ENDBRANCH  27  28
ENDBRANCH   3  27
TORSDOF 12
ENDMDL
MODEL 13
REMARK VINA RESULT:    -7.149     18.648     22.926
REMARK INTER + INTRA:         -16.140
REMARK INTER:                 -11.023
REMARK INTRA:                  -5.117
REMARK UNBOUND:                -3.976
REMARK  Name = cpd177.pdb
REMARK  14 active torsions:
REMARK  status: ('A' for Active; 'I' for Inactive)
REMARK    1  A    between atoms: C_1  and  C_2
REMARK    2  A    between atoms: C_6  and  N_7
REMARK    3  A    between atoms: N_7  and  C_8
REMARK    4  A    between atoms: C_13  and  C_14
REMARK    5  A    between atoms: N_16  and  C_17
REMARK    6  A    between atoms: C_17  and  C_18
REMARK    7  A    between atoms: C_18  and  C_19
REMARK    8  A    between atoms: N_21  and  C_22
REMARK    9  A    between atoms: C_22  and  C_23
REMARK   10  A    between atoms: C_23  and  C_24
REMARK   11  A    between atoms: C_24  and  C_25
REMARK   12  A    between atoms: C_25  and  N_26
REMARK   13  A    between atoms: N_26  and  C_27
REMARK   14  A    between atoms: C_42  and  C_43
REMARK                            x       y       z     vdW  Elec       q    Type
REMARK                         _______ _______ _______ _____ _____    ______ ____
ROOT
ATOM      1  C   UNL A   1      40.676 -21.698 -34.479  0.00  0.00    +0.215 C 
ATOM      2  O   UNL A   1      39.528 -21.269 -34.504  0.00  0.00    -0.276 OA
ATOM      3  N   UNL A   1      41.294 -22.301 -35.551  0.00  0.00    -0.315 N 
ATOM      4  H   UNL A   1      42.214 -22.634 -35.444  0.00  0.00    +0.000 HD
ENDROOT
BRANCH   1   5
ATOM      5  C   UNL A   1      41.556 -21.556 -33.261  0.00  0.00    +0.039 C 
BRANCH   5   6
ATOM      6  C   UNL A   1      41.970 -20.104 -33.109  0.00  0.00    +0.020 C 
BRANCH   6   9
ATOM      7  C   UNL A   1      43.209 -19.267 -35.052  0.00  0.00    +0.246 C 
ATOM      8  O   UNL A   1      42.187 -19.127 -35.716  0.00  0.00    -0.270 OA
ATOM      9  N   UNL A   1      43.225 -19.823 -33.785  0.00  0.00    -0.311 N 
ATOM     10  H   UNL A   1      44.081 -20.026 -33.344  0.00  0.00    +0.000 HD
BRANCH   7  16
ATOM     11  C   UNL A   1      44.756 -17.382 -35.660  0.00  0.00    +0.044 A 
ATOM     12  C   UNL A   1      46.031 -16.966 -36.078  0.00  0.00    -0.040 A 
ATOM     13  C   UNL A   1      47.000 -17.888 -36.485  0.00  0.00    -0.060 A 
ATOM     14  C   UNL A   1      46.722 -19.251 -36.457  0.00  0.00    -0.061 A 
ATOM     15  C   UNL A   1      45.483 -19.696 -35.996  0.00  0.00    -0.048 A 
ATOM     16  C   UNL A   1      44.514 -18.771 -35.573  0.00  0.00    +0.058 A 
BRANCH  11  17
ATOM     17  N   UNL A   1      43.807 -16.439 -35.177  0.00  0.00    -0.314 N 
ATOM     18  H   UNL A   1      42.865 -16.631 -35.391  0.00  0.00    +0.000 HD
BRANCH  17  24
ATOM     19  C   UNL A   1      44.354 -14.177 -30.754  0.00  0.00    -0.039 C 
ATOM     20  C   UNL A   1      44.248 -14.148 -32.255  0.00  0.00    -0.046 A 
ATOM     21  C   UNL A   1      44.255 -12.906 -32.908  0.00  0.00    -0.058 A 
ATOM     22  C   UNL A   1      44.130 -12.829 -34.292  0.00  0.00    -0.060 A 
ATOM     23  C   UNL A   1      44.004 -13.995 -35.043  0.00  0.00    -0.040 A 
ATOM     24  C   UNL A   1      44.042 -15.255 -34.428  0.00  0.00    +0.035 A 
ATOM     25  C   UNL A   1      44.155 -15.336 -33.019  0.00  0.00    -0.026 A 
ATOM     26  C   UNL A   1      44.119 -16.686 -32.343  0.00  0.00    -0.038 C 
ENDBRANCH  17  24
ENDBRANCH  11  17
ENDBRANCH   7  16
ENDBRANCH   6   9
ENDBRANCH   5   6
ENDBRANCH   1   5
BRANCH   3  27
ATOM     27  C   UNL A   1      40.639 -22.465 -36.833  0.00  0.00    +0.012 C 
BRANCH  27  28
ATOM     28  C   UNL A   1      41.604 -22.338 -38.010  0.00  0.00    -0.036 C 
BRANCH  28  29
ATOM     29  C   UNL A   1      41.000 -21.594 -39.204  0.00  0.00    -0.036 C 
BRANCH  29  30
ATOM     30  C   UNL A   1      41.976 -20.557 -39.761  0.00  0.00    +0.009 C 
BRANCH  30  31
ATOM     31  N   UNL A   1      42.844 -20.083 -38.675  0.00  0.00    -0.343 N 
ATOM     32  H   UNL A   1      42.642 -20.196 -37.718  0.00  0.00    +0.000 HD
BRANCH  31  33
ATOM     33  C   UNL A   1      44.014 -19.439 -39.175  0.00  0.00    +0.041 A 
ATOM     34  C   UNL A   1      44.023 -18.032 -39.253  0.00  0.00    -0.005 A 
ATOM     35  C   UNL A   1      45.160 -17.419 -39.779  0.00  0.00    +0.047 A 
ATOM     36  N   UNL A   1      46.219 -18.113 -40.258  0.00  0.00    -0.251 NA
ATOM     37  C   UNL A   1      46.204 -19.450 -40.200  0.00  0.00    +0.074 A 
ATOM     38  C   UNL A   1      47.309 -20.126 -40.695  0.00  0.00    -0.017 A 
ATOM     39  C   UNL A   1      47.378 -21.515 -40.676  0.00  0.00    +0.043 A 
ATOM     40 CL   UNL A   1      48.766 -22.315 -41.304  0.00  0.00    -0.083 Cl
ATOM     41  C   UNL A   1      46.331 -22.260 -40.155  0.00  0.00    -0.043 A 
ATOM     42  C   UNL A   1      45.211 -21.599 -39.653  0.00  0.00    -0.049 A 
ATOM     43  C   UNL A   1      45.123 -20.183 -39.667  0.00  0.00    +0.022 A 
ATOM     44  C   UNL A   1      45.266 -15.921 -39.901  0.00  0.00    -0.010 C 
ATOM     45  C   UNL A   1      44.322 -15.173 -38.967  0.00  0.00    -0.047 C 
ATOM     46  C   UNL A   1      42.917 -15.742 -39.090  0.00  0.00    -0.049 C 
ATOM     47  C   UNL A   1      42.894 -17.212 -38.673  0.00  0.00    -0.024 C 
ENDBRANCH  31  33
ENDBRANCH  30  31
ENDBRANCH  29  30
ENDBRANCH  28  29
ENDBRANCH  27  28
ENDBRANCH   3  27
TORSDOF 12
ENDMDL
MODEL 14
REMARK VINA RESULT:    -7.115     20.638     24.265
REMARK INTER + INTRA:         -16.082
REMARK INTER:                 -10.499
REMARK INTRA:                  -5.583
REMARK UNBOUND:                -3.976
REMARK  Name = cpd177.pdb
REMARK  14 active torsions:
REMARK  status: ('A' for Active; 'I' for Inactive)
REMARK    1  A    between atoms: C_1  and  C_2
REMARK    2  A    between atoms: C_6  and  N_7
REMARK    3  A    between atoms: N_7  and  C_8
REMARK    4  A    between atoms: C_13  and  C_14
REMARK    5  A    between atoms: N_16  and  C_17
REMARK    6  A    between atoms: C_17  and  C_18
REMARK    7  A    between atoms: C_18  and  C_19
REMARK    8  A    between atoms: N_21  and  C_22
REMARK    9  A    between atoms: C_22  and  C_23
REMARK   10  A    between atoms: C_23  and  C_24
REMARK   11  A    between atoms: C_24  and  C_25
REMARK   12  A    between atoms: C_25  and  N_26
REMARK   13  A    between atoms: N_26  and  C_27
REMARK   14  A    between atoms: C_42  and  C_43
REMARK                            x       y       z     vdW  Elec       q    Type
REMARK                         _______ _______ _______ _____ _____    ______ ____
ROOT
ATOM      1  C   UNL A   1      44.511 -12.413 -40.585  0.00  0.00    +0.215 C 
ATOM      2  O   UNL A   1      44.243 -12.000 -41.708  0.00  0.00    -0.276 OA
ATOM      3  N   UNL A   1      43.591 -12.993 -39.740  0.00  0.00    -0.315 N 
ATOM      4  H   UNL A   1      43.885 -13.283 -38.847  0.00  0.00    +0.000 HD
ENDROOT
BRANCH   1   5
ATOM      5  C   UNL A   1      45.915 -12.368 -40.031  0.00  0.00    +0.039 C 
BRANCH   5   6
ATOM      6  C   UNL A   1      46.655 -13.628 -40.443  0.00  0.00    +0.020 C 
BRANCH   6   9
ATOM      7  C   UNL A   1      46.132 -15.616 -39.106  0.00  0.00    +0.246 C 
ATOM      8  O   UNL A   1      45.113 -15.850 -39.748  0.00  0.00    -0.270 OA
ATOM      9  N   UNL A   1      46.920 -14.497 -39.310  0.00  0.00    -0.311 N 
ATOM     10  H   UNL A   1      47.657 -14.291 -38.690  0.00  0.00    +0.000 HD
BRANCH   7  16
ATOM     11  C   UNL A   1      46.551 -17.977 -38.355  0.00  0.00    +0.044 A 
ATOM     12  C   UNL A   1      47.097 -18.852 -37.401  0.00  0.00    -0.040 A 
ATOM     13  C   UNL A   1      47.605 -18.378 -36.187  0.00  0.00    -0.060 A 
ATOM     14  C   UNL A   1      47.602 -17.013 -35.913  0.00  0.00    -0.061 A 
ATOM     15  C   UNL A   1      47.115 -16.118 -36.864  0.00  0.00    -0.048 A 
ATOM     16  C   UNL A   1      46.617 -16.591 -38.090  0.00  0.00    +0.058 A 
BRANCH  11  17
ATOM     17  N   UNL A   1      46.106 -18.464 -39.615  0.00  0.00    -0.314 N 
ATOM     18  H   UNL A   1      45.626 -17.816 -40.180  0.00  0.00    +0.000 HD
BRANCH  17  24
ATOM     19  C   UNL A   1      44.829 -21.888 -43.025  0.00  0.00    -0.039 C 
ATOM     20  C   UNL A   1      45.588 -21.454 -41.800  0.00  0.00    -0.046 A 
ATOM     21  C   UNL A   1      46.367 -22.401 -41.119  0.00  0.00    -0.058 A 
ATOM     22  C   UNL A   1      47.062 -22.053 -39.965  0.00  0.00    -0.060 A 
ATOM     23  C   UNL A   1      46.995 -20.750 -39.481  0.00  0.00    -0.040 A 
ATOM     24  C   UNL A   1      46.265 -19.765 -40.164  0.00  0.00    +0.035 A 
ATOM     25  C   UNL A   1      45.545 -20.119 -41.329  0.00  0.00    -0.026 A 
ATOM     26  C   UNL A   1      44.695 -19.084 -42.027  0.00  0.00    -0.038 C 
ENDBRANCH  17  24
ENDBRANCH  11  17
ENDBRANCH   7  16
ENDBRANCH   6   9
ENDBRANCH   5   6
ENDBRANCH   1   5
BRANCH   3  27
ATOM     27  C   UNL A   1      42.208 -13.192 -40.119  0.00  0.00    +0.012 C 
BRANCH  27  28
ATOM     28  C   UNL A   1      41.744 -14.635 -39.925  0.00  0.00    -0.036 C 
BRANCH  28  29
ATOM     29  C   UNL A   1      40.756 -14.798 -38.768  0.00  0.00    -0.036 C 
BRANCH  29  30
ATOM     30  C   UNL A   1      41.238 -15.856 -37.775  0.00  0.00    +0.009 C 
BRANCH  30  31
ATOM     31  N   UNL A   1      42.654 -16.148 -38.034  0.00  0.00    -0.343 N 
ATOM     32  H   UNL A   1      43.218 -15.636 -38.657  0.00  0.00    +0.000 HD
BRANCH  31  33
ATOM     33  C   UNL A   1      43.112 -17.265 -37.274  0.00  0.00    +0.041 A 
ATOM     34  C   UNL A   1      42.925 -18.558 -37.804  0.00  0.00    -0.005 A 
ATOM     35  C   UNL A   1      43.344 -19.641 -37.033  0.00  0.00    +0.047 A 
ATOM     36  N   UNL A   1      43.869 -19.506 -35.792  0.00  0.00    -0.251 NA
ATOM     37  C   UNL A   1      44.031 -18.280 -35.281  0.00  0.00    +0.074 A 
ATOM     38  C   UNL A   1      44.577 -18.182 -34.010  0.00  0.00    -0.017 A 
ATOM     39  C   UNL A   1      44.779 -16.947 -33.401  0.00  0.00    +0.043 A 
ATOM     40 CL   UNL A   1      45.456 -16.869 -31.822  0.00  0.00    -0.083 Cl
ATOM     41  C   UNL A   1      44.436 -15.778 -34.062  0.00  0.00    -0.043 A 
ATOM     42  C   UNL A   1      43.885 -15.856 -35.341  0.00  0.00    -0.049 A 
ATOM     43  C   UNL A   1      43.670 -17.106 -35.974  0.00  0.00    +0.022 A 
ATOM     44  C   UNL A   1      43.190 -21.061 -37.513  0.00  0.00    -0.010 C 
ATOM     45  C   UNL A   1      43.050 -21.172 -39.027  0.00  0.00    -0.047 C 
ATOM     46  C   UNL A   1      41.993 -20.196 -39.520  0.00  0.00    -0.049 C 
ATOM     47  C   UNL A   1      42.404 -18.757 -39.208  0.00  0.00    -0.024 C 
ENDBRANCH  31  33
ENDBRANCH  30  31
ENDBRANCH  29  30
ENDBRANCH  28  29
ENDBRANCH  27  28
ENDBRANCH   3  27
TORSDOF 12
ENDMDL
MODEL 15
REMARK VINA RESULT:    -7.103     18.401     21.880
REMARK INTER + INTRA:         -16.062
REMARK INTER:                 -10.524
REMARK INTRA:                  -5.538
REMARK UNBOUND:                -3.976
REMARK  Name = cpd177.pdb
REMARK  14 active torsions:
REMARK  status: ('A' for Active; 'I' for Inactive)
REMARK    1  A    between atoms: C_1  and  C_2
REMARK    2  A    between atoms: C_6  and  N_7
REMARK    3  A    between atoms: N_7  and  C_8
REMARK    4  A    between atoms: C_13  and  C_14
REMARK    5  A    between atoms: N_16  and  C_17
REMARK    6  A    between atoms: C_17  and  C_18
REMARK    7  A    between atoms: C_18  and  C_19
REMARK    8  A    between atoms: N_21  and  C_22
REMARK    9  A    between atoms: C_22  and  C_23
REMARK   10  A    between atoms: C_23  and  C_24
REMARK   11  A    between atoms: C_24  and  C_25
REMARK   12  A    between atoms: C_25  and  N_26
REMARK   13  A    between atoms: N_26  and  C_27
REMARK   14  A    between atoms: C_42  and  C_43
REMARK                            x       y       z     vdW  Elec       q    Type
REMARK                         _______ _______ _______ _____ _____    ______ ____
ROOT
ATOM      1  C   UNL A   1      46.030 -18.052 -34.559  0.00  0.00    +0.215 C 
ATOM      2  O   UNL A   1      45.496 -17.874 -33.469  0.00  0.00    -0.276 OA
ATOM      3  N   UNL A   1      46.007 -17.134 -35.584  0.00  0.00    -0.315 N 
ATOM      4  H   UNL A   1      46.446 -17.361 -36.435  0.00  0.00    +0.000 HD
ENDROOT
BRANCH   1   5
ATOM      5  C   UNL A   1      46.820 -19.301 -34.867  0.00  0.00    +0.039 C 
BRANCH   5   6
ATOM      6  C   UNL A   1      47.557 -19.114 -36.181  0.00  0.00    +0.020 C 
BRANCH   6   9
ATOM      7  C   UNL A   1      46.324 -19.473 -38.270  0.00  0.00    +0.246 C 
ATOM      8  O   UNL A   1      45.944 -18.307 -38.313  0.00  0.00    -0.270 OA
ATOM      9  N   UNL A   1      47.053 -19.998 -37.217  0.00  0.00    -0.311 N 
ATOM     10  H   UNL A   1      47.229 -20.965 -37.171  0.00  0.00    +0.000 HD
BRANCH   7  16
ATOM     11  C   UNL A   1      44.739 -20.630 -39.840  0.00  0.00    +0.044 A 
ATOM     12  C   UNL A   1      44.552 -21.433 -40.977  0.00  0.00    -0.040 A 
ATOM     13  C   UNL A   1      45.632 -22.051 -41.616  0.00  0.00    -0.060 A 
ATOM     14  C   UNL A   1      46.927 -21.856 -41.145  0.00  0.00    -0.061 A 
ATOM     15  C   UNL A   1      47.148 -21.021 -40.051  0.00  0.00    -0.048 A 
ATOM     16  C   UNL A   1      46.065 -20.388 -39.416  0.00  0.00    +0.058 A 
BRANCH  11  17
ATOM     17  N   UNL A   1      43.642 -19.947 -39.246  0.00  0.00    -0.314 N 
ATOM     18  H   UNL A   1      43.748 -18.974 -39.141  0.00  0.00    +0.000 HD
BRANCH  17  24
ATOM     19  C   UNL A   1      41.009 -22.184 -35.634  0.00  0.00    -0.039 C 
ATOM     20  C   UNL A   1      41.150 -21.639 -37.029  0.00  0.00    -0.046 A 
ATOM     21  C   UNL A   1      40.080 -21.791 -37.924  0.00  0.00    -0.058 A 
ATOM     22  C   UNL A   1      40.177 -21.329 -39.233  0.00  0.00    -0.060 A 
ATOM     23  C   UNL A   1      41.342 -20.702 -39.663  0.00  0.00    -0.040 A 
ATOM     24  C   UNL A   1      42.413 -20.489 -38.782  0.00  0.00    +0.035 A 
ATOM     25  C   UNL A   1      42.324 -20.971 -37.454  0.00  0.00    -0.026 A 
ATOM     26  C   UNL A   1      43.502 -20.815 -36.521  0.00  0.00    -0.038 C 
ENDBRANCH  17  24
ENDBRANCH  11  17
ENDBRANCH   7  16
ENDBRANCH   6   9
ENDBRANCH   5   6
ENDBRANCH   1   5
BRANCH   3  27
ATOM     27  C   UNL A   1      45.361 -15.844 -35.456  0.00  0.00    +0.012 C 
BRANCH  27  28
ATOM     28  C   UNL A   1      44.811 -15.324 -36.783  0.00  0.00    -0.036 C 
BRANCH  28  29
ATOM     29  C   UNL A   1      43.298 -15.096 -36.759  0.00  0.00    -0.036 C 
BRANCH  29  30
ATOM     30  C   UNL A   1      42.622 -15.979 -35.711  0.00  0.00    +0.009 C 
BRANCH  30  31
ATOM     31  N   UNL A   1      42.533 -17.352 -36.225  0.00  0.00    -0.343 N 
ATOM     32  H   UNL A   1      43.290 -17.844 -36.617  0.00  0.00    +0.000 HD
BRANCH  31  33
ATOM     33  C   UNL A   1      41.217 -17.885 -36.089  0.00  0.00    +0.041 A 
ATOM     34  C   UNL A   1      40.872 -18.514 -34.876  0.00  0.00    -0.005 A 
ATOM     35  C   UNL A   1      39.594 -19.063 -34.771  0.00  0.00    +0.047 A 
ATOM     36  N   UNL A   1      38.702 -19.059 -35.790  0.00  0.00    -0.251 NA
ATOM     37  C   UNL A   1      39.036 -18.477 -36.948  0.00  0.00    +0.074 A 
ATOM     38  C   UNL A   1      38.095 -18.489 -37.966  0.00  0.00    -0.017 A 
ATOM     39  C   UNL A   1      38.357 -17.908 -39.203  0.00  0.00    +0.043 A 
ATOM     40 CL   UNL A   1      37.164 -17.948 -40.442  0.00  0.00    -0.083 Cl
ATOM     41  C   UNL A   1      39.579 -17.298 -39.444  0.00  0.00    -0.043 A 
ATOM     42  C   UNL A   1      40.538 -17.276 -38.432  0.00  0.00    -0.049 A 
ATOM     43  C   UNL A   1      40.288 -17.866 -37.167  0.00  0.00    +0.022 A 
ATOM     44  C   UNL A   1      39.130 -19.754 -33.515  0.00  0.00    -0.010 C 
ATOM     45  C   UNL A   1      39.923 -19.349 -32.278  0.00  0.00    -0.047 C 
ATOM     46  C   UNL A   1      41.413 -19.446 -32.566  0.00  0.00    -0.049 C 
ATOM     47  C   UNL A   1      41.806 -18.487 -33.689  0.00  0.00    -0.024 C 
ENDBRANCH  31  33
ENDBRANCH  30  31
ENDBRANCH  29  30
ENDBRANCH  28  29
ENDBRANCH  27  28
ENDBRANCH   3  27
TORSDOF 12
ENDMDL
MODEL 16
REMARK VINA RESULT:    -7.096     17.906     21.675
REMARK INTER + INTRA:         -16.050
REMARK INTER:                 -11.130
REMARK INTRA:                  -4.920
REMARK UNBOUND:                -3.976
REMARK  Name = cpd177.pdb
REMARK  14 active torsions:
REMARK  status: ('A' for Active; 'I' for Inactive)
REMARK    1  A    between atoms: C_1  and  C_2
REMARK    2  A    between atoms: C_6  and  N_7
REMARK    3  A    between atoms: N_7  and  C_8
REMARK    4  A    between atoms: C_13  and  C_14
REMARK    5  A    between atoms: N_16  and  C_17
REMARK    6  A    between atoms: C_17  and  C_18
REMARK    7  A    between atoms: C_18  and  C_19
REMARK    8  A    between atoms: N_21  and  C_22
REMARK    9  A    between atoms: C_22  and  C_23
REMARK   10  A    between atoms: C_23  and  C_24
REMARK   11  A    between atoms: C_24  and  C_25
REMARK   12  A    between atoms: C_25  and  N_26
REMARK   13  A    between atoms: N_26  and  C_27
REMARK   14  A    between atoms: C_42  and  C_43
REMARK                            x       y       z     vdW  Elec       q    Type
REMARK                         _______ _______ _______ _____ _____    ______ ____
ROOT
ATOM      1  C   UNL A   1      43.416 -13.758 -33.586  0.00  0.00    +0.215 C 
ATOM      2  O   UNL A   1      44.243 -13.118 -34.225  0.00  0.00    -0.276 OA
ATOM      3  N   UNL A   1      42.365 -14.441 -34.155  0.00  0.00    -0.315 N 
ATOM      4  H   UNL A   1      41.734 -14.917 -33.568  0.00  0.00    +0.000 HD
ENDROOT
BRANCH   1   5
ATOM      5  C   UNL A   1      43.502 -13.900 -32.085  0.00  0.00    +0.039 C 
BRANCH   5   6
ATOM      6  C   UNL A   1      44.299 -15.147 -31.746  0.00  0.00    +0.020 C 
BRANCH   6   9
ATOM      7  C   UNL A   1      44.941 -17.291 -32.745  0.00  0.00    +0.246 C 
ATOM      8  O   UNL A   1      45.289 -17.756 -31.664  0.00  0.00    -0.270 OA
ATOM      9  N   UNL A   1      44.519 -15.984 -32.912  0.00  0.00    -0.311 N 
ATOM     10  H   UNL A   1      44.368 -15.625 -33.815  0.00  0.00    +0.000 HD
BRANCH   7  16
ATOM     11  C   UNL A   1      44.020 -19.267 -33.995  0.00  0.00    +0.044 A 
ATOM     12  C   UNL A   1      43.955 -20.006 -35.188  0.00  0.00    -0.040 A 
ATOM     13  C   UNL A   1      44.795 -19.718 -36.268  0.00  0.00    -0.060 A 
ATOM     14  C   UNL A   1      45.702 -18.665 -36.186  0.00  0.00    -0.061 A 
ATOM     15  C   UNL A   1      45.751 -17.881 -35.035  0.00  0.00    -0.048 A 
ATOM     16  C   UNL A   1      44.897 -18.161 -33.953  0.00  0.00    +0.058 A 
BRANCH  11  17
ATOM     17  N   UNL A   1      43.108 -19.522 -32.933  0.00  0.00    -0.314 N 
ATOM     18  H   UNL A   1      43.482 -19.990 -32.151  0.00  0.00    +0.000 HD
BRANCH  17  24
ATOM     19  C   UNL A   1      38.343 -20.977 -32.535  0.00  0.00    -0.039 C 
ATOM     20  C   UNL A   1      39.396 -19.918 -32.722  0.00  0.00    -0.046 A 
ATOM     21  C   UNL A   1      38.989 -18.596 -32.952  0.00  0.00    -0.058 A 
ATOM     22  C   UNL A   1      39.926 -17.588 -33.160  0.00  0.00    -0.060 A 
ATOM     23  C   UNL A   1      41.285 -17.889 -33.132  0.00  0.00    -0.040 A 
ATOM     24  C   UNL A   1      41.729 -19.191 -32.856  0.00  0.00    +0.035 A 
ATOM     25  C   UNL A   1      40.778 -20.221 -32.659  0.00  0.00    -0.026 A 
ATOM     26  C   UNL A   1      41.246 -21.639 -32.438  0.00  0.00    -0.038 C 
ENDBRANCH  17  24
ENDBRANCH  11  17
ENDBRANCH   7  16
ENDBRANCH   6   9
ENDBRANCH   5   6
ENDBRANCH   1   5
BRANCH   3  27
ATOM     27  C   UNL A   1      42.154 -14.486 -35.587  0.00  0.00    +0.012 C 
BRANCH  27  28
ATOM     28  C   UNL A   1      43.206 -15.323 -36.314  0.00  0.00    -0.036 C 
BRANCH  28  29
ATOM     29  C   UNL A   1      42.653 -16.640 -36.861  0.00  0.00    -0.036 C 
BRANCH  29  30
ATOM     30  C   UNL A   1      42.766 -16.698 -38.384  0.00  0.00    +0.009 C 
BRANCH  30  31
ATOM     31  N   UNL A   1      41.704 -17.565 -38.911  0.00  0.00    -0.343 N 
ATOM     32  H   UNL A   1      40.837 -17.237 -39.242  0.00  0.00    +0.000 HD
BRANCH  31  33
ATOM     33  C   UNL A   1      42.082 -18.940 -38.886  0.00  0.00    +0.041 A 
ATOM     34  C   UNL A   1      43.037 -19.390 -39.820  0.00  0.00    -0.005 A 
ATOM     35  C   UNL A   1      43.369 -20.744 -39.808  0.00  0.00    +0.047 A 
ATOM     36  N   UNL A   1      42.782 -21.641 -38.980  0.00  0.00    -0.251 NA
ATOM     37  C   UNL A   1      41.863 -21.218 -38.105  0.00  0.00    +0.074 A 
ATOM     38  C   UNL A   1      41.289 -22.165 -37.270  0.00  0.00    -0.017 A 
ATOM     39  C   UNL A   1      40.324 -21.814 -36.331  0.00  0.00    +0.043 A 
ATOM     40 CL   UNL A   1      39.634 -23.020 -35.317  0.00  0.00    -0.083 Cl
ATOM     41  C   UNL A   1      39.914 -20.495 -36.209  0.00  0.00    -0.043 A 
ATOM     42  C   UNL A   1      40.480 -19.528 -37.039  0.00  0.00    -0.049 A 
ATOM     43  C   UNL A   1      41.462 -19.870 -38.004  0.00  0.00    +0.022 A 
ATOM     44  C   UNL A   1      44.380 -21.320 -40.765  0.00  0.00    -0.010 C 
ATOM     45  C   UNL A   1      45.333 -20.275 -41.334  0.00  0.00    -0.047 C 
ATOM     46  C   UNL A   1      44.542 -19.084 -41.854  0.00  0.00    -0.049 C 
ATOM     47  C   UNL A   1      43.766 -18.418 -40.719  0.00  0.00    -0.024 C 
ENDBRANCH  31  33
ENDBRANCH  30  31
ENDBRANCH  29  30
ENDBRANCH  28  29
ENDBRANCH  27  28
ENDBRANCH   3  27
TORSDOF 12
ENDMDL
MODEL 17
REMARK VINA RESULT:    -7.080     19.579     23.773
REMARK INTER + INTRA:         -16.023
REMARK INTER:                 -10.331
REMARK INTRA:                  -5.692
REMARK UNBOUND:                -3.976
REMARK  Name = cpd177.pdb
REMARK  14 active torsions:
REMARK  status: ('A' for Active; 'I' for Inactive)
REMARK    1  A    between atoms: C_1  and  C_2
REMARK    2  A    between atoms: C_6  and  N_7
REMARK    3  A    between atoms: N_7  and  C_8
REMARK    4  A    between atoms: C_13  and  C_14
REMARK    5  A    between atoms: N_16  and  C_17
REMARK    6  A    between atoms: C_17  and  C_18
REMARK    7  A    between atoms: C_18  and  C_19
REMARK    8  A    between atoms: N_21  and  C_22
REMARK    9  A    between atoms: C_22  and  C_23
REMARK   10  A    between atoms: C_23  and  C_24
REMARK   11  A    between atoms: C_24  and  C_25
REMARK   12  A    between atoms: C_25  and  N_26
REMARK   13  A    between atoms: N_26  and  C_27
REMARK   14  A    between atoms: C_42  and  C_43
REMARK                            x       y       z     vdW  Elec       q    Type
REMARK                         _______ _______ _______ _____ _____    ______ ____
ROOT
ATOM      1  C   UNL A   1      40.947 -22.108 -37.030  0.00  0.00    +0.215 C 
ATOM      2  O   UNL A   1      40.759 -23.126 -36.374  0.00  0.00    -0.276 OA
ATOM      3  N   UNL A   1      41.240 -20.881 -36.478  0.00  0.00    -0.315 N 
ATOM      4  H   UNL A   1      41.360 -20.108 -37.075  0.00  0.00    +0.000 HD
ENDROOT
BRANCH   1   5
ATOM      5  C   UNL A   1      40.924 -22.114 -38.540  0.00  0.00    +0.039 C 
BRANCH   5   6
ATOM      6  C   UNL A   1      41.284 -20.731 -39.051  0.00  0.00    +0.020 C 
BRANCH   6   9
ATOM      7  C   UNL A   1      43.729 -20.570 -39.141  0.00  0.00    +0.246 C 
ATOM      8  O   UNL A   1      43.810 -20.269 -37.954  0.00  0.00    -0.270 OA
ATOM      9  N   UNL A   1      42.526 -20.736 -39.804  0.00  0.00    -0.311 N 
ATOM     10  H   UNL A   1      42.512 -20.857 -40.781  0.00  0.00    +0.000 HD
BRANCH   7  16
ATOM     11  C   UNL A   1      45.856 -19.790 -40.229  0.00  0.00    +0.044 A 
ATOM     12  C   UNL A   1      47.045 -20.114 -40.903  0.00  0.00    -0.040 A 
ATOM     13  C   UNL A   1      47.298 -21.415 -41.348  0.00  0.00    -0.060 A 
ATOM     14  C   UNL A   1      46.376 -22.428 -41.103  0.00  0.00    -0.061 A 
ATOM     15  C   UNL A   1      45.212 -22.148 -40.390  0.00  0.00    -0.048 A 
ATOM     16  C   UNL A   1      44.962 -20.843 -39.930  0.00  0.00    +0.058 A 
BRANCH  11  17
ATOM     17  N   UNL A   1      45.645 -18.480 -39.717  0.00  0.00    -0.314 N 
ATOM     18  H   UNL A   1      45.949 -18.327 -38.793  0.00  0.00    +0.000 HD
BRANCH  17  24
ATOM     19  C   UNL A   1      46.098 -13.939 -41.756  0.00  0.00    -0.039 C 
ATOM     20  C   UNL A   1      45.275 -15.116 -41.308  0.00  0.00    -0.046 A 
ATOM     21  C   UNL A   1      43.878 -15.044 -41.421  0.00  0.00    -0.058 A 
ATOM     22  C   UNL A   1      43.074 -16.096 -40.991  0.00  0.00    -0.060 A 
ATOM     23  C   UNL A   1      43.657 -17.238 -40.450  0.00  0.00    -0.040 A 
ATOM     24  C   UNL A   1      45.052 -17.364 -40.367  0.00  0.00    +0.035 A 
ATOM     25  C   UNL A   1      45.872 -16.290 -40.789  0.00  0.00    -0.026 A 
ATOM     26  C   UNL A   1      47.371 -16.387 -40.631  0.00  0.00    -0.038 C 
ENDBRANCH  17  24
ENDBRANCH  11  17
ENDBRANCH   7  16
ENDBRANCH   6   9
ENDBRANCH   5   6
ENDBRANCH   1   5
BRANCH   3  27
ATOM     27  C   UNL A   1      41.377 -20.687 -35.049  0.00  0.00    +0.012 C 
BRANCH  27  28
ATOM     28  C   UNL A   1      42.824 -20.442 -34.623  0.00  0.00    -0.036 C 
BRANCH  28  29
ATOM     29  C   UNL A   1      42.982 -19.234 -33.697  0.00  0.00    -0.036 C 
BRANCH  29  30
ATOM     30  C   UNL A   1      43.899 -18.179 -34.316  0.00  0.00    +0.009 C 
BRANCH  30  31
ATOM     31  N   UNL A   1      43.838 -18.289 -35.779  0.00  0.00    -0.343 N 
ATOM     32  H   UNL A   1      43.822 -19.143 -36.269  0.00  0.00    +0.000 HD
BRANCH  31  33
ATOM     33  C   UNL A   1      43.803 -17.008 -36.405  0.00  0.00    +0.041 A 
ATOM     34  C   UNL A   1      42.551 -16.469 -36.763  0.00  0.00    -0.005 A 
ATOM     35  C   UNL A   1      42.536 -15.233 -37.407  0.00  0.00    +0.047 A 
ATOM     36  N   UNL A   1      43.662 -14.561 -37.743  0.00  0.00    -0.251 NA
ATOM     37  C   UNL A   1      44.853 -15.080 -37.420  0.00  0.00    +0.074 A 
ATOM     38  C   UNL A   1      45.984 -14.360 -37.776  0.00  0.00    -0.017 A 
ATOM     39  C   UNL A   1      47.262 -14.824 -37.480  0.00  0.00    +0.043 A 
ATOM     40 CL   UNL A   1      48.639 -13.903 -37.943  0.00  0.00    -0.083 Cl
ATOM     41  C   UNL A   1      47.431 -16.029 -36.815  0.00  0.00    -0.043 A 
ATOM     42  C   UNL A   1      46.306 -16.767 -36.448  0.00  0.00    -0.049 A 
ATOM     43  C   UNL A   1      44.997 -16.310 -36.745  0.00  0.00    +0.022 A 
ATOM     44  C   UNL A   1      41.247 -14.575 -37.827  0.00  0.00    -0.010 C 
ATOM     45  C   UNL A   1      40.034 -15.082 -37.056  0.00  0.00    -0.047 C 
ATOM     46  C   UNL A   1      40.022 -16.603 -37.054  0.00  0.00    -0.049 C 
ATOM     47  C   UNL A   1      41.264 -17.149 -36.352  0.00  0.00    -0.024 C 
ENDBRANCH  31  33
ENDBRANCH  30  31
ENDBRANCH  29  30
ENDBRANCH  28  29
ENDBRANCH  27  28
ENDBRANCH   3  27
TORSDOF 12
ENDMDL
MODEL 18
REMARK VINA RESULT:    -7.045     20.441     23.376
REMARK INTER + INTRA:         -15.964
REMARK INTER:                  -9.800
REMARK INTRA:                  -6.164
REMARK UNBOUND:                -3.976
REMARK  Name = cpd177.pdb
REMARK  14 active torsions:
REMARK  status: ('A' for Active; 'I' for Inactive)
REMARK    1  A    between atoms: C_1  and  C_2
REMARK    2  A    between atoms: C_6  and  N_7
REMARK    3  A    between atoms: N_7  and  C_8
REMARK    4  A    between atoms: C_13  and  C_14
REMARK    5  A    between atoms: N_16  and  C_17
REMARK    6  A    between atoms: C_17  and  C_18
REMARK    7  A    between atoms: C_18  and  C_19
REMARK    8  A    between atoms: N_21  and  C_22
REMARK    9  A    between atoms: C_22  and  C_23
REMARK   10  A    between atoms: C_23  and  C_24
REMARK   11  A    between atoms: C_24  and  C_25
REMARK   12  A    between atoms: C_25  and  N_26
REMARK   13  A    between atoms: N_26  and  C_27
REMARK   14  A    between atoms: C_42  and  C_43
REMARK                            x       y       z     vdW  Elec       q    Type
REMARK                         _______ _______ _______ _____ _____    ______ ____
ROOT
ATOM      1  C   UNL A   1      41.981 -14.100 -38.807  0.00  0.00    +0.215 C 
ATOM      2  O   UNL A   1      42.805 -14.578 -38.034  0.00  0.00    -0.276 OA
ATOM      3  N   UNL A   1      42.308 -13.472 -39.987  0.00  0.00    -0.315 N 
ATOM      4  H   UNL A   1      41.586 -13.100 -40.543  0.00  0.00    +0.000 HD
ENDROOT
BRANCH   1   5
ATOM      5  C   UNL A   1      40.496 -14.202 -38.554  0.00  0.00    +0.039 C 
BRANCH   5   6
ATOM      6  C   UNL A   1      40.009 -15.574 -38.981  0.00  0.00    +0.020 C 
BRANCH   6   9
ATOM      7  C   UNL A   1      40.704 -17.492 -37.621  0.00  0.00    +0.246 C 
ATOM      8  O   UNL A   1      39.762 -17.356 -36.845  0.00  0.00    -0.270 OA
ATOM      9  N   UNL A   1      40.968 -16.616 -38.658  0.00  0.00    -0.311 N 
ATOM     10  H   UNL A   1      41.802 -16.698 -39.175  0.00  0.00    +0.000 HD
BRANCH   7  16
ATOM     11  C   UNL A   1      42.247 -18.967 -36.293  0.00  0.00    +0.044 A 
ATOM     12  C   UNL A   1      43.010 -20.144 -36.220  0.00  0.00    -0.040 A 
ATOM     13  C   UNL A   1      43.198 -20.959 -37.341  0.00  0.00    -0.060 A 
ATOM     14  C   UNL A   1      42.604 -20.627 -38.554  0.00  0.00    -0.061 A 
ATOM     15  C   UNL A   1      41.798 -19.493 -38.643  0.00  0.00    -0.048 A 
ATOM     16  C   UNL A   1      41.596 -18.680 -37.514  0.00  0.00    +0.058 A 
BRANCH  11  17
ATOM     17  N   UNL A   1      42.002 -18.187 -35.129  0.00  0.00    -0.314 N 
ATOM     18  H   UNL A   1      41.158 -18.375 -34.657  0.00  0.00    +0.000 HD
BRANCH  17  24
ATOM     19  C   UNL A   1      45.188 -16.710 -31.574  0.00  0.00    -0.039 C 
ATOM     20  C   UNL A   1      44.329 -16.443 -32.780  0.00  0.00    -0.046 A 
ATOM     21  C   UNL A   1      44.238 -15.129 -33.265  0.00  0.00    -0.058 A 
ATOM     22  C   UNL A   1      43.432 -14.829 -34.358  0.00  0.00    -0.060 A 
ATOM     23  C   UNL A   1      42.711 -15.841 -34.988  0.00  0.00    -0.040 A 
ATOM     24  C   UNL A   1      42.816 -17.172 -34.560  0.00  0.00    +0.035 A 
ATOM     25  C   UNL A   1      43.624 -17.479 -33.438  0.00  0.00    -0.026 A 
ATOM     26  C   UNL A   1      43.682 -18.897 -32.923  0.00  0.00    -0.038 C 
ENDBRANCH  17  24
ENDBRANCH  11  17
ENDBRANCH   7  16
ENDBRANCH   6   9
ENDBRANCH   5   6
ENDBRANCH   1   5
BRANCH   3  27
ATOM     27  C   UNL A   1      43.677 -13.339 -40.441  0.00  0.00    +0.012 C 
BRANCH  27  28
ATOM     28  C   UNL A   1      43.930 -14.046 -41.771  0.00  0.00    -0.036 C 
BRANCH  28  29
ATOM     29  C   UNL A   1      43.890 -15.572 -41.657  0.00  0.00    -0.036 C 
BRANCH  29  30
ATOM     30  C   UNL A   1      44.887 -16.075 -40.612  0.00  0.00    +0.009 C 
BRANCH  30  31
ATOM     31  N   UNL A   1      44.202 -17.005 -39.705  0.00  0.00    -0.343 N 
ATOM     32  H   UNL A   1      43.269 -16.901 -39.409  0.00  0.00    +0.000 HD
BRANCH  31  33
ATOM     33  C   UNL A   1      45.053 -18.077 -39.305  0.00  0.00    +0.041 A 
ATOM     34  C   UNL A   1      45.710 -17.985 -38.062  0.00  0.00    -0.005 A 
ATOM     35  C   UNL A   1      46.567 -19.024 -37.702  0.00  0.00    +0.047 A 
ATOM     36  N   UNL A   1      46.829 -20.079 -38.509  0.00  0.00    -0.251 NA
ATOM     37  C   UNL A   1      46.220 -20.159 -39.698  0.00  0.00    +0.074 A 
ATOM     38  C   UNL A   1      46.510 -21.257 -40.494  0.00  0.00    -0.017 A 
ATOM     39  C   UNL A   1      45.923 -21.420 -41.745  0.00  0.00    +0.043 A 
ATOM     40 CL   UNL A   1      46.313 -22.794 -42.704  0.00  0.00    -0.083 Cl
ATOM     41  C   UNL A   1      45.025 -20.478 -42.224  0.00  0.00    -0.043 A 
ATOM     42  C   UNL A   1      44.721 -19.368 -41.438  0.00  0.00    -0.049 A 
ATOM     43  C   UNL A   1      45.313 -19.184 -40.162  0.00  0.00    +0.022 A 
ATOM     44  C   UNL A   1      47.312 -19.017 -36.392  0.00  0.00    -0.010 C 
ATOM     45  C   UNL A   1      46.674 -18.116 -35.342  0.00  0.00    -0.047 C 
ATOM     46  C   UNL A   1      46.390 -16.747 -35.941  0.00  0.00    -0.049 C 
ATOM     47  C   UNL A   1      45.400 -16.862 -37.099  0.00  0.00    -0.024 C 
ENDBRANCH  31  33
ENDBRANCH  30  31
ENDBRANCH  29  30
ENDBRANCH  28  29
ENDBRANCH  27  28
ENDBRANCH   3  27
TORSDOF 12
ENDMDL
MODEL 19
REMARK VINA RESULT:    -6.819     20.394     23.282
REMARK INTER + INTRA:         -15.579
REMARK INTER:                  -9.523
REMARK INTRA:                  -6.056
REMARK UNBOUND:                -3.976
REMARK  Name = cpd177.pdb
REMARK  14 active torsions:
REMARK  status: ('A' for Active; 'I' for Inactive)
REMARK    1  A    between atoms: C_1  and  C_2
REMARK    2  A    between atoms: C_6  and  N_7
REMARK    3  A    between atoms: N_7  and  C_8
REMARK    4  A    between atoms: C_13  and  C_14
REMARK    5  A    between atoms: N_16  and  C_17
REMARK    6  A    between atoms: C_17  and  C_18
REMARK    7  A    between atoms: C_18  and  C_19
REMARK    8  A    between atoms: N_21  and  C_22
REMARK    9  A    between atoms: C_22  and  C_23
REMARK   10  A    between atoms: C_23  and  C_24
REMARK   11  A    between atoms: C_24  and  C_25
REMARK   12  A    between atoms: C_25  and  N_26
REMARK   13  A    between atoms: N_26  and  C_27
REMARK   14  A    between atoms: C_42  and  C_43
REMARK                            x       y       z     vdW  Elec       q    Type
REMARK                         _______ _______ _______ _____ _____    ______ ____
ROOT
ATOM      1  C   UNL A   1      41.961 -14.064 -38.794  0.00  0.00    +0.215 C 
ATOM      2  O   UNL A   1      42.770 -14.573 -38.026  0.00  0.00    -0.276 OA
ATOM      3  N   UNL A   1      42.308 -13.420 -39.960  0.00  0.00    -0.315 N 
ATOM      4  H   UNL A   1      41.597 -13.022 -40.512  0.00  0.00    +0.000 HD
ENDROOT
BRANCH   1   5
ATOM      5  C   UNL A   1      40.473 -14.140 -38.552  0.00  0.00    +0.039 C 
BRANCH   5   6
ATOM      6  C   UNL A   1      39.954 -15.479 -39.043  0.00  0.00    +0.020 C 
BRANCH   6   9
ATOM      7  C   UNL A   1      40.599 -17.449 -37.734  0.00  0.00    +0.246 C 
ATOM      8  O   UNL A   1      39.672 -17.300 -36.945  0.00  0.00    -0.270 OA
ATOM      9  N   UNL A   1      40.882 -16.560 -38.755  0.00  0.00    -0.311 N 
ATOM     10  H   UNL A   1      41.706 -16.658 -39.283  0.00  0.00    +0.000 HD
BRANCH   7  16
ATOM     11  C   UNL A   1      42.110 -19.002 -36.459  0.00  0.00    +0.044 A 
ATOM     12  C   UNL A   1      42.833 -20.206 -36.421  0.00  0.00    -0.040 A 
ATOM     13  C   UNL A   1      42.978 -21.004 -37.560  0.00  0.00    -0.060 A 
ATOM     14  C   UNL A   1      42.378 -20.627 -38.758  0.00  0.00    -0.061 A 
ATOM     15  C   UNL A   1      41.610 -19.465 -38.812  0.00  0.00    -0.048 A 
ATOM     16  C   UNL A   1      41.451 -18.669 -37.664  0.00  0.00    +0.058 A 
BRANCH  11  17
ATOM     17  N   UNL A   1      41.907 -18.239 -35.276  0.00  0.00    -0.314 N 
ATOM     18  H   UNL A   1      41.064 -18.408 -34.796  0.00  0.00    +0.000 HD
BRANCH  17  24
ATOM     19  C   UNL A   1      45.251 -16.968 -31.786  0.00  0.00    -0.039 C 
ATOM     20  C   UNL A   1      44.355 -16.636 -32.948  0.00  0.00    -0.046 A 
ATOM     21  C   UNL A   1      44.276 -15.303 -33.380  0.00  0.00    -0.058 A 
ATOM     22  C   UNL A   1      43.438 -14.944 -34.431  0.00  0.00    -0.060 A 
ATOM     23  C   UNL A   1      42.674 -15.915 -35.072  0.00  0.00    -0.040 A 
ATOM     24  C   UNL A   1      42.764 -17.264 -34.699  0.00  0.00    +0.035 A 
ATOM     25  C   UNL A   1      43.604 -17.631 -33.620  0.00  0.00    -0.026 A 
ATOM     26  C   UNL A   1      43.649 -19.069 -33.162  0.00  0.00    -0.038 C 
ENDBRANCH  17  24
ENDBRANCH  11  17
ENDBRANCH   7  16
ENDBRANCH   6   9
ENDBRANCH   5   6
ENDBRANCH   1   5
BRANCH   3  27
ATOM     27  C   UNL A   1      43.682 -13.305 -40.403  0.00  0.00    +0.012 C 
BRANCH  27  28
ATOM     28  C   UNL A   1      43.917 -13.946 -41.770  0.00  0.00    -0.036 C 
BRANCH  28  29
ATOM     29  C   UNL A   1      43.862 -15.475 -41.735  0.00  0.00    -0.036 C 
BRANCH  29  30
ATOM     30  C   UNL A   1      44.842 -16.040 -40.707  0.00  0.00    +0.009 C 
BRANCH  30  31
ATOM     31  N   UNL A   1      44.132 -16.992 -39.842  0.00  0.00    -0.343 N 
ATOM     32  H   UNL A   1      43.182 -16.915 -39.600  0.00  0.00    +0.000 HD
BRANCH  31  33
ATOM     33  C   UNL A   1      44.989 -18.042 -39.396  0.00  0.00    +0.041 A 
ATOM     34  C   UNL A   1      45.096 -19.202 -40.189  0.00  0.00    -0.005 A 
ATOM     35  C   UNL A   1      45.909 -20.234 -39.721  0.00  0.00    +0.047 A 
ATOM     36  N   UNL A   1      46.550 -20.188 -38.530  0.00  0.00    -0.251 NA
ATOM     37  C   UNL A   1      46.435 -19.094 -37.768  0.00  0.00    +0.074 A 
ATOM     38  C   UNL A   1      47.111 -19.082 -36.557  0.00  0.00    -0.017 A 
ATOM     39  C   UNL A   1      47.047 -17.986 -35.702  0.00  0.00    +0.043 A 
ATOM     40 CL   UNL A   1      47.897 -18.012 -34.207  0.00  0.00    -0.083 Cl
ATOM     41  C   UNL A   1      46.298 -16.872 -36.049  0.00  0.00    -0.043 A 
ATOM     42  C   UNL A   1      45.611 -16.865 -37.263  0.00  0.00    -0.049 A 
ATOM     43  C   UNL A   1      45.664 -17.975 -38.144  0.00  0.00    +0.022 A 
ATOM     44  C   UNL A   1      46.089 -21.513 -40.498  0.00  0.00    -0.010 C 
ATOM     45  C   UNL A   1      45.767 -21.367 -41.981  0.00  0.00    -0.047 C 
ATOM     46  C   UNL A   1      44.420 -20.682 -42.151  0.00  0.00    -0.049 C 
ATOM     47  C   UNL A   1      44.453 -19.275 -41.555  0.00  0.00    -0.024 C 
ENDBRANCH  31  33
ENDBRANCH  30  31
ENDBRANCH  29  30
ENDBRANCH  28  29
ENDBRANCH  27  28
ENDBRANCH   3  27
TORSDOF 12
ENDMDL
MODEL 20
REMARK VINA RESULT:    -6.726     18.965     23.116
REMARK INTER + INTRA:         -15.421
REMARK INTER:                 -10.341
REMARK INTRA:                  -5.080
REMARK UNBOUND:                -3.976
REMARK  Name = cpd177.pdb
REMARK  14 active torsions:
REMARK  status: ('A' for Active; 'I' for Inactive)
REMARK    1  A    between atoms: C_1  and  C_2
REMARK    2  A    between atoms: C_6  and  N_7
REMARK    3  A    between atoms: N_7  and  C_8
REMARK    4  A    between atoms: C_13  and  C_14
REMARK    5  A    between atoms: N_16  and  C_17
REMARK    6  A    between atoms: C_17  and  C_18
REMARK    7  A    between atoms: C_18  and  C_19
REMARK    8  A    between atoms: N_21  and  C_22
REMARK    9  A    between atoms: C_22  and  C_23
REMARK   10  A    between atoms: C_23  and  C_24
REMARK   11  A    between atoms: C_24  and  C_25
REMARK   12  A    between atoms: C_25  and  N_26
REMARK   13  A    between atoms: N_26  and  C_27
REMARK   14  A    between atoms: C_42  and  C_43
REMARK                            x       y       z     vdW  Elec       q    Type
REMARK                         _______ _______ _______ _____ _____    ______ ____
ROOT
ATOM      1  C   UNL A   1      44.170 -13.905 -39.931  0.00  0.00    +0.215 C 
ATOM      2  O   UNL A   1      43.561 -12.850 -39.795  0.00  0.00    -0.276 OA
ATOM      3  N   UNL A   1      43.575 -15.094 -40.290  0.00  0.00    -0.315 N 
ATOM      4  H   UNL A   1      44.134 -15.901 -40.361  0.00  0.00    +0.000 HD
ENDROOT
BRANCH   1   5
ATOM      5  C   UNL A   1      45.668 -13.991 -39.764  0.00  0.00    +0.039 C 
BRANCH   5   6
ATOM      6  C   UNL A   1      46.000 -14.105 -38.288  0.00  0.00    +0.020 C 
BRANCH   6   9
ATOM      7  C   UNL A   1      46.423 -16.453 -37.725  0.00  0.00    +0.246 C 
ATOM      8  O   UNL A   1      47.505 -16.458 -38.305  0.00  0.00    -0.270 OA
ATOM      9  N   UNL A   1      45.561 -15.371 -37.728  0.00  0.00    -0.311 N 
ATOM     10  H   UNL A   1      44.655 -15.459 -37.353  0.00  0.00    +0.000 HD
BRANCH   7  16
ATOM     11  C   UNL A   1      45.987 -18.917 -37.491  0.00  0.00    +0.044 A 
ATOM     12  C   UNL A   1      45.667 -20.004 -36.660  0.00  0.00    -0.040 A 
ATOM     13  C   UNL A   1      45.288 -19.813 -35.327  0.00  0.00    -0.060 A 
ATOM     14  C   UNL A   1      45.248 -18.530 -34.789  0.00  0.00    -0.061 A 
ATOM     15  C   UNL A   1      45.611 -17.438 -35.575  0.00  0.00    -0.048 A 
ATOM     16  C   UNL A   1      46.006 -17.629 -36.911  0.00  0.00    +0.058 A 
BRANCH  11  17
ATOM     17  N   UNL A   1      46.442 -19.131 -38.821  0.00  0.00    -0.314 N 
ATOM     18  H   UNL A   1      47.419 -19.159 -38.941  0.00  0.00    +0.000 HD
BRANCH  17  24
ATOM     19  C   UNL A   1      45.074 -21.989 -42.686  0.00  0.00    -0.039 C 
ATOM     20  C   UNL A   1      45.053 -20.693 -41.921  0.00  0.00    -0.046 A 
ATOM     21  C   UNL A   1      44.354 -19.603 -42.461  0.00  0.00    -0.058 A 
ATOM     22  C   UNL A   1      44.332 -18.376 -41.804  0.00  0.00    -0.060 A 
ATOM     23  C   UNL A   1      45.002 -18.226 -40.593  0.00  0.00    -0.040 A 
ATOM     24  C   UNL A   1      45.669 -19.309 -40.000  0.00  0.00    +0.035 A 
ATOM     25  C   UNL A   1      45.706 -20.553 -40.673  0.00  0.00    -0.026 A 
ATOM     26  C   UNL A   1      46.487 -21.702 -40.080  0.00  0.00    -0.038 C 
ENDBRANCH  17  24
ENDBRANCH  11  17
ENDBRANCH   7  16
ENDBRANCH   6   9
ENDBRANCH   5   6
ENDBRANCH   1   5
BRANCH   3  27
ATOM     27  C   UNL A   1      42.157 -15.200 -40.565  0.00  0.00    +0.012 C 
BRANCH  27  28
ATOM     28  C   UNL A   1      41.412 -16.027 -39.519  0.00  0.00    -0.036 C 
BRANCH  28  29
ATOM     29  C   UNL A   1      41.596 -15.501 -38.094  0.00  0.00    -0.036 C 
BRANCH  29  30
ATOM     30  C   UNL A   1      41.194 -16.552 -37.060  0.00  0.00    +0.009 C 
BRANCH  30  31
ATOM     31  N   UNL A   1      42.313 -17.482 -36.860  0.00  0.00    -0.343 N 
ATOM     32  H   UNL A   1      43.261 -17.223 -36.916  0.00  0.00    +0.000 HD
BRANCH  31  33
ATOM     33  C   UNL A   1      41.859 -18.803 -36.577  0.00  0.00    +0.041 A 
ATOM     34  C   UNL A   1      41.641 -19.163 -35.232  0.00  0.00    -0.005 A 
ATOM     35  C   UNL A   1      41.233 -20.470 -34.968  0.00  0.00    +0.047 A 
ATOM     36  N   UNL A   1      41.088 -21.408 -35.933  0.00  0.00    -0.251 NA
ATOM     37  C   UNL A   1      41.312 -21.073 -37.209  0.00  0.00    +0.074 A 
ATOM     38  C   UNL A   1      41.149 -22.059 -38.170  0.00  0.00    -0.017 A 
ATOM     39  C   UNL A   1      41.361 -21.799 -39.520  0.00  0.00    +0.043 A 
ATOM     40 CL   UNL A   1      41.151 -23.052 -40.680  0.00  0.00    -0.083 Cl
ATOM     41  C   UNL A   1      41.744 -20.533 -39.935  0.00  0.00    -0.043 A 
ATOM     42  C   UNL A   1      41.914 -19.527 -38.984  0.00  0.00    -0.049 A 
ATOM     43  C   UNL A   1      41.704 -19.777 -37.604  0.00  0.00    +0.022 A 
ATOM     44  C   UNL A   1      40.971 -20.949 -33.563  0.00  0.00    -0.010 C 
ATOM     45  C   UNL A   1      40.685 -19.816 -32.585  0.00  0.00    -0.047 C 
ATOM     46  C   UNL A   1      41.747 -18.736 -32.721  0.00  0.00    -0.049 C 
ATOM     47  C   UNL A   1      41.725 -18.136 -34.126  0.00  0.00    -0.024 C 
ENDBRANCH  31  33
ENDBRANCH  30  31
ENDBRANCH  29  30
ENDBRANCH  28  29
ENDBRANCH  27  28
ENDBRANCH   3  27
TORSDOF 12
ENDMDL
