REMARK  Name = cpd177.pdb
REMARK  14 active torsions:
REMARK  status: ('A' for Active; 'I' for Inactive)
REMARK    1  A    between atoms: C_1  and  C_2
REMARK    2  A    between atoms: C_6  and  N_7
REMARK    3  A    between atoms: N_7  and  C_8
REMARK    4  A    between atoms: C_13  and  C_14
REMARK    5  A    between atoms: N_16  and  C_17
REMARK    6  A    between atoms: C_17  and  C_18
REMARK    7  A    between atoms: C_18  and  C_19
REMARK    8  A    between atoms: N_21  and  C_22
REMARK    9  A    between atoms: C_22  and  C_23
REMARK   10  A    between atoms: C_23  and  C_24
REMARK   11  A    between atoms: C_24  and  C_25
REMARK   12  A    between atoms: C_25  and  N_26
REMARK   13  A    between atoms: N_26  and  C_27
REMARK   14  A    between atoms: C_42  and  C_43
REMARK                            x       y       z     vdW  Elec       q    Type
REMARK                         _______ _______ _______ _____ _____    ______ ____
ROOT
ATOM      1  C   UNL A   1      -6.649  -1.996   0.101  0.00  0.00    +0.215 C 
ATOM      2  O   UNL A   1      -7.162  -1.382   1.030  0.00  0.00    -0.276 OA
ATOM      3  N   UNL A   1      -7.027  -1.854  -1.215  0.00  0.00    -0.315 N 
ATOM      4  H   UNL A   1      -6.575  -2.398  -1.900  0.00  0.00    +0.000 HD
ENDROOT
BRANCH   1   5
ATOM      5  C   UNL A   1      -5.497  -2.949   0.312  0.00  0.00    +0.039 C 
BRANCH   5   6
ATOM      6  C   UNL A   1      -4.191  -2.217   0.064  0.00  0.00    +0.020 C 
BRANCH   6   9
ATOM      7  C   UNL A   1      -1.813  -2.713  -0.268  0.00  0.00    +0.246 C 
ATOM      8  O   UNL A   1      -1.661  -1.760  -1.026  0.00  0.00    -0.270 OA
ATOM      9  N   UNL A   1      -3.039  -3.080   0.258  0.00  0.00    -0.311 N 
ATOM     10  H   UNL A   1      -3.130  -3.921   0.761  0.00  0.00    +0.000 HD
BRANCH   7  16
ATOM     11  C   UNL A   1       0.613  -2.868   0.370  0.00  0.00    +0.044 A 
ATOM     12  C   UNL A   1       1.671  -3.640   0.878  0.00  0.00    -0.040 A 
ATOM     13  C   UNL A   1       1.526  -5.012   1.106  0.00  0.00    -0.060 A 
ATOM     14  C   UNL A   1       0.308  -5.637   0.855  0.00  0.00    -0.061 A 
ATOM     15  C   UNL A   1      -0.775  -4.886   0.401  0.00  0.00    -0.048 A 
ATOM     16  C   UNL A   1      -0.635  -3.504   0.185  0.00  0.00    +0.058 A 
BRANCH  11  17
ATOM     17  N   UNL A   1       0.751  -1.461   0.214  0.00  0.00    -0.314 N 
ATOM     18  H   UNL A   1      -0.073  -0.934   0.329  0.00  0.00    +0.000 HD
BRANCH  17  24
ATOM     19  C   UNL A   1       3.312   2.825   0.438  0.00  0.00    -0.039 C 
ATOM     20  C   UNL A   1       3.143   1.403  -0.024  0.00  0.00    -0.046 A 
ATOM     21  C   UNL A   1       4.111   0.852  -0.877  0.00  0.00    -0.058 A 
ATOM     22  C   UNL A   1       3.981  -0.449  -1.354  0.00  0.00    -0.060 A 
ATOM     23  C   UNL A   1       2.885  -1.220  -0.977  0.00  0.00    -0.040 A 
ATOM     24  C   UNL A   1       1.924  -0.718  -0.087  0.00  0.00    +0.035 A 
ATOM     25  C   UNL A   1       2.045   0.610   0.388  0.00  0.00    -0.026 A 
ATOM     26  C   UNL A   1       0.974   1.184   1.285  0.00  0.00    -0.038 C 
ENDBRANCH  17  24
ENDBRANCH  11  17
ENDBRANCH   7  16
ENDBRANCH   6   9
ENDBRANCH   5   6
ENDBRANCH   1   5
BRANCH   3  27
ATOM     27  C   UNL A   1      -8.065  -0.933  -1.629  0.00  0.00    +0.012 C 
BRANCH  27  28
ATOM     28  C   UNL A   1      -9.421  -1.613  -1.810  0.00  0.00    -0.036 C 
BRANCH  28  29
ATOM     29  C   UNL A   1     -10.050  -2.061  -0.489  0.00  0.00    -0.036 C 
BRANCH  29  30
ATOM     30  C   UNL A   1     -11.467  -2.593  -0.703  0.00  0.00    +0.009 C 
BRANCH  30  31
ATOM     31  N   UNL A   1     -12.030  -2.994   0.593  0.00  0.00    -0.343 N 
ATOM     32  H   UNL A   1     -11.559  -2.900   1.452  0.00  0.00    +0.000 HD
BRANCH  31  33
ATOM     33  C   UNL A   1     -13.342  -3.536   0.455  0.00  0.00    +0.041 A 
ATOM     34  C   UNL A   1     -13.479  -4.931   0.307  0.00  0.00    -0.005 A 
ATOM     35  C   UNL A   1     -14.765  -5.442   0.136  0.00  0.00    +0.047 A 
ATOM     36  N   UNL A   1     -15.867  -4.659   0.057  0.00  0.00    -0.251 NA
ATOM     37  C   UNL A   1     -15.736  -3.333   0.180  0.00  0.00    +0.074 A 
ATOM     38  C   UNL A   1     -16.888  -2.565   0.099  0.00  0.00    -0.017 A 
ATOM     39  C   UNL A   1     -16.845  -1.179   0.215  0.00  0.00    +0.043 A 
ATOM     40 CL   UNL A   1     -18.296  -0.262   0.105  0.00  0.00    -0.083 Cl
ATOM     41  C   UNL A   1     -15.635  -0.532   0.417  0.00  0.00    -0.043 A 
ATOM     42  C   UNL A   1     -14.466  -1.287   0.501  0.00  0.00    -0.049 A 
ATOM     43  C   UNL A   1     -14.492  -2.700   0.382  0.00  0.00    +0.022 A 
ATOM     44  C   UNL A   1     -15.014  -6.919  -0.028  0.00  0.00    -0.010 C 
ATOM     45  C   UNL A   1     -13.883  -7.784   0.516  0.00  0.00    -0.047 C 
ATOM     46  C   UNL A   1     -12.549  -7.282  -0.015  0.00  0.00    -0.049 C 
ATOM     47  C   UNL A   1     -12.289  -5.851   0.453  0.00  0.00    -0.024 C 
ENDBRANCH  31  33
ENDBRANCH  30  31
ENDBRANCH  29  30
ENDBRANCH  28  29
ENDBRANCH  27  28
ENDBRANCH   3  27
TORSDOF 12
