@<TRIPOS>MOLECULE
*****
 43 46 0 0 0
SMALL
GASTEIGER

@<TRIPOS>ATOM
      1 C           0.1340   -1.5000    0.0000 C.3     1  UNL1        0.0671
      2 C           1.0000   -1.0000    0.0000 C.3     1  UNL1        0.1088
      3 N           1.0000    0.0000    0.0000 N.4     1  UNL1        0.2998
      4 C           2.0000    0.0000    0.0000 C.3     1  UNL1        0.1088
      5 C           2.5000    0.8660    0.0000 C.3     1  UNL1        0.0671
      6 C           1.0000    1.0000    0.0000 C.3     1  UNL1        0.1088
      7 C           0.1340    1.5000    0.0000 C.3     1  UNL1        0.0671
      8 C           0.0000    0.0000    0.0000 C.3     1  UNL1        0.1566
      9 C          -0.5000    0.8660    0.0000 C.3     1  UNL1        0.2658
     10 O          -1.5000    0.8660    0.0000 O.3     1  UNL1       -0.4691
     11 C          -2.0000    1.7321    0.0000 C.ar    1  UNL1        0.1389
     12 C          -3.0000    1.7321    0.0000 C.ar    1  UNL1        0.0370
     13 C          -3.5000    2.5981    0.0000 C.ar    1  UNL1        0.0077
     14 C          -3.0000    3.4641    0.0000 C.ar    1  UNL1        0.0552
     15 C          -3.5000    4.3301    0.0000 C.2     1  UNL1        0.2648
     16 O          -3.0000    5.1962    0.0000 O.2     1  UNL1       -0.2684
     17 N          -4.5000    4.3301    0.0000 N.am    1  UNL1       -0.2017
     18 C          -5.0000    5.1962    0.0000 C.3     1  UNL1        0.1155
     19 C          -6.0000    5.1962    0.0000 C.3     1  UNL1        0.0235
     20 C          -6.5000    6.0622    0.0000 C.3     1  UNL1        0.0023
     21 C          -7.5000    6.0622    0.0000 C.3     1  UNL1        0.0097
     22 C          -8.0000    6.9282    0.0000 C.3     1  UNL1        0.0885
     23 C          -9.0000    6.9282    0.0000 C.2     1  UNL1        0.2606
     24 O          -9.5000    7.7942    0.0000 O.2     1  UNL1       -0.2717
     25 N          -9.5000    6.0622    0.0000 N.am    1  UNL1       -0.0905
     26 N         -10.5000    6.0622    0.0000 N.pl3   1  UNL1       -0.1256
     27 C         -11.0000    5.1962    0.0000 C.ar    1  UNL1        0.0877
     28 C         -12.0000    5.1962    0.0000 C.ar    1  UNL1        0.0081
     29 C         -12.5000    4.3301    0.0000 C.ar    1  UNL1        0.0563
     30 N         -12.0000    3.4641    0.0000 N.ar    1  UNL1       -0.2499
     31 C         -11.0000    3.4641    0.0000 C.ar    1  UNL1        0.0830
     32 C         -10.5000    2.5981    0.0000 C.ar    1  UNL1        0.0305
     33 C          -9.5000    2.5981    0.0000 C.ar    1  UNL1        0.0592
     34 CL         -9.0000    1.7321    0.0000 Cl      1  UNL1       -0.0822
     35 C          -9.0000    3.4641    0.0000 C.ar    1  UNL1        0.0115
     36 C          -9.5000    4.3301    0.0000 C.ar    1  UNL1        0.0037
     37 C         -10.5000    4.3301    0.0000 C.ar    1  UNL1        0.0342
     38 C         -13.5000    4.3301    0.0000 C.3     1  UNL1        0.0455
     39 C         -14.0000    5.1962    0.0000 C.3     1  UNL1        0.0066
     40 C         -13.5000    6.0622    0.0000 C.3     1  UNL1        0.0052
     41 C         -12.5000    6.0622    0.0000 C.3     1  UNL1        0.0289
     42 C          -2.0000    3.4641    0.0000 C.ar    1  UNL1        0.0077
     43 C          -1.5000    2.5981    0.0000 C.ar    1  UNL1        0.0370
@<TRIPOS>UNITY_ATOM_ATTR
3 1
charge 1
@<TRIPOS>BOND
     1     1     2    1
     2     2     3    1
     3     3     4    1
     4     4     5    1
     5     3     6    1
     6     6     7    1
     7     3     8    1
     8     8     9    1
     9     9    10    1
    10    10    11    1
    11    11    12   ar
    12    12    13   ar
    13    13    14   ar
    14    14    15    1
    15    15    16    2
    16    15    17   am
    17    17    18    1
    18    18    19    1
    19    19    20    1
    20    20    21    1
    21    21    22    1
    22    22    23    1
    23    23    24    2
    24    23    25   am
    25    25    26    1
    26    26    27    1
    27    27    28   ar
    28    28    29   ar
    29    29    30   ar
    30    30    31   ar
    31    31    32   ar
    32    32    33   ar
    33    33    34    1
    34    33    35   ar
    35    35    36   ar
    36    36    37   ar
    37    27    37   ar
    38    31    37   ar
    39    29    38    1
    40    38    39    1
    41    39    40    1
    42    40    41    1
    43    28    41    1
    44    14    42   ar
    45    42    43   ar
    46    11    43   ar
