REMARK  Name = cpd106.pdb
REMARK  19 active torsions:
REMARK  status: ('A' for Active; 'I' for Inactive)
REMARK    1  A    between atoms: C_1  and  C_2
REMARK    2  A    between atoms: C_2  and  N_3
REMARK    3  A    between atoms: N_3  and  C_4
REMARK    4  A    between atoms: N_3  and  C_6
REMARK    5  A    between atoms: N_3  and  C_8
REMARK    6  A    between atoms: C_4  and  C_5
REMARK    7  A    between atoms: C_6  and  C_7
REMARK    8  A    between atoms: C_8  and  C_9
REMARK    9  A    between atoms: C_9  and  O_10
REMARK   10  A    between atoms: O_10  and  C_11
REMARK   11  A    between atoms: C_14  and  C_15
REMARK   12  A    between atoms: N_17  and  C_18
REMARK   13  A    between atoms: C_18  and  C_19
REMARK   14  A    between atoms: C_19  and  C_20
REMARK   15  A    between atoms: C_20  and  C_21
REMARK   16  A    between atoms: C_21  and  C_22
REMARK   17  A    between atoms: C_22  and  C_23
REMARK   18  A    between atoms: N_25  and  N_26
REMARK   19  A    between atoms: N_26  and  C_27
REMARK                            x       y       z     vdW  Elec       q    Type
REMARK                         _______ _______ _______ _____ _____    ______ ____
ROOT
ATOM      1  C   UNL     1      -7.172   8.552  -0.319  0.00  0.00    -0.051 C 
ENDROOT
BRANCH   1   2
ATOM      2  C   UNL     1      -6.314   7.292  -0.408  0.00  0.00    -0.037 C 
BRANCH   2   3
ATOM      3  C   UNL     1      -4.900   7.528  -0.922  0.00  0.00    +0.012 C 
BRANCH   3   6
ATOM      4  C   UNL     1      -3.899   5.396  -0.225  0.00  0.00    +0.244 C 
ATOM      5  O   UNL     1      -3.817   5.730   0.952  0.00  0.00    -0.270 OA
ATOM      6  N   UNL     1      -4.288   6.248  -1.239  0.00  0.00    -0.311 N 
ATOM      7  H   UNL     1      -4.151   5.988  -2.179  0.00  0.00    +0.000 HD
BRANCH   4  11
ATOM      8  C   UNL     1      -2.837   1.361  -1.115  0.00  0.00    +0.120 A 
ATOM      9  C   UNL     1      -3.369   1.686   0.129  0.00  0.00    -0.019 A 
ATOM     10  C   UNL     1      -3.738   3.004   0.391  0.00  0.00    -0.046 A 
ATOM     11  C   UNL     1      -3.611   3.987  -0.603  0.00  0.00    +0.037 A 
ATOM     12  C   UNL     1      -3.177   3.625  -1.884  0.00  0.00    -0.046 A 
ATOM     13  C   UNL     1      -2.810   2.303  -2.145  0.00  0.00    -0.019 A 
BRANCH   8  14
ATOM     14  O   UNL     1      -2.301   0.113  -1.265  0.00  0.00    -0.494 OA
BRANCH  14  15
ATOM     15  C   UNL     1      -0.884   0.151  -1.509  0.00  0.00    +0.075 C 
BRANCH  15  16
ATOM     16  C   UNL     1       0.000   0.000   0.000  0.00  0.00    -0.053 C 
BRANCH  16  17
ATOM     17  N   UNL     1       1.000   0.000   0.000  0.00  0.00    +0.382 N 
BRANCH  17  18
ATOM     18  C   UNL     1       1.000   1.000   0.000  0.00  0.00    -0.091 C 
ATOM     19  C   UNL     1       0.045   2.407   0.097  0.00  0.00    -0.080 C 
ENDBRANCH  17  18
BRANCH  17  21
ATOM     20  C   UNL     1       0.814  -1.856   1.468  0.00  0.00    -0.080 C 
ATOM     21  C   UNL     1       1.000  -1.000   0.000  0.00  0.00    -0.091 C 
ENDBRANCH  17  21
BRANCH  17  22
ATOM     22  C   UNL     1       2.000   0.000   0.000  0.00  0.00    -0.091 C 
ATOM     23  C   UNL     1       3.316   1.155   0.182  0.00  0.00    -0.080 C 
ENDBRANCH  17  22
ENDBRANCH  16  17
ENDBRANCH  15  16
ENDBRANCH  14  15
ENDBRANCH   8  14
ENDBRANCH   4  11
ENDBRANCH   3   6
ENDBRANCH   2   3
ENDBRANCH   1   2
BRANCH   1  24
ATOM     24  C   UNL     1      -8.521   8.152   0.272  0.00  0.00    -0.045 C 
BRANCH  24  25
ATOM     25  C   UNL     1      -9.599   9.228   0.191  0.00  0.00    +0.025 C 
BRANCH  25  26
ATOM     26  C   UNL     1     -10.827   8.760   0.951  0.00  0.00    +0.229 C 
ATOM     27  O   UNL     1     -11.243   9.333   1.954  0.00  0.00    -0.274 OA
ATOM     28  N   UNL     1     -11.397   7.607   0.426  0.00  0.00    -0.236 N 
ATOM     29  H   UNL     1     -11.375   7.400  -0.536  0.00  0.00    +0.000 HD
BRANCH  28  30
ATOM     30  N   UNL     1     -12.013   6.749   1.373  0.00  0.00    -0.264 N 
ATOM     31  H   UNL     1     -12.177   6.986   2.314  0.00  0.00    +0.000 HD
BRANCH  30  32
ATOM     32  C   UNL     1     -12.363   5.499   0.783  0.00  0.00    +0.058 A 
ATOM     33  C   UNL     1     -13.667   5.271   0.308  0.00  0.00    -0.003 A 
ATOM     34  C   UNL     1     -13.923   4.043  -0.306  0.00  0.00    +0.047 A 
ATOM     35  N   UNL     1     -12.965   3.109  -0.524  0.00  0.00    -0.251 NA
ATOM     36  C   UNL     1     -11.717   3.335  -0.096  0.00  0.00    +0.074 A 
ATOM     37  C   UNL     1     -10.754   2.364  -0.336  0.00  0.00    -0.017 A 
ATOM     38  C   UNL     1      -9.437   2.529   0.086  0.00  0.00    +0.043 A 
ATOM     39 CL   UNL     1      -8.266   1.311  -0.243  0.00  0.00    -0.083 Cl
ATOM     40  C   UNL     1      -9.061   3.672   0.776  0.00  0.00    -0.043 A 
ATOM     41  C   UNL     1     -10.016   4.655   1.027  0.00  0.00    -0.049 A 
ATOM     42  C   UNL     1     -11.353   4.516   0.578  0.00  0.00    +0.023 A 
ATOM     43  C   UNL     1     -15.290   3.690  -0.834  0.00  0.00    -0.010 C 
ATOM     44  C   UNL     1     -16.404   4.536  -0.228  0.00  0.00    -0.047 C 
ATOM     45  C   UNL     1     -16.031   6.008  -0.307  0.00  0.00    -0.049 C 
ATOM     46  C   UNL     1     -14.769   6.285   0.507  0.00  0.00    -0.024 C 
ENDBRANCH  30  32
ENDBRANCH  28  30
ENDBRANCH  25  26
ENDBRANCH  24  25
ENDBRANCH   1  24
TORSDOF 16
