MODEL 1
REMARK VINA RESULT:    -9.045      0.000      0.000
REMARK INTER + INTRA:         -11.710
REMARK INTER:                 -10.895
REMARK INTRA:                  -0.815
REMARK UNBOUND:                -0.815
REMARK  Name = cpd310.pdb
REMARK  5 active torsions:
REMARK  status: ('A' for Active; 'I' for Inactive)
REMARK    1  A    between atoms: C_1  and  O_2
REMARK    2  A    between atoms: O_2  and  C_3
REMARK    3  A    between atoms: C_12  and  O_13
REMARK    4  A    between atoms: N_19  and  C_20
REMARK    5  A    between atoms: C_20  and  C_21
REMARK                            x       y       z     vdW  Elec       q    Type
REMARK                         _______ _______ _______ _____ _____    ______ ____
ROOT
ATOM      1  C   UNL     1      32.197 -33.557 -29.628  0.00  0.00    +0.162 A 
ATOM      2  C   UNL     1      32.832 -32.417 -30.126  0.00  0.00    -0.016 A 
ATOM      3  C   UNL     1      34.202 -32.442 -30.467  0.00  0.00    -0.053 A 
ATOM      4  C   UNL     1      34.982 -33.598 -30.295  0.00  0.00    -0.026 A 
ATOM      5  C   UNL     1      34.376 -34.671 -29.659  0.00  0.00    +0.016 A 
ATOM      6  C   UNL     1      32.995 -34.669 -29.412  0.00  0.00    +0.167 A 
ATOM      7  O   UNL     1      32.520 -35.922 -29.037  0.00  0.00    -0.484 OA
ATOM      8  C   UNL     1      33.728 -36.508 -28.534  0.00  0.00    +0.116 C 
ATOM      9  C   UNL     1      33.741 -38.019 -28.360  0.00  0.00    +0.015 C 
ATOM     10  C   UNL     1      35.072 -38.416 -27.679  0.00  0.00    +0.077 C 
ATOM     11  C   UNL     1      36.201 -37.418 -27.831  0.00  0.00    -0.059 C 
ATOM     12  C   UNL     1      36.132 -36.310 -28.598  0.00  0.00    -0.071 C 
ATOM     13  C   UNL     1      34.903 -36.049 -29.434  0.00  0.00    +0.056 C 
ATOM     14  C   UNL     1      35.040 -36.708 -30.830  0.00  0.00    -0.023 C 
ATOM     15  C   UNL     1      35.847 -35.882 -31.867  0.00  0.00    +0.001 C 
ATOM     16  N   UNL     1      36.874 -35.025 -31.250  0.00  0.00    -0.294 N 
ATOM     17  C   UNL     1      36.369 -33.674 -30.899  0.00  0.00    +0.025 C 
ATOM     18  H   UNL     1      37.126 -35.503 -30.385  0.00  0.00    +0.000 HD
ENDROOT
BRANCH   1  20
ATOM     19  C   UNL     1      30.126 -32.479 -29.196  0.00  0.00    +0.079 C 
ATOM     20  O   UNL     1      30.871 -33.680 -29.337  0.00  0.00    -0.491 OA
ENDBRANCH   1  20
BRANCH  10  21
ATOM     21  O   UNL     1      34.856 -38.539 -26.276  0.00  0.00    -0.388 OA
ATOM     22  H   UNL     1      33.963 -38.881 -26.115  0.00  0.00    +0.000 HD
ENDBRANCH  10  21
BRANCH  16  23
ATOM     23  C   UNL     1      38.076 -34.897 -32.090  0.00  0.00    +0.024 C 
BRANCH  23  24
ATOM     24  C   UNL     1      39.192 -35.845 -31.693  0.00  0.00    -0.033 A 
ATOM     25  C   UNL     1      40.342 -35.971 -32.488  0.00  0.00    -0.056 A 
ATOM     26  C   UNL     1      41.363 -36.853 -32.130  0.00  0.00    -0.047 A 
ATOM     27  C   UNL     1      41.235 -37.624 -30.978  0.00  0.00    +0.018 A 
ATOM     28 BR   UNL     1      42.615 -38.821 -30.491  0.00  0.00    -0.050 Br
ATOM     29  C   UNL     1      40.095 -37.522 -30.182  0.00  0.00    -0.047 A 
ATOM     30  C   UNL     1      39.076 -36.636 -30.540  0.00  0.00    -0.056 A 
ENDBRANCH  23  24
ENDBRANCH  16  23
TORSDOF 4
ENDMDL
MODEL 2
REMARK VINA RESULT:    -8.119      2.355      4.279
REMARK INTER + INTRA:         -10.596
REMARK INTER:                  -9.970
REMARK INTRA:                  -0.625
REMARK UNBOUND:                -0.815
REMARK  Name = cpd310.pdb
REMARK  5 active torsions:
REMARK  status: ('A' for Active; 'I' for Inactive)
REMARK    1  A    between atoms: C_1  and  O_2
REMARK    2  A    between atoms: O_2  and  C_3
REMARK    3  A    between atoms: C_12  and  O_13
REMARK    4  A    between atoms: N_19  and  C_20
REMARK    5  A    between atoms: C_20  and  C_21
REMARK                            x       y       z     vdW  Elec       q    Type
REMARK                         _______ _______ _______ _____ _____    ______ ____
ROOT
ATOM      1  C   UNL     1      30.853 -36.464 -31.534  0.00  0.00    +0.162 A 
ATOM      2  C   UNL     1      31.212 -37.813 -31.564  0.00  0.00    -0.016 A 
ATOM      3  C   UNL     1      32.498 -38.229 -31.158  0.00  0.00    -0.053 A 
ATOM      4  C   UNL     1      33.471 -37.307 -30.737  0.00  0.00    -0.026 A 
ATOM      5  C   UNL     1      33.151 -35.963 -30.859  0.00  0.00    +0.016 A 
ATOM      6  C   UNL     1      31.843 -35.565 -31.171  0.00  0.00    +0.167 A 
ATOM      7  O   UNL     1      31.639 -34.203 -30.970  0.00  0.00    -0.484 OA
ATOM      8  C   UNL     1      32.989 -33.730 -31.073  0.00  0.00    +0.116 C 
ATOM      9  C   UNL     1      33.272 -32.332 -30.544  0.00  0.00    +0.015 C 
ATOM     10  C   UNL     1      34.738 -31.974 -30.882  0.00  0.00    +0.077 C 
ATOM     11  C   UNL     1      35.655 -33.156 -31.123  0.00  0.00    -0.059 C 
ATOM     12  C   UNL     1      35.290 -34.443 -30.946  0.00  0.00    -0.071 C 
ATOM     13  C   UNL     1      33.921 -34.770 -30.401  0.00  0.00    +0.056 C 
ATOM     14  C   UNL     1      33.945 -34.820 -28.853  0.00  0.00    -0.023 C 
ATOM     15  C   UNL     1      34.439 -36.162 -28.249  0.00  0.00    +0.001 C 
ATOM     16  N   UNL     1      35.397 -36.867 -29.117  0.00  0.00    -0.294 N 
ATOM     17  C   UNL     1      34.743 -37.795 -30.073  0.00  0.00    +0.025 C 
ATOM     18  H   UNL     1      35.854 -36.130 -29.654  0.00  0.00    +0.000 HD
ENDROOT
BRANCH   1  20
ATOM     19  C   UNL     1      29.365 -35.629 -33.185  0.00  0.00    +0.079 C 
ATOM     20  O   UNL     1      29.625 -35.948 -31.826  0.00  0.00    -0.491 OA
ENDBRANCH   1  20
BRANCH  10  21
ATOM     21  O   UNL     1      34.764 -31.217 -32.090  0.00  0.00    -0.388 OA
ATOM     22  H   UNL     1      33.857 -30.993 -32.350  0.00  0.00    +0.000 HD
ENDBRANCH  10  21
BRANCH  16  23
ATOM     23  C   UNL     1      36.419 -37.597 -28.347  0.00  0.00    +0.024 C 
BRANCH  23  24
ATOM     24  C   UNL     1      37.802 -37.530 -28.968  0.00  0.00    -0.033 A 
ATOM     25  C   UNL     1      37.999 -36.909 -30.211  0.00  0.00    -0.056 A 
ATOM     26  C   UNL     1      39.269 -36.860 -30.789  0.00  0.00    -0.047 A 
ATOM     27  C   UNL     1      40.349 -37.442 -30.131  0.00  0.00    +0.018 A 
ATOM     28 BR   UNL     1      42.070 -37.377 -30.912  0.00  0.00    -0.050 Br
ATOM     29  C   UNL     1      40.170 -38.073 -28.901  0.00  0.00    -0.047 A 
ATOM     30  C   UNL     1      38.900 -38.119 -28.323  0.00  0.00    -0.056 A 
ENDBRANCH  23  24
ENDBRANCH  16  23
TORSDOF 4
ENDMDL
MODEL 3
REMARK VINA RESULT:    -7.924      3.628      7.097
REMARK INTER + INTRA:         -10.360
REMARK INTER:                  -9.776
REMARK INTRA:                  -0.583
REMARK UNBOUND:                -0.815
REMARK  Name = cpd310.pdb
REMARK  5 active torsions:
REMARK  status: ('A' for Active; 'I' for Inactive)
REMARK    1  A    between atoms: C_1  and  O_2
REMARK    2  A    between atoms: O_2  and  C_3
REMARK    3  A    between atoms: C_12  and  O_13
REMARK    4  A    between atoms: N_19  and  C_20
REMARK    5  A    between atoms: C_20  and  C_21
REMARK                            x       y       z     vdW  Elec       q    Type
REMARK                         _______ _______ _______ _____ _____    ______ ____
ROOT
ATOM      1  C   UNL     1      38.622 -35.909 -31.147  0.00  0.00    +0.162 A 
ATOM      2  C   UNL     1      39.200 -36.886 -30.333  0.00  0.00    -0.016 A 
ATOM      3  C   UNL     1      38.445 -37.534 -29.332  0.00  0.00    -0.053 A 
ATOM      4  C   UNL     1      37.099 -37.204 -29.096  0.00  0.00    -0.026 A 
ATOM      5  C   UNL     1      36.586 -36.129 -29.807  0.00  0.00    +0.016 A 
ATOM      6  C   UNL     1      37.312 -35.558 -30.863  0.00  0.00    +0.167 A 
ATOM      7  O   UNL     1      36.539 -34.698 -31.635  0.00  0.00    -0.484 OA
ATOM      8  C   UNL     1      35.520 -34.354 -30.686  0.00  0.00    +0.116 C 
ATOM      9  C   UNL     1      34.252 -33.718 -31.234  0.00  0.00    +0.015 C 
ATOM     10  C   UNL     1      33.363 -33.303 -30.039  0.00  0.00    +0.077 C 
ATOM     11  C   UNL     1      33.631 -34.042 -28.744  0.00  0.00    -0.059 C 
ATOM     12  C   UNL     1      34.488 -35.079 -28.629  0.00  0.00    -0.071 C 
ATOM     13  C   UNL     1      35.185 -35.618 -29.854  0.00  0.00    +0.056 C 
ATOM     14  C   UNL     1      34.330 -36.719 -30.531  0.00  0.00    -0.023 C 
ATOM     15  C   UNL     1      34.468 -38.132 -29.904  0.00  0.00    +0.001 C 
ATOM     16  N   UNL     1      34.789 -38.098 -28.468  0.00  0.00    -0.294 N 
ATOM     17  C   UNL     1      36.249 -38.080 -28.198  0.00  0.00    +0.025 C 
ATOM     18  H   UNL     1      34.396 -37.218 -28.133  0.00  0.00    +0.000 HD
ENDROOT
BRANCH   1  20
ATOM     19  C   UNL     1      40.382 -35.879 -32.740  0.00  0.00    +0.079 C 
ATOM     20  O   UNL     1      39.221 -35.271 -32.193  0.00  0.00    -0.491 OA
ENDBRANCH   1  20
BRANCH  10  21
ATOM     21  O   UNL     1      33.591 -31.926 -29.747  0.00  0.00    -0.388 OA
ATOM     22  H   UNL     1      34.284 -31.849 -29.073  0.00  0.00    +0.000 HD
ENDBRANCH  10  21
BRANCH  16  23
ATOM     23  C   UNL     1      34.168 -39.209 -27.727  0.00  0.00    +0.024 C 
BRANCH  23  24
ATOM     24  C   UNL     1      33.924 -38.894 -26.263  0.00  0.00    -0.033 A 
ATOM     25  C   UNL     1      33.943 -37.568 -25.803  0.00  0.00    -0.056 A 
ATOM     26  C   UNL     1      33.733 -37.279 -24.453  0.00  0.00    -0.047 A 
ATOM     27  C   UNL     1      33.512 -38.318 -23.552  0.00  0.00    +0.018 A 
ATOM     28 BR   UNL     1      33.228 -37.930 -21.724  0.00  0.00    -0.050 Br
ATOM     29  C   UNL     1      33.501 -39.642 -23.989  0.00  0.00    -0.047 A 
ATOM     30  C   UNL     1      33.709 -39.928 -25.339  0.00  0.00    -0.056 A 
ENDBRANCH  23  24
ENDBRANCH  16  23
TORSDOF 4
ENDMDL
MODEL 4
REMARK VINA RESULT:    -7.849      2.058      2.857
REMARK INTER + INTRA:         -10.270
REMARK INTER:                  -9.442
REMARK INTRA:                  -0.828
REMARK UNBOUND:                -0.815
REMARK  Name = cpd310.pdb
REMARK  5 active torsions:
REMARK  status: ('A' for Active; 'I' for Inactive)
REMARK    1  A    between atoms: C_1  and  O_2
REMARK    2  A    between atoms: O_2  and  C_3
REMARK    3  A    between atoms: C_12  and  O_13
REMARK    4  A    between atoms: N_19  and  C_20
REMARK    5  A    between atoms: C_20  and  C_21
REMARK                            x       y       z     vdW  Elec       q    Type
REMARK                         _______ _______ _______ _____ _____    ______ ____
ROOT
ATOM      1  C   UNL     1      31.850 -37.149 -28.033  0.00  0.00    +0.162 A 
ATOM      2  C   UNL     1      32.003 -35.762 -27.978  0.00  0.00    -0.016 A 
ATOM      3  C   UNL     1      33.182 -35.145 -28.449  0.00  0.00    -0.053 A 
ATOM      4  C   UNL     1      34.252 -35.898 -28.963  0.00  0.00    -0.026 A 
ATOM      5  C   UNL     1      34.146 -37.277 -28.869  0.00  0.00    +0.016 A 
ATOM      6  C   UNL     1      32.937 -37.878 -28.490  0.00  0.00    +0.167 A 
ATOM      7  O   UNL     1      32.927 -39.249 -28.726  0.00  0.00    -0.484 OA
ATOM      8  C   UNL     1      34.336 -39.514 -28.726  0.00  0.00    +0.116 C 
ATOM      9  C   UNL     1      34.789 -40.838 -29.321  0.00  0.00    +0.015 C 
ATOM     10  C   UNL     1      36.312 -40.977 -29.089  0.00  0.00    +0.077 C 
ATOM     11  C   UNL     1      37.055 -39.677 -28.863  0.00  0.00    -0.059 C 
ATOM     12  C   UNL     1      36.490 -38.456 -28.971  0.00  0.00    -0.071 C 
ATOM     13  C   UNL     1      35.054 -38.327 -29.417  0.00  0.00    +0.056 C 
ATOM     14  C   UNL     1      34.966 -38.233 -30.961  0.00  0.00    -0.023 C 
ATOM     15  C   UNL     1      35.211 -36.817 -31.545  0.00  0.00    +0.001 C 
ATOM     16  N   UNL     1      36.109 -35.996 -30.715  0.00  0.00    -0.294 N 
ATOM     17  C   UNL     1      35.388 -35.204 -29.687  0.00  0.00    +0.025 C 
ATOM     18  H   UNL     1      36.706 -36.669 -30.234  0.00  0.00    +0.000 HD
ENDROOT
BRANCH   1  20
ATOM     19  C   UNL     1      30.107 -37.502 -26.460  0.00  0.00    +0.079 C 
ATOM     20  O   UNL     1      30.736 -37.854 -27.684  0.00  0.00    -0.491 OA
ENDBRANCH   1  20
BRANCH  10  21
ATOM     21  O   UNL     1      36.532 -41.753 -27.913  0.00  0.00    -0.388 OA
ATOM     22  H   UNL     1      37.016 -42.560 -28.145  0.00  0.00    +0.000 HD
ENDBRANCH  10  21
BRANCH  16  23
ATOM     23  C   UNL     1      36.955 -35.100 -31.520  0.00  0.00    +0.024 C 
BRANCH  23  24
ATOM     24  C   UNL     1      38.438 -35.394 -31.390  0.00  0.00    -0.033 A 
ATOM     25  C   UNL     1      39.393 -34.490 -31.878  0.00  0.00    -0.056 A 
ATOM     26  C   UNL     1      40.757 -34.766 -31.771  0.00  0.00    -0.047 A 
ATOM     27  C   UNL     1      41.175 -35.957 -31.182  0.00  0.00    +0.018 A 
ATOM     28 BR   UNL     1      43.021 -36.335 -31.036  0.00  0.00    -0.050 Br
ATOM     29  C   UNL     1      40.240 -36.873 -30.702  0.00  0.00    -0.047 A 
ATOM     30  C   UNL     1      38.876 -36.593 -30.808  0.00  0.00    -0.056 A 
ENDBRANCH  23  24
ENDBRANCH  16  23
TORSDOF 4
ENDMDL
MODEL 5
REMARK VINA RESULT:    -7.476      3.899      7.485
REMARK INTER + INTRA:          -9.820
REMARK INTER:                  -9.790
REMARK INTRA:                  -0.030
REMARK UNBOUND:                -0.815
REMARK  Name = cpd310.pdb
REMARK  5 active torsions:
REMARK  status: ('A' for Active; 'I' for Inactive)
REMARK    1  A    between atoms: C_1  and  O_2
REMARK    2  A    between atoms: O_2  and  C_3
REMARK    3  A    between atoms: C_12  and  O_13
REMARK    4  A    between atoms: N_19  and  C_20
REMARK    5  A    between atoms: C_20  and  C_21
REMARK                            x       y       z     vdW  Elec       q    Type
REMARK                         _______ _______ _______ _____ _____    ______ ____
ROOT
ATOM      1  C   UNL     1      37.458 -37.032 -29.968  0.00  0.00    +0.162 A 
ATOM      2  C   UNL     1      37.502 -37.607 -28.695  0.00  0.00    -0.016 A 
ATOM      3  C   UNL     1      36.465 -37.383 -27.764  0.00  0.00    -0.053 A 
ATOM      4  C   UNL     1      35.370 -36.556 -28.067  0.00  0.00    -0.026 A 
ATOM      5  C   UNL     1      35.418 -35.873 -29.273  0.00  0.00    +0.016 A 
ATOM      6  C   UNL     1      36.400 -36.176 -30.228  0.00  0.00    +0.167 A 
ATOM      7  O   UNL     1      36.128 -35.610 -31.469  0.00  0.00    -0.484 OA
ATOM      8  C   UNL     1      35.276 -34.528 -31.070  0.00  0.00    +0.116 C 
ATOM      9  C   UNL     1      34.443 -33.868 -32.159  0.00  0.00    +0.015 C 
ATOM     10  C   UNL     1      33.718 -32.649 -31.541  0.00  0.00    +0.077 C 
ATOM     11  C   UNL     1      33.544 -32.692 -30.037  0.00  0.00    -0.059 C 
ATOM     12  C   UNL     1      33.870 -33.752 -29.269  0.00  0.00    -0.071 C 
ATOM     13  C   UNL     1      34.372 -35.022 -29.911  0.00  0.00    +0.056 C 
ATOM     14  C   UNL     1      33.191 -35.958 -30.270  0.00  0.00    -0.023 C 
ATOM     15  C   UNL     1      32.668 -36.830 -29.097  0.00  0.00    +0.001 C 
ATOM     16  N   UNL     1      32.856 -36.200 -27.780  0.00  0.00    -0.294 N 
ATOM     17  C   UNL     1      34.160 -36.535 -27.155  0.00  0.00    +0.025 C 
ATOM     18  H   UNL     1      32.844 -35.197 -27.967  0.00  0.00    +0.000 HD
ENDROOT
BRANCH   1  20
ATOM     19  C   UNL     1      39.672 -36.745 -30.777  0.00  0.00    +0.079 C 
ATOM     20  O   UNL     1      38.353 -37.234 -30.976  0.00  0.00    -0.491 OA
ENDBRANCH   1  20
BRANCH  10  21
ATOM     21  O   UNL     1      34.481 -31.474 -31.804  0.00  0.00    -0.388 OA
ATOM     22  H   UNL     1      34.899 -31.170 -30.984  0.00  0.00    +0.000 HD
ENDBRANCH  10  21
BRANCH  16  23
ATOM     23  C   UNL     1      31.766 -36.521 -26.844  0.00  0.00    +0.024 C 
BRANCH  23  24
ATOM     24  C   UNL     1      32.255 -36.899 -25.458  0.00  0.00    -0.033 A 
ATOM     25  C   UNL     1      32.382 -38.247 -25.087  0.00  0.00    -0.056 A 
ATOM     26  C   UNL     1      32.818 -38.596 -23.808  0.00  0.00    -0.047 A 
ATOM     27  C   UNL     1      33.120 -37.597 -22.886  0.00  0.00    +0.018 A 
ATOM     28 BR   UNL     1      33.711 -38.066 -21.153  0.00  0.00    -0.050 Br
ATOM     29  C   UNL     1      32.989 -36.253 -23.233  0.00  0.00    -0.047 A 
ATOM     30  C   UNL     1      32.556 -35.906 -24.514  0.00  0.00    -0.056 A 
ENDBRANCH  23  24
ENDBRANCH  16  23
TORSDOF 4
ENDMDL
MODEL 6
REMARK VINA RESULT:    -7.352      3.853      7.126
REMARK INTER + INTRA:          -9.671
REMARK INTER:                  -8.936
REMARK INTRA:                  -0.736
REMARK UNBOUND:                -0.815
REMARK  Name = cpd310.pdb
REMARK  5 active torsions:
REMARK  status: ('A' for Active; 'I' for Inactive)
REMARK    1  A    between atoms: C_1  and  O_2
REMARK    2  A    between atoms: O_2  and  C_3
REMARK    3  A    between atoms: C_12  and  O_13
REMARK    4  A    between atoms: N_19  and  C_20
REMARK    5  A    between atoms: C_20  and  C_21
REMARK                            x       y       z     vdW  Elec       q    Type
REMARK                         _______ _______ _______ _____ _____    ______ ____
ROOT
ATOM      1  C   UNL     1      39.489 -36.033 -31.294  0.00  0.00    +0.162 A 
ATOM      2  C   UNL     1      40.266 -36.983 -30.628  0.00  0.00    -0.016 A 
ATOM      3  C   UNL     1      39.678 -37.888 -29.717  0.00  0.00    -0.053 A 
ATOM      4  C   UNL     1      38.304 -37.850 -29.425  0.00  0.00    -0.026 A 
ATOM      5  C   UNL     1      37.577 -36.806 -29.977  0.00  0.00    +0.016 A 
ATOM      6  C   UNL     1      38.148 -35.974 -30.952  0.00  0.00    +0.167 A 
ATOM      7  O   UNL     1      37.202 -35.179 -31.591  0.00  0.00    -0.484 OA
ATOM      8  C   UNL     1      36.172 -35.161 -30.594  0.00  0.00    +0.116 C 
ATOM      9  C   UNL     1      34.790 -34.707 -31.037  0.00  0.00    +0.015 C 
ATOM     10  C   UNL     1      33.882 -34.628 -29.787  0.00  0.00    +0.077 C 
ATOM     11  C   UNL     1      34.328 -35.469 -28.608  0.00  0.00    -0.059 C 
ATOM     12  C   UNL     1      35.365 -36.333 -28.645  0.00  0.00    -0.071 C 
ATOM     13  C   UNL     1      36.106 -36.565 -29.939  0.00  0.00    +0.056 C 
ATOM     14  C   UNL     1      35.444 -37.706 -30.751  0.00  0.00    -0.023 C 
ATOM     15  C   UNL     1      35.862 -39.139 -30.325  0.00  0.00    +0.001 C 
ATOM     16  N   UNL     1      36.223 -39.236 -28.901  0.00  0.00    -0.294 N 
ATOM     17  C   UNL     1      37.663 -38.981 -28.647  0.00  0.00    +0.025 C 
ATOM     18  H   UNL     1      35.686 -38.498 -28.445  0.00  0.00    +0.000 HD
ENDROOT
BRANCH   1  20
ATOM     19  C   UNL     1      40.494 -33.941 -31.798  0.00  0.00    +0.079 C 
ATOM     20  O   UNL     1      39.922 -35.161 -32.249  0.00  0.00    -0.491 OA
ENDBRANCH   1  20
BRANCH  10  21
ATOM     21  O   UNL     1      33.863 -33.284 -29.312  0.00  0.00    -0.388 OA
ATOM     22  H   UNL     1      34.598 -32.791 -29.709  0.00  0.00    +0.000 HD
ENDBRANCH  10  21
BRANCH  16  23
ATOM     23  C   UNL     1      35.843 -40.532 -28.313  0.00  0.00    +0.024 C 
BRANCH  23  24
ATOM     24  C   UNL     1      34.363 -40.839 -28.439  0.00  0.00    -0.033 A 
ATOM     25  C   UNL     1      33.402 -39.964 -27.910  0.00  0.00    -0.056 A 
ATOM     26  C   UNL     1      32.040 -40.253 -28.013  0.00  0.00    -0.047 A 
ATOM     27  C   UNL     1      31.631 -41.428 -28.638  0.00  0.00    +0.018 A 
ATOM     28 BR   UNL     1      29.787 -41.823 -28.779  0.00  0.00    -0.050 Br
ATOM     29  C   UNL     1      32.571 -42.315 -29.160  0.00  0.00    -0.047 A 
ATOM     30  C   UNL     1      33.932 -42.023 -29.058  0.00  0.00    -0.056 A 
ENDBRANCH  23  24
ENDBRANCH  16  23
TORSDOF 4
ENDMDL
MODEL 7
REMARK VINA RESULT:    -7.320     20.431     22.669
REMARK INTER + INTRA:          -9.633
REMARK INTER:                  -8.917
REMARK INTRA:                  -0.716
REMARK UNBOUND:                -0.815
REMARK  Name = cpd310.pdb
REMARK  5 active torsions:
REMARK  status: ('A' for Active; 'I' for Inactive)
REMARK    1  A    between atoms: C_1  and  O_2
REMARK    2  A    between atoms: O_2  and  C_3
REMARK    3  A    between atoms: C_12  and  O_13
REMARK    4  A    between atoms: N_19  and  C_20
REMARK    5  A    between atoms: C_20  and  C_21
REMARK                            x       y       z     vdW  Elec       q    Type
REMARK                         _______ _______ _______ _____ _____    ______ ____
ROOT
ATOM      1  C   UNL     1      46.136 -22.267 -41.558  0.00  0.00    +0.162 A 
ATOM      2  C   UNL     1      45.473 -21.849 -42.714  0.00  0.00    -0.016 A 
ATOM      3  C   UNL     1      44.852 -20.583 -42.776  0.00  0.00    -0.053 A 
ATOM      4  C   UNL     1      44.852 -19.709 -41.675  0.00  0.00    -0.026 A 
ATOM      5  C   UNL     1      45.380 -20.199 -40.490  0.00  0.00    +0.016 A 
ATOM      6  C   UNL     1      46.077 -21.416 -40.466  0.00  0.00    +0.167 A 
ATOM      7  O   UNL     1      46.774 -21.607 -39.277  0.00  0.00    -0.484 OA
ATOM      8  C   UNL     1      46.023 -20.750 -38.406  0.00  0.00    +0.116 C 
ATOM      9  C   UNL     1      46.672 -20.370 -37.084  0.00  0.00    +0.015 C 
ATOM     10  C   UNL     1      45.643 -19.571 -36.251  0.00  0.00    +0.077 C 
ATOM     11  C   UNL     1      44.537 -18.910 -37.048  0.00  0.00    -0.059 C 
ATOM     12  C   UNL     1      44.486 -18.890 -38.397  0.00  0.00    -0.071 C 
ATOM     13  C   UNL     1      45.616 -19.484 -39.202  0.00  0.00    +0.056 C 
ATOM     14  C   UNL     1      46.711 -18.422 -39.474  0.00  0.00    -0.023 C 
ATOM     15  C   UNL     1      46.428 -17.484 -40.676  0.00  0.00    +0.001 C 
ATOM     16  N   UNL     1      44.991 -17.273 -40.919  0.00  0.00    -0.294 N 
ATOM     17  C   UNL     1      44.405 -18.272 -41.847  0.00  0.00    +0.025 C 
ATOM     18  H   UNL     1      44.552 -17.394 -40.006  0.00  0.00    +0.000 HD
ENDROOT
BRANCH   1  20
ATOM     19  C   UNL     1      48.110 -23.500 -42.026  0.00  0.00    +0.079 C 
ATOM     20  O   UNL     1      46.836 -23.427 -41.402  0.00  0.00    -0.491 OA
ENDBRANCH   1  20
BRANCH  10  21
ATOM     21  O   UNL     1      44.986 -20.459 -35.350  0.00  0.00    -0.388 OA
ATOM     22  H   UNL     1      44.605 -19.952 -34.617  0.00  0.00    +0.000 HD
ENDBRANCH  10  21
BRANCH  16  23
ATOM     23  C   UNL     1      44.698 -15.916 -41.410  0.00  0.00    +0.024 C 
BRANCH  23  24
ATOM     24  C   UNL     1      43.339 -15.400 -40.976  0.00  0.00    -0.033 A 
ATOM     25  C   UNL     1      42.687 -15.948 -39.861  0.00  0.00    -0.056 A 
ATOM     26  C   UNL     1      41.430 -15.483 -39.470  0.00  0.00    -0.047 A 
ATOM     27  C   UNL     1      40.812 -14.471 -40.200  0.00  0.00    +0.018 A 
ATOM     28 BR   UNL     1      39.110 -13.839 -39.674  0.00  0.00    -0.050 Br
ATOM     29  C   UNL     1      41.439 -13.922 -41.318  0.00  0.00    -0.047 A 
ATOM     30  C   UNL     1      42.697 -14.387 -41.705  0.00  0.00    -0.056 A 
ENDBRANCH  23  24
ENDBRANCH  16  23
TORSDOF 4
ENDMDL
MODEL 8
REMARK VINA RESULT:    -7.110      2.097      3.223
REMARK INTER + INTRA:          -9.380
REMARK INTER:                  -8.538
REMARK INTRA:                  -0.842
REMARK UNBOUND:                -0.815
REMARK  Name = cpd310.pdb
REMARK  5 active torsions:
REMARK  status: ('A' for Active; 'I' for Inactive)
REMARK    1  A    between atoms: C_1  and  O_2
REMARK    2  A    between atoms: O_2  and  C_3
REMARK    3  A    between atoms: C_12  and  O_13
REMARK    4  A    between atoms: N_19  and  C_20
REMARK    5  A    between atoms: C_20  and  C_21
REMARK                            x       y       z     vdW  Elec       q    Type
REMARK                         _______ _______ _______ _____ _____    ______ ____
ROOT
ATOM      1  C   UNL     1      30.041 -31.634 -30.216  0.00  0.00    +0.162 A 
ATOM      2  C   UNL     1      30.987 -30.703 -30.649  0.00  0.00    -0.016 A 
ATOM      3  C   UNL     1      32.360 -31.031 -30.688  0.00  0.00    -0.053 A 
ATOM      4  C   UNL     1      32.828 -32.288 -30.270  0.00  0.00    -0.026 A 
ATOM      5  C   UNL     1      31.897 -33.144 -29.702  0.00  0.00    +0.016 A 
ATOM      6  C   UNL     1      30.526 -32.847 -29.755  0.00  0.00    +0.167 A 
ATOM      7  O   UNL     1      29.733 -33.933 -29.400  0.00  0.00    -0.484 OA
ATOM      8  C   UNL     1      30.669 -34.680 -28.610  0.00  0.00    +0.116 C 
ATOM      9  C   UNL     1      30.327 -36.135 -28.328  0.00  0.00    +0.015 C 
ATOM     10  C   UNL     1      31.386 -36.701 -27.353  0.00  0.00    +0.077 C 
ATOM     11  C   UNL     1      32.708 -35.963 -27.333  0.00  0.00    -0.059 C 
ATOM     12  C   UNL     1      33.026 -34.957 -28.176  0.00  0.00    -0.071 C 
ATOM     13  C   UNL     1      32.066 -34.562 -29.271  0.00  0.00    +0.056 C 
ATOM     14  C   UNL     1      32.327 -35.391 -30.554  0.00  0.00    -0.023 C 
ATOM     15  C   UNL     1      33.476 -34.861 -31.452  0.00  0.00    +0.001 C 
ATOM     16  N   UNL     1      34.522 -34.153 -30.695  0.00  0.00    -0.294 N 
ATOM     17  C   UNL     1      34.258 -32.698 -30.558  0.00  0.00    +0.025 C 
ATOM     18  H   UNL     1      34.495 -34.568 -29.763  0.00  0.00    +0.000 HD
ENDROOT
BRANCH   1  20
ATOM     19  C   UNL     1      28.022 -31.510 -31.460  0.00  0.00    +0.079 C 
ATOM     20  O   UNL     1      28.687 -31.466 -30.206  0.00  0.00    -0.491 OA
ENDBRANCH   1  20
BRANCH  10  21
ATOM     21  O   UNL     1      30.881 -36.618 -26.023  0.00  0.00    -0.388 OA
ATOM     22  H   UNL     1      31.366 -35.935 -25.535  0.00  0.00    +0.000 HD
ENDBRANCH  10  21
BRANCH  16  23
ATOM     23  C   UNL     1      35.864 -34.356 -31.267  0.00  0.00    +0.024 C 
BRANCH  23  24
ATOM     24  C   UNL     1      36.672 -35.416 -30.544  0.00  0.00    -0.033 A 
ATOM     25  C   UNL     1      37.914 -35.836 -31.045  0.00  0.00    -0.056 A 
ATOM     26  C   UNL     1      38.652 -36.822 -30.388  0.00  0.00    -0.047 A 
ATOM     27  C   UNL     1      38.146 -37.402 -29.227  0.00  0.00    +0.018 A 
ATOM     28 BR   UNL     1      39.143 -38.738 -28.334  0.00  0.00    -0.050 Br
ATOM     29  C   UNL     1      36.910 -37.006 -28.720  0.00  0.00    -0.047 A 
ATOM     30  C   UNL     1      36.174 -36.018 -29.378  0.00  0.00    -0.056 A 
ENDBRANCH  23  24
ENDBRANCH  16  23
TORSDOF 4
ENDMDL
MODEL 9
REMARK VINA RESULT:    -7.059     17.771     20.368
REMARK INTER + INTRA:          -9.318
REMARK INTER:                  -8.513
REMARK INTRA:                  -0.806
REMARK UNBOUND:                -0.815
REMARK  Name = cpd310.pdb
REMARK  5 active torsions:
REMARK  status: ('A' for Active; 'I' for Inactive)
REMARK    1  A    between atoms: C_1  and  O_2
REMARK    2  A    between atoms: O_2  and  C_3
REMARK    3  A    between atoms: C_12  and  O_13
REMARK    4  A    between atoms: N_19  and  C_20
REMARK    5  A    between atoms: C_20  and  C_21
REMARK                            x       y       z     vdW  Elec       q    Type
REMARK                         _______ _______ _______ _____ _____    ______ ____
ROOT
ATOM      1  C   UNL     1      46.303 -21.318 -41.215  0.00  0.00    +0.162 A 
ATOM      2  C   UNL     1      45.126 -21.731 -41.844  0.00  0.00    -0.016 A 
ATOM      3  C   UNL     1      43.869 -21.519 -41.238  0.00  0.00    -0.053 A 
ATOM      4  C   UNL     1      43.754 -20.914 -39.974  0.00  0.00    -0.026 A 
ATOM      5  C   UNL     1      44.935 -20.650 -39.299  0.00  0.00    +0.016 A 
ATOM      6  C   UNL     1      46.174 -20.775 -39.947  0.00  0.00    +0.167 A 
ATOM      7  O   UNL     1      47.214 -20.202 -39.223  0.00  0.00    -0.484 OA
ATOM      8  C   UNL     1      46.652 -20.241 -37.904  0.00  0.00    +0.116 C 
ATOM      9  C   UNL     1      47.312 -19.368 -36.847  0.00  0.00    +0.015 C 
ATOM     10  C   UNL     1      46.645 -19.671 -35.485  0.00  0.00    +0.077 C 
ATOM     11  C   UNL     1      45.256 -20.270 -35.561  0.00  0.00    -0.059 C 
ATOM     12  C   UNL     1      44.564 -20.430 -36.709  0.00  0.00    -0.071 C 
ATOM     13  C   UNL     1      45.138 -19.926 -38.010  0.00  0.00    +0.056 C 
ATOM     14  C   UNL     1      44.726 -18.453 -38.256  0.00  0.00    -0.023 C 
ATOM     15  C   UNL     1      43.316 -18.262 -38.874  0.00  0.00    +0.001 C 
ATOM     16  N   UNL     1      42.376 -19.336 -38.512  0.00  0.00    -0.294 N 
ATOM     17  C   UNL     1      42.396 -20.474 -39.465  0.00  0.00    +0.025 C 
ATOM     18  H   UNL     1      42.705 -19.676 -37.608  0.00  0.00    +0.000 HD
ENDROOT
BRANCH   1  20
ATOM     19  C   UNL     1      48.140 -22.689 -41.834  0.00  0.00    +0.079 C 
ATOM     20  O   UNL     1      47.563 -21.395 -41.730  0.00  0.00    -0.491 OA
ENDBRANCH   1  20
BRANCH  10  21
ATOM     21  O   UNL     1      47.436 -20.627 -34.784  0.00  0.00    -0.388 OA
ATOM     22  H   UNL     1      48.242 -20.813 -35.291  0.00  0.00    +0.000 HD
ENDBRANCH  10  21
BRANCH  16  23
ATOM     23  C   UNL     1      40.996 -18.847 -38.361  0.00  0.00    +0.024 C 
BRANCH  23  24
ATOM     24  C   UNL     1      40.259 -19.473 -37.192  0.00  0.00    -0.033 A 
ATOM     25  C   UNL     1      40.966 -20.015 -36.108  0.00  0.00    -0.056 A 
ATOM     26  C   UNL     1      40.290 -20.604 -35.038  0.00  0.00    -0.047 A 
ATOM     27  C   UNL     1      38.898 -20.664 -35.052  0.00  0.00    +0.018 A 
ATOM     28 BR   UNL     1      37.979 -21.462 -33.605  0.00  0.00    -0.050 Br
ATOM     29  C   UNL     1      38.179 -20.141 -36.125  0.00  0.00    -0.047 A 
ATOM     30  C   UNL     1      38.858 -19.550 -37.193  0.00  0.00    -0.056 A 
ENDBRANCH  23  24
ENDBRANCH  16  23
TORSDOF 4
ENDMDL
MODEL 10
REMARK VINA RESULT:    -6.875      4.202      7.942
REMARK INTER + INTRA:          -9.097
REMARK INTER:                  -8.249
REMARK INTRA:                  -0.848
REMARK UNBOUND:                -0.815
REMARK  Name = cpd310.pdb
REMARK  5 active torsions:
REMARK  status: ('A' for Active; 'I' for Inactive)
REMARK    1  A    between atoms: C_1  and  O_2
REMARK    2  A    between atoms: O_2  and  C_3
REMARK    3  A    between atoms: C_12  and  O_13
REMARK    4  A    between atoms: N_19  and  C_20
REMARK    5  A    between atoms: C_20  and  C_21
REMARK                            x       y       z     vdW  Elec       q    Type
REMARK                         _______ _______ _______ _____ _____    ______ ____
ROOT
ATOM      1  C   UNL     1      38.404 -37.101 -30.054  0.00  0.00    +0.162 A 
ATOM      2  C   UNL     1      38.641 -37.819 -28.879  0.00  0.00    -0.016 A 
ATOM      3  C   UNL     1      37.647 -37.925 -27.883  0.00  0.00    -0.053 A 
ATOM      4  C   UNL     1      36.399 -37.292 -28.018  0.00  0.00    -0.026 A 
ATOM      5  C   UNL     1      36.237 -36.460 -29.115  0.00  0.00    +0.016 A 
ATOM      6  C   UNL     1      37.191 -36.438 -30.144  0.00  0.00    +0.167 A 
ATOM      7  O   UNL     1      36.734 -35.777 -31.279  0.00  0.00    -0.484 OA
ATOM      8  C   UNL     1      35.725 -34.941 -30.694  0.00  0.00    +0.116 C 
ATOM      9  C   UNL     1      34.712 -34.316 -31.641  0.00  0.00    +0.015 C 
ATOM     10  C   UNL     1      33.818 -33.353 -30.826  0.00  0.00    +0.077 C 
ATOM     11  C   UNL     1      33.758 -33.628 -29.338  0.00  0.00    -0.059 C 
ATOM     12  C   UNL     1      34.327 -34.697 -28.743  0.00  0.00    -0.071 C 
ATOM     13  C   UNL     1      35.011 -35.750 -29.581  0.00  0.00    +0.056 C 
ATOM     14  C   UNL     1      34.002 -36.841 -30.020  0.00  0.00    -0.023 C 
ATOM     15  C   UNL     1      33.731 -37.945 -28.963  0.00  0.00    +0.001 C 
ATOM     16  N   UNL     1      33.889 -37.469 -27.578  0.00  0.00    -0.294 N 
ATOM     17  C   UNL     1      35.272 -37.627 -27.062  0.00  0.00    +0.025 C 
ATOM     18  H   UNL     1      33.679 -36.472 -27.619  0.00  0.00    +0.000 HD
ENDROOT
BRANCH   1  20
ATOM     19  C   UNL     1      40.453 -36.262 -30.914  0.00  0.00    +0.079 C 
ATOM     20  O   UNL     1      39.250 -36.991 -31.118  0.00  0.00    -0.491 OA
ENDBRANCH   1  20
BRANCH  10  21
ATOM     21  O   UNL     1      34.330 -32.029 -30.950  0.00  0.00    -0.388 OA
ATOM     22  H   UNL     1      33.599 -31.394 -30.901  0.00  0.00    +0.000 HD
ENDBRANCH  10  21
BRANCH  16  23
ATOM     23  C   UNL     1      32.944 -38.116 -26.652  0.00  0.00    +0.024 C 
BRANCH  23  24
ATOM     24  C   UNL     1      31.546 -37.531 -26.713  0.00  0.00    -0.033 A 
ATOM     25  C   UNL     1      31.350 -36.171 -27.000  0.00  0.00    -0.056 A 
ATOM     26  C   UNL     1      30.065 -35.629 -27.043  0.00  0.00    -0.047 A 
ATOM     27  C   UNL     1      28.964 -36.444 -26.788  0.00  0.00    +0.018 A 
ATOM     28 BR   UNL     1      27.221 -35.713 -26.844  0.00  0.00    -0.050 Br
ATOM     29  C   UNL     1      29.139 -37.794 -26.489  0.00  0.00    -0.047 A 
ATOM     30  C   UNL     1      30.426 -38.335 -26.450  0.00  0.00    -0.056 A 
ENDBRANCH  23  24
ENDBRANCH  16  23
TORSDOF 4
ENDMDL
MODEL 11
REMARK VINA RESULT:    -6.500     16.964     19.237
REMARK INTER + INTRA:          -8.645
REMARK INTER:                  -7.819
REMARK INTRA:                  -0.826
REMARK UNBOUND:                -0.815
REMARK  Name = cpd310.pdb
REMARK  5 active torsions:
REMARK  status: ('A' for Active; 'I' for Inactive)
REMARK    1  A    between atoms: C_1  and  O_2
REMARK    2  A    between atoms: O_2  and  C_3
REMARK    3  A    between atoms: C_12  and  O_13
REMARK    4  A    between atoms: N_19  and  C_20
REMARK    5  A    between atoms: C_20  and  C_21
REMARK                            x       y       z     vdW  Elec       q    Type
REMARK                         _______ _______ _______ _____ _____    ______ ____
ROOT
ATOM      1  C   UNL     1      38.603 -21.792 -33.925  0.00  0.00    +0.162 A 
ATOM      2  C   UNL     1      37.629 -21.174 -33.137  0.00  0.00    -0.016 A 
ATOM      3  C   UNL     1      37.850 -19.893 -32.587  0.00  0.00    -0.053 A 
ATOM      4  C   UNL     1      39.060 -19.205 -32.785  0.00  0.00    -0.026 A 
ATOM      5  C   UNL     1      40.070 -19.895 -33.438  0.00  0.00    +0.016 A 
ATOM      6  C   UNL     1      39.809 -21.125 -34.062  0.00  0.00    +0.167 A 
ATOM      7  O   UNL     1      40.845 -21.526 -34.899  0.00  0.00    -0.484 OA
ATOM      8  C   UNL     1      41.934 -20.792 -34.322  0.00  0.00    +0.116 C 
ATOM      9  C   UNL     1      43.193 -20.650 -35.163  0.00  0.00    +0.015 C 
ATOM     10  C   UNL     1      44.274 -19.957 -34.302  0.00  0.00    +0.077 C 
ATOM     11  C   UNL     1      43.752 -19.139 -33.139  0.00  0.00    -0.059 C 
ATOM     12  C   UNL     1      42.443 -18.904 -32.909  0.00  0.00    -0.071 C 
ATOM     13  C   UNL     1      41.405 -19.402 -33.885  0.00  0.00    +0.056 C 
ATOM     14  C   UNL     1      41.146 -18.351 -34.993  0.00  0.00    -0.023 C 
ATOM     15  C   UNL     1      40.152 -17.223 -34.606  0.00  0.00    +0.001 C 
ATOM     16  N   UNL     1      40.150 -16.926 -33.164  0.00  0.00    -0.294 N 
ATOM     17  C   UNL     1      39.173 -17.744 -32.402  0.00  0.00    +0.025 C 
ATOM     18  H   UNL     1      41.086 -17.175 -32.844  0.00  0.00    +0.000 HD
ENDROOT
BRANCH   1  20
ATOM     19  C   UNL     1      38.286 -24.141 -33.766  0.00  0.00    +0.079 C 
ATOM     20  O   UNL     1      38.480 -22.987 -34.572  0.00  0.00    -0.491 OA
ENDBRANCH   1  20
BRANCH  10  21
ATOM     21  O   UNL     1      45.114 -20.953 -33.722  0.00  0.00    -0.388 OA
ATOM     22  H   UNL     1      44.730 -21.248 -32.882  0.00  0.00    +0.000 HD
ENDBRANCH  10  21
BRANCH  16  23
ATOM     23  C   UNL     1      39.917 -15.499 -32.885  0.00  0.00    +0.024 C 
BRANCH  23  24
ATOM     24  C   UNL     1      41.139 -14.785 -32.338  0.00  0.00    -0.033 A 
ATOM     25  C   UNL     1      41.006 -13.597 -31.604  0.00  0.00    -0.056 A 
ATOM     26  C   UNL     1      42.131 -12.932 -31.113  0.00  0.00    -0.047 A 
ATOM     27  C   UNL     1      43.400 -13.448 -31.362  0.00  0.00    +0.018 A 
ATOM     28 BR   UNL     1      44.926 -12.551 -30.698  0.00  0.00    -0.050 Br
ATOM     29  C   UNL     1      43.553 -14.622 -32.099  0.00  0.00    -0.047 A 
ATOM     30  C   UNL     1      42.426 -15.286 -32.587  0.00  0.00    -0.056 A 
ENDBRANCH  23  24
ENDBRANCH  16  23
TORSDOF 4
ENDMDL
MODEL 12
REMARK VINA RESULT:    -6.267     16.646     18.678
REMARK INTER + INTRA:          -8.364
REMARK INTER:                  -7.531
REMARK INTRA:                  -0.833
REMARK UNBOUND:                -0.815
REMARK  Name = cpd310.pdb
REMARK  5 active torsions:
REMARK  status: ('A' for Active; 'I' for Inactive)
REMARK    1  A    between atoms: C_1  and  O_2
REMARK    2  A    between atoms: O_2  and  C_3
REMARK    3  A    between atoms: C_12  and  O_13
REMARK    4  A    between atoms: N_19  and  C_20
REMARK    5  A    between atoms: C_20  and  C_21
REMARK                            x       y       z     vdW  Elec       q    Type
REMARK                         _______ _______ _______ _____ _____    ______ ____
ROOT
ATOM      1  C   UNL     1      39.897 -23.158 -33.936  0.00  0.00    +0.162 A 
ATOM      2  C   UNL     1      40.371 -22.833 -32.663  0.00  0.00    -0.016 A 
ATOM      3  C   UNL     1      41.240 -21.737 -32.472  0.00  0.00    -0.053 A 
ATOM      4  C   UNL     1      41.682 -20.952 -33.551  0.00  0.00    -0.026 A 
ATOM      5  C   UNL     1      41.325 -21.379 -34.821  0.00  0.00    +0.016 A 
ATOM      6  C   UNL     1      40.386 -22.408 -34.993  0.00  0.00    +0.167 A 
ATOM      7  O   UNL     1      39.940 -22.507 -36.306  0.00  0.00    -0.484 OA
ATOM      8  C   UNL     1      41.039 -21.894 -36.993  0.00  0.00    +0.116 C 
ATOM      9  C   UNL     1      40.799 -21.456 -38.429  0.00  0.00    +0.015 C 
ATOM     10  C   UNL     1      42.141 -20.959 -39.015  0.00  0.00    +0.077 C 
ATOM     11  C   UNL     1      43.170 -20.517 -37.995  0.00  0.00    -0.059 C 
ATOM     12  C   UNL     1      42.930 -20.430 -36.669  0.00  0.00    -0.071 C 
ATOM     13  C   UNL     1      41.546 -20.707 -36.134  0.00  0.00    +0.056 C 
ATOM     14  C   UNL     1      40.695 -19.412 -36.123  0.00  0.00    -0.023 C 
ATOM     15  C   UNL     1      40.920 -18.492 -34.894  0.00  0.00    +0.001 C 
ATOM     16  N   UNL     1      42.279 -18.595 -34.337  0.00  0.00    -0.294 N 
ATOM     17  C   UNL     1      42.401 -19.644 -33.293  0.00  0.00    +0.025 C 
ATOM     18  H   UNL     1      42.865 -18.866 -35.127  0.00  0.00    +0.000 HD
ENDROOT
BRANCH   1  20
ATOM     19  C   UNL     1      37.750 -24.101 -33.557  0.00  0.00    +0.079 C 
ATOM     20  O   UNL     1      38.997 -24.138 -34.236  0.00  0.00    -0.491 OA
ENDBRANCH   1  20
BRANCH  10  21
ATOM     21  O   UNL     1      42.753 -22.024 -39.739  0.00  0.00    -0.388 OA
ATOM     22  H   UNL     1      43.607 -21.727 -40.089  0.00  0.00    +0.000 HD
ENDBRANCH  10  21
BRANCH  16  23
ATOM     23  C   UNL     1      42.765 -17.312 -33.802  0.00  0.00    +0.024 C 
BRANCH  23  24
ATOM     24  C   UNL     1      43.823 -16.660 -34.672  0.00  0.00    -0.033 A 
ATOM     25  C   UNL     1      43.821 -15.272 -34.882  0.00  0.00    -0.056 A 
ATOM     26  C   UNL     1      44.786 -14.673 -35.694  0.00  0.00    -0.047 A 
ATOM     27  C   UNL     1      45.754 -15.461 -36.310  0.00  0.00    +0.018 A 
ATOM     28 BR   UNL     1      47.062 -14.653 -37.410  0.00  0.00    -0.050 Br
ATOM     29  C   UNL     1      45.765 -16.843 -36.122  0.00  0.00    -0.047 A 
ATOM     30  C   UNL     1      44.801 -17.439 -35.308  0.00  0.00    -0.056 A 
ENDBRANCH  23  24
ENDBRANCH  16  23
TORSDOF 4
ENDMDL
MODEL 13
REMARK VINA RESULT:    -6.263     19.552     21.898
REMARK INTER + INTRA:          -8.360
REMARK INTER:                  -7.580
REMARK INTRA:                  -0.780
REMARK UNBOUND:                -0.815
REMARK  Name = cpd310.pdb
REMARK  5 active torsions:
REMARK  status: ('A' for Active; 'I' for Inactive)
REMARK    1  A    between atoms: C_1  and  O_2
REMARK    2  A    between atoms: O_2  and  C_3
REMARK    3  A    between atoms: C_12  and  O_13
REMARK    4  A    between atoms: N_19  and  C_20
REMARK    5  A    between atoms: C_20  and  C_21
REMARK                            x       y       z     vdW  Elec       q    Type
REMARK                         _______ _______ _______ _____ _____    ______ ____
ROOT
ATOM      1  C   UNL     1      47.387 -15.623 -39.251  0.00  0.00    +0.162 A 
ATOM      2  C   UNL     1      46.903 -15.061 -38.067  0.00  0.00    -0.016 A 
ATOM      3  C   UNL     1      46.097 -15.814 -37.186  0.00  0.00    -0.053 A 
ATOM      4  C   UNL     1      45.730 -17.140 -37.475  0.00  0.00    -0.026 A 
ATOM      5  C   UNL     1      46.091 -17.629 -38.721  0.00  0.00    +0.016 A 
ATOM      6  C   UNL     1      46.969 -16.911 -39.545  0.00  0.00    +0.167 A 
ATOM      7  O   UNL     1      47.440 -17.671 -40.611  0.00  0.00    -0.484 OA
ATOM      8  C   UNL     1      46.396 -18.650 -40.702  0.00  0.00    +0.116 C 
ATOM      9  C   UNL     1      46.697 -19.907 -41.504  0.00  0.00    +0.015 C 
ATOM     10  C   UNL     1      45.401 -20.747 -41.591  0.00  0.00    +0.077 C 
ATOM     11  C   UNL     1      44.377 -20.473 -40.509  0.00  0.00    -0.059 C 
ATOM     12  C   UNL     1      44.590 -19.654 -39.457  0.00  0.00    -0.071 C 
ATOM     13  C   UNL     1      45.941 -19.010 -39.265  0.00  0.00    +0.056 C 
ATOM     14  C   UNL     1      46.868 -19.925 -38.426  0.00  0.00    -0.023 C 
ATOM     15  C   UNL     1      46.670 -19.825 -36.890  0.00  0.00    +0.001 C 
ATOM     16  N   UNL     1      45.294 -19.464 -36.507  0.00  0.00    -0.294 N 
ATOM     17  C   UNL     1      45.084 -17.998 -36.406  0.00  0.00    +0.025 C 
ATOM     18  H   UNL     1      44.712 -19.814 -37.268  0.00  0.00    +0.000 HD
ENDROOT
BRANCH   1  20
ATOM     19  C   UNL     1      49.047 -13.972 -39.650  0.00  0.00    +0.079 C 
ATOM     20  O   UNL     1      48.233 -15.028 -40.140  0.00  0.00    -0.491 OA
ENDBRANCH   1  20
BRANCH  10  21
ATOM     21  O   UNL     1      44.743 -20.459 -42.822  0.00  0.00    -0.388 OA
ATOM     22  H   UNL     1      45.310 -20.728 -43.562  0.00  0.00    +0.000 HD
ENDBRANCH  10  21
BRANCH  16  23
ATOM     23  C   UNL     1      44.874 -20.108 -35.252  0.00  0.00    +0.024 C 
BRANCH  23  24
ATOM     24  C   UNL     1      43.408 -20.498 -35.237  0.00  0.00    -0.033 A 
ATOM     25  C   UNL     1      42.657 -20.416 -34.055  0.00  0.00    -0.056 A 
ATOM     26  C   UNL     1      41.311 -20.788 -34.037  0.00  0.00    -0.047 A 
ATOM     27  C   UNL     1      40.710 -21.255 -35.203  0.00  0.00    +0.018 A 
ATOM     28 BR   UNL     1      38.888 -21.760 -35.183  0.00  0.00    -0.050 Br
ATOM     29  C   UNL     1      41.443 -21.354 -36.385  0.00  0.00    -0.047 A 
ATOM     30  C   UNL     1      42.788 -20.978 -36.401  0.00  0.00    -0.056 A 
ENDBRANCH  23  24
ENDBRANCH  16  23
TORSDOF 4
ENDMDL
MODEL 14
REMARK VINA RESULT:    -6.252     20.274     21.757
REMARK INTER + INTRA:          -8.346
REMARK INTER:                  -7.481
REMARK INTRA:                  -0.866
REMARK UNBOUND:                -0.815
REMARK  Name = cpd310.pdb
REMARK  5 active torsions:
REMARK  status: ('A' for Active; 'I' for Inactive)
REMARK    1  A    between atoms: C_1  and  O_2
REMARK    2  A    between atoms: O_2  and  C_3
REMARK    3  A    between atoms: C_12  and  O_13
REMARK    4  A    between atoms: N_19  and  C_20
REMARK    5  A    between atoms: C_20  and  C_21
REMARK                            x       y       z     vdW  Elec       q    Type
REMARK                         _______ _______ _______ _____ _____    ______ ____
ROOT
ATOM      1  C   UNL     1      44.235 -14.664 -36.056  0.00  0.00    +0.162 A 
ATOM      2  C   UNL     1      44.165 -13.972 -37.268  0.00  0.00    -0.016 A 
ATOM      3  C   UNL     1      44.448 -14.622 -38.489  0.00  0.00    -0.053 A 
ATOM      4  C   UNL     1      44.835 -15.972 -38.532  0.00  0.00    -0.026 A 
ATOM      5  C   UNL     1      45.048 -16.599 -37.313  0.00  0.00    +0.016 A 
ATOM      6  C   UNL     1      44.673 -15.977 -36.113  0.00  0.00    +0.167 A 
ATOM      7  O   UNL     1      44.691 -16.852 -35.032  0.00  0.00    -0.484 OA
ATOM      8  C   UNL     1      45.612 -17.836 -35.521  0.00  0.00    +0.116 C 
ATOM      9  C   UNL     1      45.638 -19.176 -34.800  0.00  0.00    +0.015 C 
ATOM     10  C   UNL     1      46.788 -20.023 -35.394  0.00  0.00    +0.077 C 
ATOM     11  C   UNL     1      47.230 -19.629 -36.788  0.00  0.00    -0.059 C 
ATOM     12  C   UNL     1      46.611 -18.696 -37.542  0.00  0.00    -0.071 C 
ATOM     13  C   UNL     1      45.353 -18.033 -37.037  0.00  0.00    +0.056 C 
ATOM     14  C   UNL     1      44.101 -18.845 -37.453  0.00  0.00    -0.023 C 
ATOM     15  C   UNL     1      43.593 -18.572 -38.894  0.00  0.00    +0.001 C 
ATOM     16  N   UNL     1      44.667 -18.173 -39.818  0.00  0.00    -0.294 N 
ATOM     17  C   UNL     1      44.886 -16.705 -39.857  0.00  0.00    +0.025 C 
ATOM     18  H   UNL     1      45.510 -18.608 -39.443  0.00  0.00    +0.000 HD
ENDROOT
BRANCH   1  20
ATOM     19  C   UNL     1      42.529 -14.035 -34.528  0.00  0.00    +0.079 C 
ATOM     20  O   UNL     1      43.912 -14.172 -34.826  0.00  0.00    -0.491 OA
ENDBRANCH   1  20
BRANCH  10  21
ATOM     21  O   UNL     1      47.943 -19.877 -34.571  0.00  0.00    -0.388 OA
ATOM     22  H   UNL     1      47.728 -19.315 -33.811  0.00  0.00    +0.000 HD
ENDBRANCH  10  21
BRANCH  16  23
ATOM     23  C   UNL     1      44.444 -18.671 -41.186  0.00  0.00    +0.024 C 
BRANCH  23  24
ATOM     24  C   UNL     1      45.230 -19.930 -41.504  0.00  0.00    -0.033 A 
ATOM     25  C   UNL     1      46.496 -20.145 -40.938  0.00  0.00    -0.056 A 
ATOM     26  C   UNL     1      47.225 -21.296 -41.241  0.00  0.00    -0.047 A 
ATOM     27  C   UNL     1      46.695 -22.236 -42.121  0.00  0.00    +0.018 A 
ATOM     28 BR   UNL     1      47.681 -23.796 -42.534  0.00  0.00    -0.050 Br
ATOM     29  C   UNL     1      45.444 -22.034 -42.702  0.00  0.00    -0.047 A 
ATOM     30  C   UNL     1      44.715 -20.883 -42.395  0.00  0.00    -0.056 A 
ENDBRANCH  23  24
ENDBRANCH  16  23
TORSDOF 4
ENDMDL
MODEL 15
REMARK VINA RESULT:    -6.237     16.562     18.565
REMARK INTER + INTRA:          -8.328
REMARK INTER:                  -7.689
REMARK INTRA:                  -0.639
REMARK UNBOUND:                -0.815
REMARK  Name = cpd310.pdb
REMARK  5 active torsions:
REMARK  status: ('A' for Active; 'I' for Inactive)
REMARK    1  A    between atoms: C_1  and  O_2
REMARK    2  A    between atoms: O_2  and  C_3
REMARK    3  A    between atoms: C_12  and  O_13
REMARK    4  A    between atoms: N_19  and  C_20
REMARK    5  A    between atoms: C_20  and  C_21
REMARK                            x       y       z     vdW  Elec       q    Type
REMARK                         _______ _______ _______ _____ _____    ______ ____
ROOT
ATOM      1  C   UNL     1      40.177 -22.607 -33.325  0.00  0.00    +0.162 A 
ATOM      2  C   UNL     1      39.389 -23.141 -34.347  0.00  0.00    -0.016 A 
ATOM      3  C   UNL     1      39.450 -22.617 -35.657  0.00  0.00    -0.053 A 
ATOM      4  C   UNL     1      40.279 -21.527 -35.975  0.00  0.00    -0.026 A 
ATOM      5  C   UNL     1      40.936 -20.913 -34.920  0.00  0.00    +0.016 A 
ATOM      6  C   UNL     1      40.944 -21.498 -33.644  0.00  0.00    +0.167 A 
ATOM      7  O   UNL     1      41.875 -20.909 -32.795  0.00  0.00    -0.484 OA
ATOM      8  C   UNL     1      42.005 -19.624 -33.418  0.00  0.00    +0.116 C 
ATOM      9  C   UNL     1      43.212 -18.785 -33.024  0.00  0.00    +0.015 C 
ATOM     10  C   UNL     1      43.079 -17.399 -33.697  0.00  0.00    +0.077 C 
ATOM     11  C   UNL     1      42.189 -17.357 -34.923  0.00  0.00    -0.059 C 
ATOM     12  C   UNL     1      41.634 -18.447 -35.491  0.00  0.00    -0.071 C 
ATOM     13  C   UNL     1      41.952 -19.821 -34.955  0.00  0.00    +0.056 C 
ATOM     14  C   UNL     1      43.209 -20.403 -35.649  0.00  0.00    -0.023 C 
ATOM     15  C   UNL     1      42.947 -21.068 -37.026  0.00  0.00    +0.001 C 
ATOM     16  N   UNL     1      41.801 -20.483 -37.742  0.00  0.00    -0.294 N 
ATOM     17  C   UNL     1      40.513 -21.151 -37.424  0.00  0.00    +0.025 C 
ATOM     18  H   UNL     1      41.748 -19.520 -37.407  0.00  0.00    +0.000 HD
ENDROOT
BRANCH   1  20
ATOM     19  C   UNL     1      41.267 -24.044 -31.780  0.00  0.00    +0.079 C 
ATOM     20  O   UNL     1      40.265 -23.073 -32.046  0.00  0.00    -0.491 OA
ENDBRANCH   1  20
BRANCH  10  21
ATOM     21  O   UNL     1      42.496 -16.488 -32.769  0.00  0.00    -0.388 OA
ATOM     22  H   UNL     1      42.922 -16.591 -31.905  0.00  0.00    +0.000 HD
ENDBRANCH  10  21
BRANCH  16  23
ATOM     23  C   UNL     1      41.998 -20.467 -39.201  0.00  0.00    +0.024 C 
BRANCH  23  24
ATOM     24  C   UNL     1      43.243 -19.715 -39.632  0.00  0.00    -0.033 A 
ATOM     25  C   UNL     1      43.326 -18.322 -39.481  0.00  0.00    -0.056 A 
ATOM     26  C   UNL     1      44.465 -17.627 -39.891  0.00  0.00    -0.047 A 
ATOM     27  C   UNL     1      45.527 -18.322 -40.465  0.00  0.00    +0.018 A 
ATOM     28 BR   UNL     1      47.072 -17.385 -41.021  0.00  0.00    -0.050 Br
ATOM     29  C   UNL     1      45.458 -19.704 -40.633  0.00  0.00    -0.047 A 
ATOM     30  C   UNL     1      44.318 -20.398 -40.220  0.00  0.00    -0.056 A 
ENDBRANCH  23  24
ENDBRANCH  16  23
TORSDOF 4
ENDMDL
MODEL 16
REMARK VINA RESULT:    -6.091     18.194     20.644
REMARK INTER + INTRA:          -8.152
REMARK INTER:                  -7.919
REMARK INTRA:                  -0.233
REMARK UNBOUND:                -0.815
REMARK  Name = cpd310.pdb
REMARK  5 active torsions:
REMARK  status: ('A' for Active; 'I' for Inactive)
REMARK    1  A    between atoms: C_1  and  O_2
REMARK    2  A    between atoms: O_2  and  C_3
REMARK    3  A    between atoms: C_12  and  O_13
REMARK    4  A    between atoms: N_19  and  C_20
REMARK    5  A    between atoms: C_20  and  C_21
REMARK                            x       y       z     vdW  Elec       q    Type
REMARK                         _______ _______ _______ _____ _____    ______ ____
ROOT
ATOM      1  C   UNL     1      46.687 -18.002 -36.419  0.00  0.00    +0.162 A 
ATOM      2  C   UNL     1      45.624 -17.241 -35.924  0.00  0.00    -0.016 A 
ATOM      3  C   UNL     1      44.344 -17.317 -36.513  0.00  0.00    -0.053 A 
ATOM      4  C   UNL     1      44.095 -18.133 -37.630  0.00  0.00    -0.026 A 
ATOM      5  C   UNL     1      45.191 -18.761 -38.201  0.00  0.00    +0.016 A 
ATOM      6  C   UNL     1      46.436 -18.756 -37.554  0.00  0.00    +0.167 A 
ATOM      7  O   UNL     1      47.331 -19.661 -38.115  0.00  0.00    -0.484 OA
ATOM      8  C   UNL     1      46.774 -19.782 -39.432  0.00  0.00    +0.116 C 
ATOM      9  C   UNL     1      47.231 -20.967 -40.268  0.00  0.00    +0.015 C 
ATOM     10  C   UNL     1      46.624 -20.823 -41.683  0.00  0.00    +0.077 C 
ATOM     11  C   UNL     1      45.386 -19.955 -41.773  0.00  0.00    -0.059 C 
ATOM     12  C   UNL     1      44.754 -19.428 -40.703  0.00  0.00    -0.071 C 
ATOM     13  C   UNL     1      45.229 -19.759 -39.309  0.00  0.00    +0.056 C 
ATOM     14  C   UNL     1      44.530 -21.038 -38.782  0.00  0.00    -0.023 C 
ATOM     15  C   UNL     1      43.118 -20.812 -38.181  0.00  0.00    +0.001 C 
ATOM     16  N   UNL     1      42.410 -19.670 -38.783  0.00  0.00    -0.294 N 
ATOM     17  C   UNL     1      42.671 -18.388 -38.081  0.00  0.00    +0.025 C 
ATOM     18  H   UNL     1      42.791 -19.595 -39.727  0.00  0.00    +0.000 HD
ENDROOT
BRANCH   1  20
ATOM     19  C   UNL     1      48.129 -18.946 -34.787  0.00  0.00    +0.079 C 
ATOM     20  O   UNL     1      47.942 -18.074 -35.893  0.00  0.00    -0.491 OA
ENDBRANCH   1  20
BRANCH  10  21
ATOM     21  O   UNL     1      47.584 -20.209 -42.539  0.00  0.00    -0.388 OA
ATOM     22  H   UNL     1      47.126 -19.708 -43.231  0.00  0.00    +0.000 HD
ENDBRANCH  10  21
BRANCH  16  23
ATOM     23  C   UNL     1      40.958 -19.893 -38.874  0.00  0.00    +0.024 C 
BRANCH  23  24
ATOM     24  C   UNL     1      40.409 -20.747 -37.747  0.00  0.00    -0.033 A 
ATOM     25  C   UNL     1      40.095 -22.098 -37.960  0.00  0.00    -0.056 A 
ATOM     26  C   UNL     1      39.576 -22.881 -36.927  0.00  0.00    -0.047 A 
ATOM     27  C   UNL     1      39.359 -22.314 -35.674  0.00  0.00    +0.018 A 
ATOM     28 BR   UNL     1      38.657 -23.371 -34.273  0.00  0.00    -0.050 Br
ATOM     29  C   UNL     1      39.654 -20.970 -35.446  0.00  0.00    -0.047 A 
ATOM     30  C   UNL     1      40.175 -20.190 -36.480  0.00  0.00    -0.056 A 
ENDBRANCH  23  24
ENDBRANCH  16  23
TORSDOF 4
ENDMDL
MODEL 17
REMARK VINA RESULT:    -6.000     18.659     21.034
REMARK INTER + INTRA:          -8.042
REMARK INTER:                  -7.815
REMARK INTRA:                  -0.227
REMARK UNBOUND:                -0.815
REMARK  Name = cpd310.pdb
REMARK  5 active torsions:
REMARK  status: ('A' for Active; 'I' for Inactive)
REMARK    1  A    between atoms: C_1  and  O_2
REMARK    2  A    between atoms: O_2  and  C_3
REMARK    3  A    between atoms: C_12  and  O_13
REMARK    4  A    between atoms: N_19  and  C_20
REMARK    5  A    between atoms: C_20  and  C_21
REMARK                            x       y       z     vdW  Elec       q    Type
REMARK                         _______ _______ _______ _____ _____    ______ ____
ROOT
ATOM      1  C   UNL     1      46.058 -16.733 -39.325  0.00  0.00    +0.162 A 
ATOM      2  C   UNL     1      44.796 -16.137 -39.283  0.00  0.00    -0.016 A 
ATOM      3  C   UNL     1      43.627 -16.902 -39.489  0.00  0.00    -0.053 A 
ATOM      4  C   UNL     1      43.688 -18.278 -39.771  0.00  0.00    -0.026 A 
ATOM      5  C   UNL     1      44.950 -18.821 -39.960  0.00  0.00    +0.016 A 
ATOM      6  C   UNL     1      46.101 -18.077 -39.660  0.00  0.00    +0.167 A 
ATOM      7  O   UNL     1      47.249 -18.862 -39.634  0.00  0.00    -0.484 OA
ATOM      8  C   UNL     1      46.828 -19.952 -40.466  0.00  0.00    +0.116 C 
ATOM      9  C   UNL     1      47.654 -21.227 -40.404  0.00  0.00    +0.015 C 
ATOM     10  C   UNL     1      47.114 -22.206 -41.473  0.00  0.00    +0.077 C 
ATOM     11  C   UNL     1      45.686 -21.961 -41.914  0.00  0.00    -0.059 C 
ATOM     12  C   UNL     1      44.868 -21.045 -41.353  0.00  0.00    -0.071 C 
ATOM     13  C   UNL     1      45.337 -20.247 -40.161  0.00  0.00    +0.056 C 
ATOM     14  C   UNL     1      45.007 -20.990 -38.841  0.00  0.00    -0.023 C 
ATOM     15  C   UNL     1      43.556 -20.793 -38.326  0.00  0.00    +0.001 C 
ATOM     16  N   UNL     1      42.586 -20.554 -39.407  0.00  0.00    -0.294 N 
ATOM     17  C   UNL     1      42.426 -19.115 -39.738  0.00  0.00    +0.025 C 
ATOM     18  H   UNL     1      42.983 -21.023 -40.222  0.00  0.00    +0.000 HD
ENDROOT
BRANCH   1  20
ATOM     19  C   UNL     1      47.307 -15.277 -37.926  0.00  0.00    +0.079 C 
ATOM     20  O   UNL     1      47.249 -16.121 -39.067  0.00  0.00    -0.491 OA
ENDBRANCH   1  20
BRANCH  10  21
ATOM     21  O   UNL     1      47.905 -22.086 -42.653  0.00  0.00    -0.388 OA
ATOM     22  H   UNL     1      47.393 -21.630 -43.339  0.00  0.00    +0.000 HD
ENDBRANCH  10  21
BRANCH  16  23
ATOM     23  C   UNL     1      41.267 -21.140 -39.118  0.00  0.00    +0.024 C 
BRANCH  23  24
ATOM     24  C   UNL     1      40.950 -21.209 -37.636  0.00  0.00    -0.033 A 
ATOM     25  C   UNL     1      41.061 -22.419 -36.935  0.00  0.00    -0.056 A 
ATOM     26  C   UNL     1      40.756 -22.486 -35.574  0.00  0.00    -0.047 A 
ATOM     27  C   UNL     1      40.328 -21.341 -34.907  0.00  0.00    +0.018 A 
ATOM     28 BR   UNL     1      39.913 -21.427 -33.065  0.00  0.00    -0.050 Br
ATOM     29  C   UNL     1      40.201 -20.131 -35.589  0.00  0.00    -0.047 A 
ATOM     30  C   UNL     1      40.509 -20.067 -36.950  0.00  0.00    -0.056 A 
ENDBRANCH  23  24
ENDBRANCH  16  23
TORSDOF 4
ENDMDL
MODEL 18
REMARK VINA RESULT:    -5.986     19.245     21.338
REMARK INTER + INTRA:          -8.026
REMARK INTER:                  -7.270
REMARK INTRA:                  -0.756
REMARK UNBOUND:                -0.815
REMARK  Name = cpd310.pdb
REMARK  5 active torsions:
REMARK  status: ('A' for Active; 'I' for Inactive)
REMARK    1  A    between atoms: C_1  and  O_2
REMARK    2  A    between atoms: O_2  and  C_3
REMARK    3  A    between atoms: C_12  and  O_13
REMARK    4  A    between atoms: N_19  and  C_20
REMARK    5  A    between atoms: C_20  and  C_21
REMARK                            x       y       z     vdW  Elec       q    Type
REMARK                         _______ _______ _______ _____ _____    ______ ____
ROOT
ATOM      1  C   UNL     1      46.813 -21.343 -40.362  0.00  0.00    +0.162 A 
ATOM      2  C   UNL     1      45.953 -21.220 -41.455  0.00  0.00    -0.016 A 
ATOM      3  C   UNL     1      44.767 -20.459 -41.361  0.00  0.00    -0.053 A 
ATOM      4  C   UNL     1      44.394 -19.823 -40.165  0.00  0.00    -0.026 A 
ATOM      5  C   UNL     1      45.178 -20.081 -39.050  0.00  0.00    +0.016 A 
ATOM      6  C   UNL     1      46.401 -20.757 -39.177  0.00  0.00    +0.167 A 
ATOM      7  O   UNL     1      47.176 -20.674 -38.024  0.00  0.00    -0.484 OA
ATOM      8  C   UNL     1      46.154 -20.419 -37.051  0.00  0.00    +0.116 C 
ATOM      9  C   UNL     1      46.605 -19.888 -35.699  0.00  0.00    +0.015 C 
ATOM     10  C   UNL     1      45.371 -19.822 -34.769  0.00  0.00    +0.077 C 
ATOM     11  C   UNL     1      44.031 -19.755 -35.473  0.00  0.00    -0.059 C 
ATOM     12  C   UNL     1      43.885 -19.634 -36.809  0.00  0.00    -0.071 C 
ATOM     13  C   UNL     1      45.101 -19.476 -37.689  0.00  0.00    +0.056 C 
ATOM     14  C   UNL     1      45.475 -17.980 -37.842  0.00  0.00    -0.023 C 
ATOM     15  C   UNL     1      44.668 -17.212 -38.923  0.00  0.00    +0.001 C 
ATOM     16  N   UNL     1      43.314 -17.753 -39.127  0.00  0.00    -0.294 N 
ATOM     17  C   UNL     1      43.262 -18.816 -40.162  0.00  0.00    +0.025 C 
ATOM     18  H   UNL     1      43.064 -18.172 -38.231  0.00  0.00    +0.000 HD
ENDROOT
BRANCH   1  20
ATOM     19  C   UNL     1      48.225 -22.988 -41.332  0.00  0.00    +0.079 C 
ATOM     20  O   UNL     1      48.018 -21.982 -40.351  0.00  0.00    -0.491 OA
ENDBRANCH   1  20
BRANCH  10  21
ATOM     21  O   UNL     1      45.327 -21.005 -33.974  0.00  0.00    -0.388 OA
ATOM     22  H   UNL     1      45.553 -21.771 -34.523  0.00  0.00    +0.000 HD
ENDBRANCH  10  21
BRANCH  16  23
ATOM     23  C   UNL     1      42.333 -16.704 -39.451  0.00  0.00    +0.024 C 
BRANCH  23  24
ATOM     24  C   UNL     1      40.935 -17.013 -38.952  0.00  0.00    -0.033 A 
ATOM     25  C   UNL     1      39.811 -16.705 -39.734  0.00  0.00    -0.056 A 
ATOM     26  C   UNL     1      38.523 -16.976 -39.270  0.00  0.00    -0.047 A 
ATOM     27  C   UNL     1      38.350 -17.549 -38.012  0.00  0.00    +0.018 A 
ATOM     28 BR   UNL     1      36.607 -17.917 -37.379  0.00  0.00    -0.050 Br
ATOM     29  C   UNL     1      39.454 -17.851 -37.216  0.00  0.00    -0.047 A 
ATOM     30  C   UNL     1      40.741 -17.582 -37.684  0.00  0.00    -0.056 A 
ENDBRANCH  23  24
ENDBRANCH  16  23
TORSDOF 4
ENDMDL
MODEL 19
REMARK VINA RESULT:    -5.975     17.963     19.845
REMARK INTER + INTRA:          -8.012
REMARK INTER:                  -7.482
REMARK INTRA:                  -0.530
REMARK UNBOUND:                -0.815
REMARK  Name = cpd310.pdb
REMARK  5 active torsions:
REMARK  status: ('A' for Active; 'I' for Inactive)
REMARK    1  A    between atoms: C_1  and  O_2
REMARK    2  A    between atoms: O_2  and  C_3
REMARK    3  A    between atoms: C_12  and  O_13
REMARK    4  A    between atoms: N_19  and  C_20
REMARK    5  A    between atoms: C_20  and  C_21
REMARK                            x       y       z     vdW  Elec       q    Type
REMARK                         _______ _______ _______ _____ _____    ______ ____
ROOT
ATOM      1  C   UNL     1      43.738 -17.350 -34.124  0.00  0.00    +0.162 A 
ATOM      2  C   UNL     1      44.995 -16.873 -34.503  0.00  0.00    -0.016 A 
ATOM      3  C   UNL     1      45.582 -17.270 -35.724  0.00  0.00    -0.053 A 
ATOM      4  C   UNL     1      44.941 -18.176 -36.588  0.00  0.00    -0.026 A 
ATOM      5  C   UNL     1      43.769 -18.755 -36.127  0.00  0.00    +0.016 A 
ATOM      6  C   UNL     1      43.148 -18.284 -34.960  0.00  0.00    +0.167 A 
ATOM      7  O   UNL     1      41.856 -18.776 -34.809  0.00  0.00    -0.484 OA
ATOM      8  C   UNL     1      41.946 -19.965 -35.606  0.00  0.00    +0.116 C 
ATOM      9  C   UNL     1      40.636 -20.619 -36.020  0.00  0.00    +0.015 C 
ATOM     10  C   UNL     1      40.964 -21.947 -36.740  0.00  0.00    +0.077 C 
ATOM     11  C   UNL     1      42.357 -22.038 -37.330  0.00  0.00    -0.059 C 
ATOM     12  C   UNL     1      43.235 -21.013 -37.356  0.00  0.00    -0.071 C 
ATOM     13  C   UNL     1      42.820 -19.654 -36.847  0.00  0.00    +0.056 C 
ATOM     14  C   UNL     1      42.184 -18.814 -37.983  0.00  0.00    -0.023 C 
ATOM     15  C   UNL     1      43.198 -18.091 -38.909  0.00  0.00    +0.001 C 
ATOM     16  N   UNL     1      44.483 -18.800 -39.023  0.00  0.00    -0.294 N 
ATOM     17  C   UNL     1      45.469 -18.386 -37.992  0.00  0.00    +0.025 C 
ATOM     18  H   UNL     1      44.255 -19.782 -38.865  0.00  0.00    +0.000 HD
ENDROOT
BRANCH   1  20
ATOM     19  C   UNL     1      42.899 -15.590 -32.768  0.00  0.00    +0.079 C 
ATOM     20  O   UNL     1      43.036 -16.983 -33.013  0.00  0.00    -0.491 OA
ENDBRANCH   1  20
BRANCH  10  21
ATOM     21  O   UNL     1      40.876 -23.017 -35.803  0.00  0.00    -0.388 OA
ATOM     22  H   UNL     1      40.735 -22.656 -34.914  0.00  0.00    +0.000 HD
ENDBRANCH  10  21
BRANCH  16  23
ATOM     23  C   UNL     1      45.084 -18.662 -40.360  0.00  0.00    +0.024 C 
BRANCH  23  24
ATOM     24  C   UNL     1      45.702 -19.947 -40.878  0.00  0.00    -0.033 A 
ATOM     25  C   UNL     1      46.985 -20.341 -40.467  0.00  0.00    -0.056 A 
ATOM     26  C   UNL     1      47.560 -21.516 -40.954  0.00  0.00    -0.047 A 
ATOM     27  C   UNL     1      46.858 -22.301 -41.865  0.00  0.00    +0.018 A 
ATOM     28 BR   UNL     1      47.634 -23.892 -42.527  0.00  0.00    -0.050 Br
ATOM     29  C   UNL     1      45.587 -21.919 -42.294  0.00  0.00    -0.047 A 
ATOM     30  C   UNL     1      45.013 -20.745 -41.803  0.00  0.00    -0.056 A 
ENDBRANCH  23  24
ENDBRANCH  16  23
TORSDOF 4
ENDMDL
MODEL 20
REMARK VINA RESULT:    -5.819     17.295     19.252
REMARK INTER + INTRA:          -7.824
REMARK INTER:                  -7.712
REMARK INTRA:                  -0.112
REMARK UNBOUND:                -0.815
REMARK  Name = cpd310.pdb
REMARK  5 active torsions:
REMARK  status: ('A' for Active; 'I' for Inactive)
REMARK    1  A    between atoms: C_1  and  O_2
REMARK    2  A    between atoms: O_2  and  C_3
REMARK    3  A    between atoms: C_12  and  O_13
REMARK    4  A    between atoms: N_19  and  C_20
REMARK    5  A    between atoms: C_20  and  C_21
REMARK                            x       y       z     vdW  Elec       q    Type
REMARK                         _______ _______ _______ _____ _____    ______ ____
ROOT
ATOM      1  C   UNL     1      41.015 -21.835 -36.104  0.00  0.00    +0.162 A 
ATOM      2  C   UNL     1      40.833 -21.951 -37.484  0.00  0.00    -0.016 A 
ATOM      3  C   UNL     1      41.600 -21.178 -38.382  0.00  0.00    -0.053 A 
ATOM      4  C   UNL     1      42.551 -20.247 -37.927  0.00  0.00    -0.026 A 
ATOM      5  C   UNL     1      42.610 -20.035 -36.558  0.00  0.00    +0.016 A 
ATOM      6  C   UNL     1      41.915 -20.874 -35.673  0.00  0.00    +0.167 A 
ATOM      7  O   UNL     1      42.312 -20.698 -34.352  0.00  0.00    -0.484 OA
ATOM      8  C   UNL     1      42.839 -19.366 -34.422  0.00  0.00    +0.116 C 
ATOM      9  C   UNL     1      43.725 -18.912 -33.272  0.00  0.00    +0.015 C 
ATOM     10  C   UNL     1      44.060 -17.417 -33.480  0.00  0.00    +0.077 C 
ATOM     11  C   UNL     1      43.938 -16.917 -34.905  0.00  0.00    -0.059 C 
ATOM     12  C   UNL     1      43.679 -17.712 -35.965  0.00  0.00    -0.071 C 
ATOM     13  C   UNL     1      43.573 -19.206 -35.778  0.00  0.00    +0.056 C 
ATOM     14  C   UNL     1      44.963 -19.876 -35.927  0.00  0.00    -0.023 C 
ATOM     15  C   UNL     1      45.403 -20.151 -37.389  0.00  0.00    +0.001 C 
ATOM     16  N   UNL     1      44.838 -19.192 -38.353  0.00  0.00    -0.294 N 
ATOM     17  C   UNL     1      43.527 -19.622 -38.902  0.00  0.00    +0.025 C 
ATOM     18  H   UNL     1      44.689 -18.338 -37.814  0.00  0.00    +0.000 HD
ENDROOT
BRANCH   1  20
ATOM     19  C   UNL     1      39.066 -22.210 -34.800  0.00  0.00    +0.079 C 
ATOM     20  O   UNL     1      40.395 -22.578 -35.143  0.00  0.00    -0.491 OA
ENDBRANCH   1  20
BRANCH  10  21
ATOM     21  O   UNL     1      43.149 -16.628 -32.719  0.00  0.00    -0.388 OA
ATOM     22  H   UNL     1      43.643 -15.972 -32.203  0.00  0.00    +0.000 HD
ENDBRANCH  10  21
BRANCH  16  23
ATOM     23  C   UNL     1      45.762 -18.900 -39.461  0.00  0.00    +0.024 C 
BRANCH  23  24
ATOM     24  C   UNL     1      46.134 -20.125 -40.274  0.00  0.00    -0.033 A 
ATOM     25  C   UNL     1      45.365 -20.511 -41.382  0.00  0.00    -0.056 A 
ATOM     26  C   UNL     1      45.700 -21.647 -42.122  0.00  0.00    -0.047 A 
ATOM     27  C   UNL     1      46.802 -22.412 -41.749  0.00  0.00    +0.018 A 
ATOM     28 BR   UNL     1      47.258 -23.951 -42.748  0.00  0.00    -0.050 Br
ATOM     29  C   UNL     1      47.571 -22.051 -40.644  0.00  0.00    -0.047 A 
ATOM     30  C   UNL     1      47.237 -20.913 -39.908  0.00  0.00    -0.056 A 
ENDBRANCH  23  24
ENDBRANCH  16  23
TORSDOF 4
ENDMDL
