REMARK  Name = cpd310.pdb
REMARK  5 active torsions:
REMARK  status: ('A' for Active; 'I' for Inactive)
REMARK    1  A    between atoms: C_1  and  O_2
REMARK    2  A    between atoms: O_2  and  C_3
REMARK    3  A    between atoms: C_12  and  O_13
REMARK    4  A    between atoms: N_19  and  C_20
REMARK    5  A    between atoms: C_20  and  C_21
REMARK                            x       y       z     vdW  Elec       q    Type
REMARK                         _______ _______ _______ _____ _____    ______ ____
ROOT
ATOM      1  C   UNL     1       3.847  -1.238   0.180  0.00  0.00    +0.162 A 
ATOM      2  C   UNL     1       3.793   0.050  -0.358  0.00  0.00    -0.016 A 
ATOM      3  C   UNL     1       2.571   0.596  -0.807  0.00  0.00    -0.053 A 
ATOM      4  C   UNL     1       1.374  -0.139  -0.757  0.00  0.00    -0.026 A 
ATOM      5  C   UNL     1       1.472  -1.465  -0.364  0.00  0.00    +0.016 A 
ATOM      6  C   UNL     1       2.669  -1.967   0.169  0.00  0.00    +0.167 A 
ATOM      7  O   UNL     1       2.504  -3.212   0.767  0.00  0.00    -0.484 OA
ATOM      8  C   UNL     1       1.327  -3.665   0.084  0.00  0.00    +0.116 C 
ATOM      9  C   UNL     1       0.579  -4.837   0.701  0.00  0.00    +0.015 C 
ATOM     10  C   UNL     1      -0.559  -5.246  -0.263  0.00  0.00    +0.077 C 
ATOM     11  C   UNL     1      -1.010  -4.169  -1.228  0.00  0.00    -0.059 C 
ATOM     12  C   UNL     1      -0.565  -2.895  -1.200  0.00  0.00    -0.071 C 
ATOM     13  C   UNL     1       0.382  -2.452  -0.112  0.00  0.00    +0.056 C 
ATOM     14  C   UNL     1      -0.403  -1.945   1.124  0.00  0.00    -0.023 C 
ATOM     15  C   UNL     1      -0.889  -0.474   1.032  0.00  0.00    +0.001 C 
ATOM     16  N   UNL     1      -1.146  -0.036  -0.350  0.00  0.00    -0.294 N 
ATOM     17  C   UNL     1       0.049   0.552  -1.006  0.00  0.00    +0.025 C 
ATOM     18  H   UNL     1      -1.394  -0.889  -0.852  0.00  0.00    +0.000 HD
ENDROOT
BRANCH   1  20
ATOM     19  C   UNL     1       6.160  -1.108   0.702  0.00  0.00    +0.079 C 
ATOM     20  O   UNL     1       4.945  -1.844   0.716  0.00  0.00    -0.491 OA
ENDBRANCH   1  20
BRANCH  10  21
ATOM     21  O   UNL     1      -0.110  -6.326  -1.078  0.00  0.00    -0.388 OA
ATOM     22  H   UNL     1       0.634  -6.030  -1.625  0.00  0.00    +0.000 HD
ENDBRANCH  10  21
BRANCH  16  23
ATOM     23  C   UNL     1      -2.270   0.911  -0.439  0.00  0.00    +0.024 C 
BRANCH  23  24
ATOM     24  C   UNL     1      -3.619   0.271  -0.171  0.00  0.00    -0.033 A 
ATOM     25  C   UNL     1      -4.022  -0.873  -0.877  0.00  0.00    -0.056 A 
ATOM     26  C   UNL     1      -5.269  -1.454  -0.641  0.00  0.00    -0.047 A 
ATOM     27  C   UNL     1      -6.127  -0.887   0.298  0.00  0.00    +0.018 A 
ATOM     28 BR   UNL     1      -7.817  -1.671   0.620  0.00  0.00    -0.050 Br
ATOM     29  C   UNL     1      -5.749   0.256   1.001  0.00  0.00    -0.047 A 
ATOM     30  C   UNL     1      -4.500   0.834   0.765  0.00  0.00    -0.056 A 
ENDBRANCH  23  24
ENDBRANCH  16  23
TORSDOF 4
