MODEL 1
REMARK VINA RESULT:    -9.328      0.000      0.000
REMARK INTER + INTRA:         -13.152
REMARK INTER:                 -12.600
REMARK INTRA:                  -0.552
REMARK UNBOUND:                -0.552
REMARK  Name = cpd8.pdb
REMARK  8 active torsions:
REMARK  status: ('A' for Active; 'I' for Inactive)
REMARK    1  A    between atoms: C_1  and  O_2
REMARK    2  A    between atoms: O_2  and  C_3
REMARK    3  A    between atoms: C_8  and  O_9
REMARK    4  A    between atoms: O_9  and  C_10
REMARK    5  A    between atoms: C_13  and  C_14
REMARK    6  A    between atoms: C_14  and  C_15
REMARK    7  A    between atoms: N_18  and  C_19
REMARK    8  A    between atoms: C_19  and  C_20
REMARK                            x       y       z     vdW  Elec       q    Type
REMARK                         _______ _______ _______ _____ _____    ______ ____
ROOT
ATOM      1  C   UNL     1      39.944 -36.733 -31.699  0.00  0.00    -0.040 C 
ENDROOT
BRANCH   1  10
ATOM      2  C   UNL     1      34.139 -35.594 -30.512  0.00  0.00    +0.162 A 
ATOM      3  C   UNL     1      35.141 -36.576 -30.379  0.00  0.00    -0.012 A 
ATOM      4  C   UNL     1      36.457 -36.251 -30.652  0.00  0.00    -0.033 A 
ATOM      5  C   UNL     1      36.763 -34.972 -31.077  0.00  0.00    +0.025 A 
ATOM      6  C   UNL     1      35.811 -33.979 -31.237  0.00  0.00    -0.006 A 
ATOM      7  C   UNL     1      34.475 -34.283 -30.946  0.00  0.00    +0.162 A 
ATOM      8  C   UNL     1      38.200 -34.893 -31.292  0.00  0.00    +0.167 C 
ATOM      9  O   UNL     1      38.743 -33.912 -31.769  0.00  0.00    -0.292 OA
ATOM     10  C   UNL     1      38.858 -36.166 -30.775  0.00  0.00    +0.026 C 
ATOM     11  C   UNL     1      37.658 -37.140 -30.619  0.00  0.00    -0.017 C 
BRANCH   2  13
ATOM     12  C   UNL     1      32.750 -37.493 -30.019  0.00  0.00    +0.079 C 
ATOM     13  O   UNL     1      32.900 -36.092 -30.195  0.00  0.00    -0.491 OA
ENDBRANCH   2  13
BRANCH   7  14
ATOM     14  O   UNL     1      33.463 -33.370 -31.091  0.00  0.00    -0.491 OA
ATOM     15  C   UNL     1      33.560 -32.145 -30.372  0.00  0.00    +0.079 C 
ENDBRANCH   7  14
ENDBRANCH   1  10
BRANCH   1  16
ATOM     16  C   UNL     1      41.291 -37.025 -30.998  0.00  0.00    -0.038 C 
ATOM     17  C   UNL     1      42.198 -37.960 -31.801  0.00  0.00    -0.037 C 
ATOM     18  C   UNL     1      43.420 -38.407 -30.995  0.00  0.00    -0.001 C 
ATOM     19  N   UNL     1      43.130 -38.915 -29.647  0.00  0.00    -0.298 N 
ATOM     20  C   UNL     1      41.698 -38.943 -29.336  0.00  0.00    -0.001 C 
ATOM     21  C   UNL     1      41.054 -37.576 -29.576  0.00  0.00    -0.037 C 
ATOM     22  H   UNL     1      43.537 -38.251 -28.989  0.00  0.00    +0.000 HD
BRANCH  19  23
ATOM     23  C   UNL     1      43.771 -40.221 -29.425  0.00  0.00    +0.024 C 
BRANCH  23  24
ATOM     24  C   UNL     1      45.260 -40.222 -29.701  0.00  0.00    -0.033 A 
ATOM     25  C   UNL     1      46.089 -39.262 -29.103  0.00  0.00    -0.057 A 
ATOM     26  C   UNL     1      47.460 -39.246 -29.364  0.00  0.00    -0.061 A 
ATOM     27  C   UNL     1      48.016 -40.195 -30.221  0.00  0.00    -0.062 A 
ATOM     28  C   UNL     1      47.203 -41.158 -30.816  0.00  0.00    -0.061 A 
ATOM     29  C   UNL     1      45.831 -41.173 -30.559  0.00  0.00    -0.057 A 
ENDBRANCH  23  24
ENDBRANCH  19  23
ENDBRANCH   1  16
TORSDOF 6
ENDMDL
MODEL 2
REMARK VINA RESULT:    -8.263      5.117     10.159
REMARK INTER + INTRA:         -11.714
REMARK INTER:                 -10.896
REMARK INTRA:                  -0.818
REMARK UNBOUND:                -0.552
REMARK  Name = cpd8.pdb
REMARK  8 active torsions:
REMARK  status: ('A' for Active; 'I' for Inactive)
REMARK    1  A    between atoms: C_1  and  O_2
REMARK    2  A    between atoms: O_2  and  C_3
REMARK    3  A    between atoms: C_8  and  O_9
REMARK    4  A    between atoms: O_9  and  C_10
REMARK    5  A    between atoms: C_13  and  C_14
REMARK    6  A    between atoms: C_14  and  C_15
REMARK    7  A    between atoms: N_18  and  C_19
REMARK    8  A    between atoms: C_19  and  C_20
REMARK                            x       y       z     vdW  Elec       q    Type
REMARK                         _______ _______ _______ _____ _____    ______ ____
ROOT
ATOM      1  C   UNL     1      34.996 -37.967 -29.329  0.00  0.00    -0.040 C 
ENDROOT
BRANCH   1  10
ATOM      2  C   UNL     1      40.743 -36.809 -30.754  0.00  0.00    +0.162 A 
ATOM      3  C   UNL     1      39.420 -36.379 -30.983  0.00  0.00    -0.012 A 
ATOM      4  C   UNL     1      38.393 -36.885 -30.208  0.00  0.00    -0.033 A 
ATOM      5  C   UNL     1      38.680 -37.827 -29.238  0.00  0.00    +0.025 A 
ATOM      6  C   UNL     1      39.961 -38.291 -28.988  0.00  0.00    -0.006 A 
ATOM      7  C   UNL     1      41.018 -37.774 -29.749  0.00  0.00    +0.162 A 
ATOM      8  C   UNL     1      37.439 -38.191 -28.572  0.00  0.00    +0.167 C 
ATOM      9  O   UNL     1      37.372 -39.080 -27.741  0.00  0.00    -0.292 OA
ATOM     10  C   UNL     1      36.325 -37.260 -29.036  0.00  0.00    +0.026 C 
ATOM     11  C   UNL     1      36.929 -36.603 -30.308  0.00  0.00    -0.017 C 
BRANCH   2  13
ATOM     12  C   UNL     1      41.123 -35.571 -32.780  0.00  0.00    +0.079 C 
ATOM     13  O   UNL     1      41.626 -36.198 -31.610  0.00  0.00    -0.491 OA
ENDBRANCH   2  13
BRANCH   7  14
ATOM     14  O   UNL     1      42.315 -38.186 -29.584  0.00  0.00    -0.491 OA
ATOM     15  C   UNL     1      42.819 -39.180 -30.468  0.00  0.00    +0.079 C 
ENDBRANCH   7  14
ENDBRANCH   1  10
BRANCH   1  16
ATOM     16  C   UNL     1      33.890 -37.707 -28.280  0.00  0.00    -0.038 C 
ATOM     17  C   UNL     1      33.737 -36.227 -27.920  0.00  0.00    -0.037 C 
ATOM     18  C   UNL     1      32.798 -36.019 -26.729  0.00  0.00    -0.001 C 
ATOM     19  N   UNL     1      33.075 -36.863 -25.558  0.00  0.00    -0.298 N 
ATOM     20  C   UNL     1      34.245 -37.728 -25.734  0.00  0.00    -0.001 C 
ATOM     21  C   UNL     1      34.131 -38.558 -27.015  0.00  0.00    -0.037 C 
ATOM     22  H   UNL     1      32.282 -37.497 -25.460  0.00  0.00    +0.000 HD
BRANCH  19  23
ATOM     23  C   UNL     1      33.163 -36.054 -24.332  0.00  0.00    +0.024 C 
BRANCH  23  24
ATOM     24  C   UNL     1      33.247 -36.877 -23.065  0.00  0.00    -0.033 A 
ATOM     25  C   UNL     1      34.396 -36.824 -22.263  0.00  0.00    -0.057 A 
ATOM     26  C   UNL     1      34.488 -37.592 -21.101  0.00  0.00    -0.061 A 
ATOM     27  C   UNL     1      33.428 -38.416 -20.727  0.00  0.00    -0.062 A 
ATOM     28  C   UNL     1      32.277 -38.472 -21.512  0.00  0.00    -0.061 A 
ATOM     29  C   UNL     1      32.186 -37.708 -22.676  0.00  0.00    -0.057 A 
ENDBRANCH  23  24
ENDBRANCH  19  23
ENDBRANCH   1  16
TORSDOF 6
ENDMDL
MODEL 3
REMARK VINA RESULT:    -7.742      3.849      7.448
REMARK INTER + INTRA:         -11.010
REMARK INTER:                 -10.426
REMARK INTRA:                  -0.584
REMARK UNBOUND:                -0.552
REMARK  Name = cpd8.pdb
REMARK  8 active torsions:
REMARK  status: ('A' for Active; 'I' for Inactive)
REMARK    1  A    between atoms: C_1  and  O_2
REMARK    2  A    between atoms: O_2  and  C_3
REMARK    3  A    between atoms: C_8  and  O_9
REMARK    4  A    between atoms: O_9  and  C_10
REMARK    5  A    between atoms: C_13  and  C_14
REMARK    6  A    between atoms: C_14  and  C_15
REMARK    7  A    between atoms: N_18  and  C_19
REMARK    8  A    between atoms: C_19  and  C_20
REMARK                            x       y       z     vdW  Elec       q    Type
REMARK                         _______ _______ _______ _____ _____    ______ ____
ROOT
ATOM      1  C   UNL     1      33.022 -34.230 -29.410  0.00  0.00    -0.040 C 
ENDROOT
BRANCH   1  10
ATOM      2  C   UNL     1      28.815 -29.913 -29.142  0.00  0.00    +0.162 A 
ATOM      3  C   UNL     1      29.369 -30.988 -28.418  0.00  0.00    -0.012 A 
ATOM      4  C   UNL     1      30.535 -31.583 -28.864  0.00  0.00    -0.033 A 
ATOM      5  C   UNL     1      31.123 -31.129 -30.029  0.00  0.00    +0.025 A 
ATOM      6  C   UNL     1      30.607 -30.087 -30.781  0.00  0.00    -0.006 A 
ATOM      7  C   UNL     1      29.437 -29.458 -30.335  0.00  0.00    +0.162 A 
ATOM      8  C   UNL     1      32.323 -31.915 -30.273  0.00  0.00    +0.167 C 
ATOM      9  O   UNL     1      32.989 -31.805 -31.287  0.00  0.00    -0.292 OA
ATOM     10  C   UNL     1      32.604 -32.795 -29.061  0.00  0.00    +0.026 C 
ATOM     11  C   UNL     1      31.262 -32.751 -28.281  0.00  0.00    -0.017 C 
BRANCH   2  13
ATOM     12  C   UNL     1      27.727 -28.987 -27.208  0.00  0.00    +0.079 C 
ATOM     13  O   UNL     1      27.668 -29.446 -28.550  0.00  0.00    -0.491 OA
ENDBRANCH   2  13
BRANCH   7  14
ATOM     14  O   UNL     1      28.846 -28.430 -31.022  0.00  0.00    -0.491 OA
ATOM     15  C   UNL     1      28.147 -28.742 -32.222  0.00  0.00    +0.079 C 
ENDBRANCH   7  14
ENDBRANCH   1  10
BRANCH   1  16
ATOM     16  C   UNL     1      34.550 -34.464 -29.419  0.00  0.00    -0.038 C 
ATOM     17  C   UNL     1      35.162 -34.389 -30.820  0.00  0.00    -0.037 C 
ATOM     18  C   UNL     1      36.626 -34.838 -30.834  0.00  0.00    -0.001 C 
ATOM     19  N   UNL     1      36.893 -36.119 -30.164  0.00  0.00    -0.298 N 
ATOM     20  C   UNL     1      35.684 -36.761 -29.641  0.00  0.00    -0.001 C 
ATOM     21  C   UNL     1      34.898 -35.805 -28.740  0.00  0.00    -0.037 C 
ATOM     22  H   UNL     1      37.464 -35.909 -29.346  0.00  0.00    +0.000 HD
BRANCH  19  23
ATOM     23  C   UNL     1      37.665 -37.019 -31.036  0.00  0.00    +0.024 C 
BRANCH  23  24
ATOM     24  C   UNL     1      39.135 -36.667 -31.124  0.00  0.00    -0.033 A 
ATOM     25  C   UNL     1      40.028 -37.113 -30.140  0.00  0.00    -0.057 A 
ATOM     26  C   UNL     1      41.382 -36.779 -30.206  0.00  0.00    -0.061 A 
ATOM     27  C   UNL     1      41.856 -36.000 -31.260  0.00  0.00    -0.062 A 
ATOM     28  C   UNL     1      40.979 -35.556 -32.248  0.00  0.00    -0.061 A 
ATOM     29  C   UNL     1      39.625 -35.886 -32.182  0.00  0.00    -0.057 A 
ENDBRANCH  23  24
ENDBRANCH  19  23
ENDBRANCH   1  16
TORSDOF 6
ENDMDL
MODEL 4
REMARK VINA RESULT:    -7.698     15.956     18.294
REMARK INTER + INTRA:         -10.951
REMARK INTER:                 -10.258
REMARK INTRA:                  -0.692
REMARK UNBOUND:                -0.552
REMARK  Name = cpd8.pdb
REMARK  8 active torsions:
REMARK  status: ('A' for Active; 'I' for Inactive)
REMARK    1  A    between atoms: C_1  and  O_2
REMARK    2  A    between atoms: O_2  and  C_3
REMARK    3  A    between atoms: C_8  and  O_9
REMARK    4  A    between atoms: O_9  and  C_10
REMARK    5  A    between atoms: C_13  and  C_14
REMARK    6  A    between atoms: C_14  and  C_15
REMARK    7  A    between atoms: N_18  and  C_19
REMARK    8  A    between atoms: C_19  and  C_20
REMARK                            x       y       z     vdW  Elec       q    Type
REMARK                         _______ _______ _______ _____ _____    ______ ____
ROOT
ATOM      1  C   UNL     1      40.024 -20.443 -39.300  0.00  0.00    -0.040 C 
ENDROOT
BRANCH   1  10
ATOM      2  C   UNL     1      39.364 -20.666 -33.307  0.00  0.00    +0.162 A 
ATOM      3  C   UNL     1      39.224 -19.815 -34.421  0.00  0.00    -0.012 A 
ATOM      4  C   UNL     1      39.318 -20.339 -35.698  0.00  0.00    -0.033 A 
ATOM      5  C   UNL     1      39.573 -21.687 -35.857  0.00  0.00    +0.025 A 
ATOM      6  C   UNL     1      39.733 -22.559 -34.793  0.00  0.00    -0.006 A 
ATOM      7  C   UNL     1      39.622 -22.051 -33.492  0.00  0.00    +0.162 A 
ATOM      8  C   UNL     1      39.622 -21.979 -37.282  0.00  0.00    +0.167 C 
ATOM      9  O   UNL     1      39.933 -23.072 -37.722  0.00  0.00    -0.292 OA
ATOM     10  C   UNL     1      39.170 -20.751 -38.063  0.00  0.00    +0.026 C 
ATOM     11  C   UNL     1      39.246 -19.617 -37.004  0.00  0.00    -0.017 C 
BRANCH   2  13
ATOM     12  C   UNL     1      39.868 -18.711 -32.002  0.00  0.00    +0.079 C 
ATOM     13  O   UNL     1      39.236 -19.976 -32.127  0.00  0.00    -0.491 OA
ENDBRANCH   2  13
BRANCH   7  14
ATOM     14  O   UNL     1      39.781 -22.835 -32.379  0.00  0.00    -0.491 OA
ATOM     15  C   UNL     1      41.091 -22.975 -31.841  0.00  0.00    +0.079 C 
ENDBRANCH   7  14
ENDBRANCH   1  10
BRANCH   1  16
ATOM     16  C   UNL     1      41.546 -20.606 -39.080  0.00  0.00    -0.038 C 
ATOM     17  C   UNL     1      42.340 -19.337 -39.402  0.00  0.00    -0.037 C 
ATOM     18  C   UNL     1      43.851 -19.586 -39.389  0.00  0.00    -0.001 C 
ATOM     19  N   UNL     1      44.300 -20.750 -40.166  0.00  0.00    -0.298 N 
ATOM     20  C   UNL     1      43.207 -21.441 -40.856  0.00  0.00    -0.001 C 
ATOM     21  C   UNL     1      42.085 -21.809 -39.882  0.00  0.00    -0.037 C 
ATOM     22  H   UNL     1      44.667 -21.425 -39.495  0.00  0.00    +0.000 HD
BRANCH  19  23
ATOM     23  C   UNL     1      45.391 -20.384 -41.083  0.00  0.00    +0.024 C 
BRANCH  23  24
ATOM     24  C   UNL     1      46.432 -21.470 -41.253  0.00  0.00    -0.033 A 
ATOM     25  C   UNL     1      46.273 -22.452 -42.241  0.00  0.00    -0.057 A 
ATOM     26  C   UNL     1      47.220 -23.465 -42.394  0.00  0.00    -0.061 A 
ATOM     27  C   UNL     1      48.339 -23.503 -41.563  0.00  0.00    -0.062 A 
ATOM     28  C   UNL     1      48.512 -22.529 -40.582  0.00  0.00    -0.061 A 
ATOM     29  C   UNL     1      47.564 -21.517 -40.425  0.00  0.00    -0.057 A 
ENDBRANCH  23  24
ENDBRANCH  19  23
ENDBRANCH   1  16
TORSDOF 6
ENDMDL
MODEL 5
REMARK VINA RESULT:    -7.669      3.624     11.503
REMARK INTER + INTRA:         -10.911
REMARK INTER:                 -10.393
REMARK INTRA:                  -0.518
REMARK UNBOUND:                -0.552
REMARK  Name = cpd8.pdb
REMARK  8 active torsions:
REMARK  status: ('A' for Active; 'I' for Inactive)
REMARK    1  A    between atoms: C_1  and  O_2
REMARK    2  A    between atoms: O_2  and  C_3
REMARK    3  A    between atoms: C_8  and  O_9
REMARK    4  A    between atoms: O_9  and  C_10
REMARK    5  A    between atoms: C_13  and  C_14
REMARK    6  A    between atoms: C_14  and  C_15
REMARK    7  A    between atoms: N_18  and  C_19
REMARK    8  A    between atoms: C_19  and  C_20
REMARK                            x       y       z     vdW  Elec       q    Type
REMARK                         _______ _______ _______ _____ _____    ______ ____
ROOT
ATOM      1  C   UNL     1      36.224 -35.212 -29.898  0.00  0.00    -0.040 C 
ENDROOT
BRANCH   1  10
ATOM      2  C   UNL     1      41.661 -37.756 -30.505  0.00  0.00    +0.162 A 
ATOM      3  C   UNL     1      40.364 -37.984 -30.003  0.00  0.00    -0.012 A 
ATOM      4  C   UNL     1      39.346 -37.100 -30.312  0.00  0.00    -0.033 A 
ATOM      5  C   UNL     1      39.627 -35.992 -31.089  0.00  0.00    +0.025 A 
ATOM      6  C   UNL     1      40.888 -35.719 -31.591  0.00  0.00    -0.006 A 
ATOM      7  C   UNL     1      41.928 -36.614 -31.305  0.00  0.00    +0.162 A 
ATOM      8  C   UNL     1      38.398 -35.233 -31.265  0.00  0.00    +0.167 C 
ATOM      9  O   UNL     1      38.365 -34.150 -31.821  0.00  0.00    -0.292 OA
ATOM     10  C   UNL     1      37.226 -36.038 -30.716  0.00  0.00    +0.026 C 
ATOM     11  C   UNL     1      37.924 -37.127 -29.855  0.00  0.00    -0.017 C 
BRANCH   2  13
ATOM     12  C   UNL     1      42.448 -39.227 -28.775  0.00  0.00    +0.079 C 
ATOM     13  O   UNL     1      42.535 -38.735 -30.103  0.00  0.00    -0.491 OA
ENDBRANCH   2  13
BRANCH   7  14
ATOM     14  O   UNL     1      43.211 -36.417 -31.746  0.00  0.00    -0.491 OA
ATOM     15  C   UNL     1      44.190 -36.013 -30.795  0.00  0.00    +0.079 C 
ENDBRANCH   7  14
ENDBRANCH   1  10
BRANCH   1  16
ATOM     16  C   UNL     1      35.180 -34.451 -30.749  0.00  0.00    -0.038 C 
ATOM     17  C   UNL     1      35.450 -32.946 -30.829  0.00  0.00    -0.037 C 
ATOM     18  C   UNL     1      34.293 -32.189 -31.486  0.00  0.00    -0.001 C 
ATOM     19  N   UNL     1      32.959 -32.500 -30.953  0.00  0.00    -0.298 N 
ATOM     20  C   UNL     1      32.989 -33.458 -29.844  0.00  0.00    -0.001 C 
ATOM     21  C   UNL     1      33.753 -34.726 -30.230  0.00  0.00    -0.037 C 
ATOM     22  H   UNL     1      32.446 -32.968 -31.700  0.00  0.00    +0.000 HD
BRANCH  19  23
ATOM     23  C   UNL     1      32.230 -31.270 -30.604  0.00  0.00    +0.024 C 
BRANCH  23  24
ATOM     24  C   UNL     1      30.733 -31.372 -30.809  0.00  0.00    -0.033 A 
ATOM     25  C   UNL     1      29.856 -30.674 -29.966  0.00  0.00    -0.057 A 
ATOM     26  C   UNL     1      28.475 -30.775 -30.139  0.00  0.00    -0.061 A 
ATOM     27  C   UNL     1      27.957 -31.571 -31.160  0.00  0.00    -0.062 A 
ATOM     28  C   UNL     1      28.819 -32.264 -32.008  0.00  0.00    -0.061 A 
ATOM     29  C   UNL     1      30.200 -32.167 -31.835  0.00  0.00    -0.057 A 
ENDBRANCH  23  24
ENDBRANCH  19  23
ENDBRANCH   1  16
TORSDOF 6
ENDMDL
MODEL 6
REMARK VINA RESULT:    -7.609      4.072      7.824
REMARK INTER + INTRA:         -10.830
REMARK INTER:                 -10.124
REMARK INTRA:                  -0.706
REMARK UNBOUND:                -0.552
REMARK  Name = cpd8.pdb
REMARK  8 active torsions:
REMARK  status: ('A' for Active; 'I' for Inactive)
REMARK    1  A    between atoms: C_1  and  O_2
REMARK    2  A    between atoms: O_2  and  C_3
REMARK    3  A    between atoms: C_8  and  O_9
REMARK    4  A    between atoms: O_9  and  C_10
REMARK    5  A    between atoms: C_13  and  C_14
REMARK    6  A    between atoms: C_14  and  C_15
REMARK    7  A    between atoms: N_18  and  C_19
REMARK    8  A    between atoms: C_19  and  C_20
REMARK                            x       y       z     vdW  Elec       q    Type
REMARK                         _______ _______ _______ _____ _____    ______ ____
ROOT
ATOM      1  C   UNL     1      32.886 -33.733 -29.733  0.00  0.00    -0.040 C 
ENDROOT
BRANCH   1  10
ATOM      2  C   UNL     1      29.177 -29.404 -31.706  0.00  0.00    +0.162 A 
ATOM      3  C   UNL     1      30.394 -29.617 -31.028  0.00  0.00    -0.012 A 
ATOM      4  C   UNL     1      30.948 -30.884 -31.001  0.00  0.00    -0.033 A 
ATOM      5  C   UNL     1      30.283 -31.925 -31.619  0.00  0.00    +0.025 A 
ATOM      6  C   UNL     1      29.079 -31.767 -32.284  0.00  0.00    -0.006 A 
ATOM      7  C   UNL     1      28.511 -30.487 -32.340  0.00  0.00    +0.162 A 
ATOM      8  C   UNL     1      31.070 -33.137 -31.447  0.00  0.00    +0.167 C 
ATOM      9  O   UNL     1      30.677 -34.235 -31.800  0.00  0.00    -0.292 OA
ATOM     10  C   UNL     1      32.422 -32.779 -30.840  0.00  0.00    +0.026 C 
ATOM     11  C   UNL     1      32.193 -31.337 -30.310  0.00  0.00    -0.017 C 
BRANCH   2  13
ATOM     12  C   UNL     1      27.778 -27.728 -30.700  0.00  0.00    +0.079 C 
ATOM     13  O   UNL     1      28.784 -28.091 -31.633  0.00  0.00    -0.491 OA
ENDBRANCH   2  13
BRANCH   7  14
ATOM     14  O   UNL     1      27.315 -30.238 -32.961  0.00  0.00    -0.491 OA
ATOM     15  C   UNL     1      27.315 -30.087 -34.376  0.00  0.00    +0.079 C 
ENDBRANCH   7  14
ENDBRANCH   1  10
BRANCH   1  16
ATOM     16  C   UNL     1      34.412 -33.982 -29.704  0.00  0.00    -0.038 C 
ATOM     17  C   UNL     1      35.105 -33.628 -31.022  0.00  0.00    -0.037 C 
ATOM     18  C   UNL     1      36.566 -34.085 -31.046  0.00  0.00    -0.001 C 
ATOM     19  N   UNL     1      36.791 -35.481 -30.642  0.00  0.00    -0.298 N 
ATOM     20  C   UNL     1      35.552 -36.199 -30.332  0.00  0.00    -0.001 C 
ATOM     21  C   UNL     1      34.717 -35.439 -29.298  0.00  0.00    -0.037 C 
ATOM     22  H   UNL     1      37.314 -35.452 -29.767  0.00  0.00    +0.000 HD
BRANCH  19  23
ATOM     23  C   UNL     1      37.611 -36.192 -31.636  0.00  0.00    +0.024 C 
BRANCH  23  24
ATOM     24  C   UNL     1      39.100 -36.098 -31.375  0.00  0.00    -0.033 A 
ATOM     25  C   UNL     1      39.681 -36.828 -30.328  0.00  0.00    -0.057 A 
ATOM     26  C   UNL     1      41.049 -36.734 -30.072  0.00  0.00    -0.061 A 
ATOM     27  C   UNL     1      41.851 -35.913 -30.864  0.00  0.00    -0.062 A 
ATOM     28  C   UNL     1      41.286 -35.188 -31.911  0.00  0.00    -0.061 A 
ATOM     29  C   UNL     1      39.917 -35.278 -32.167  0.00  0.00    -0.057 A 
ENDBRANCH  23  24
ENDBRANCH  19  23
ENDBRANCH   1  16
TORSDOF 6
ENDMDL
MODEL 7
REMARK VINA RESULT:    -7.575     15.695     17.985
REMARK INTER + INTRA:         -10.785
REMARK INTER:                  -9.875
REMARK INTRA:                  -0.910
REMARK UNBOUND:                -0.552
REMARK  Name = cpd8.pdb
REMARK  8 active torsions:
REMARK  status: ('A' for Active; 'I' for Inactive)
REMARK    1  A    between atoms: C_1  and  O_2
REMARK    2  A    between atoms: O_2  and  C_3
REMARK    3  A    between atoms: C_8  and  O_9
REMARK    4  A    between atoms: O_9  and  C_10
REMARK    5  A    between atoms: C_13  and  C_14
REMARK    6  A    between atoms: C_14  and  C_15
REMARK    7  A    between atoms: N_18  and  C_19
REMARK    8  A    between atoms: C_19  and  C_20
REMARK                            x       y       z     vdW  Elec       q    Type
REMARK                         _______ _______ _______ _____ _____    ______ ____
ROOT
ATOM      1  C   UNL     1      41.166 -18.827 -37.283  0.00  0.00    -0.040 C 
ENDROOT
BRANCH   1  10
ATOM      2  C   UNL     1      40.157 -22.609 -32.692  0.00  0.00    +0.162 A 
ATOM      3  C   UNL     1      41.029 -21.597 -33.143  0.00  0.00    -0.012 A 
ATOM      4  C   UNL     1      40.689 -20.848 -34.254  0.00  0.00    -0.033 A 
ATOM      5  C   UNL     1      39.509 -21.123 -34.920  0.00  0.00    +0.025 A 
ATOM      6  C   UNL     1      38.630 -22.116 -34.523  0.00  0.00    -0.006 A 
ATOM      7  C   UNL     1      38.947 -22.873 -33.387  0.00  0.00    +0.162 A 
ATOM      8  C   UNL     1      39.390 -20.202 -36.040  0.00  0.00    +0.167 C 
ATOM      9  O   UNL     1      38.498 -20.280 -36.866  0.00  0.00    -0.292 OA
ATOM     10  C   UNL     1      40.487 -19.148 -35.946  0.00  0.00    +0.026 C 
ATOM     11  C   UNL     1      41.477 -19.769 -34.922  0.00  0.00    -0.017 C 
BRANCH   2  13
ATOM     12  C   UNL     1      41.206 -24.540 -31.718  0.00  0.00    +0.079 C 
ATOM     13  O   UNL     1      40.653 -23.241 -31.579  0.00  0.00    -0.491 OA
ENDBRANCH   2  13
BRANCH   7  14
ATOM     14  O   UNL     1      38.146 -23.887 -32.930  0.00  0.00    -0.491 OA
ATOM     15  C   UNL     1      37.727 -24.880 -33.859  0.00  0.00    +0.079 C 
ENDBRANCH   7  14
ENDBRANCH   1  10
BRANCH   1  16
ATOM     16  C   UNL     1      42.467 -19.621 -37.545  0.00  0.00    -0.038 C 
ATOM     17  C   UNL     1      43.701 -18.727 -37.687  0.00  0.00    -0.037 C 
ATOM     18  C   UNL     1      44.928 -19.510 -38.161  0.00  0.00    -0.001 C 
ATOM     19  N   UNL     1      44.708 -20.366 -39.335  0.00  0.00    -0.298 N 
ATOM     20  C   UNL     1      43.347 -20.275 -39.870  0.00  0.00    -0.001 C 
ATOM     21  C   UNL     1      42.306 -20.534 -38.778  0.00  0.00    -0.037 C 
ATOM     22  H   UNL     1      44.810 -21.330 -39.018  0.00  0.00    +0.000 HD
BRANCH  19  23
ATOM     23  C   UNL     1      45.728 -20.119 -40.367  0.00  0.00    +0.024 C 
BRANCH  23  24
ATOM     24  C   UNL     1      46.340 -21.383 -40.933  0.00  0.00    -0.033 A 
ATOM     25  C   UNL     1      45.891 -21.898 -42.158  0.00  0.00    -0.057 A 
ATOM     26  C   UNL     1      46.439 -23.071 -42.678  0.00  0.00    -0.061 A 
ATOM     27  C   UNL     1      47.445 -23.738 -41.981  0.00  0.00    -0.062 A 
ATOM     28  C   UNL     1      47.903 -23.233 -40.765  0.00  0.00    -0.061 A 
ATOM     29  C   UNL     1      47.354 -22.062 -40.242  0.00  0.00    -0.057 A 
ENDBRANCH  23  24
ENDBRANCH  19  23
ENDBRANCH   1  16
TORSDOF 6
ENDMDL
MODEL 8
REMARK VINA RESULT:    -7.422     31.488     35.673
REMARK INTER + INTRA:         -10.578
REMARK INTER:                 -10.109
REMARK INTRA:                  -0.469
REMARK UNBOUND:                -0.552
REMARK  Name = cpd8.pdb
REMARK  8 active torsions:
REMARK  status: ('A' for Active; 'I' for Inactive)
REMARK    1  A    between atoms: C_1  and  O_2
REMARK    2  A    between atoms: O_2  and  C_3
REMARK    3  A    between atoms: C_8  and  O_9
REMARK    4  A    between atoms: O_9  and  C_10
REMARK    5  A    between atoms: C_13  and  C_14
REMARK    6  A    between atoms: C_14  and  C_15
REMARK    7  A    between atoms: N_18  and  C_19
REMARK    8  A    between atoms: C_19  and  C_20
REMARK                            x       y       z     vdW  Elec       q    Type
REMARK                         _______ _______ _______ _____ _____    ______ ____
ROOT
ATOM      1  C   UNL     1      63.222 -20.481 -10.208  0.00  0.00    -0.040 C 
ENDROOT
BRANCH   1  10
ATOM      2  C   UNL     1      64.734 -24.465  -5.936  0.00  0.00    +0.162 A 
ATOM      3  C   UNL     1      64.152 -23.196  -6.134  0.00  0.00    -0.012 A 
ATOM      4  C   UNL     1      63.826 -22.786  -7.414  0.00  0.00    -0.033 A 
ATOM      5  C   UNL     1      64.101 -23.620  -8.481  0.00  0.00    +0.025 A 
ATOM      6  C   UNL     1      64.686 -24.867  -8.337  0.00  0.00    -0.006 A 
ATOM      7  C   UNL     1      65.005 -25.309  -7.046  0.00  0.00    +0.162 A 
ATOM      8  C   UNL     1      63.664 -22.959  -9.702  0.00  0.00    +0.167 C 
ATOM      9  O   UNL     1      63.876 -23.416 -10.811  0.00  0.00    -0.292 OA
ATOM     10  C   UNL     1      62.882 -21.701  -9.343  0.00  0.00    +0.026 C 
ATOM     11  C   UNL     1      63.248 -21.479  -7.849  0.00  0.00    -0.017 C 
BRANCH   2  13
ATOM     12  C   UNL     1      65.331 -23.611  -3.770  0.00  0.00    +0.079 C 
ATOM     13  O   UNL     1      64.983 -24.703  -4.607  0.00  0.00    -0.491 OA
ENDBRANCH   2  13
BRANCH   7  14
ATOM     14  O   UNL     1      65.600 -26.520  -6.809  0.00  0.00    -0.491 OA
ATOM     15  C   UNL     1      64.762 -27.628  -6.499  0.00  0.00    +0.079 C 
ENDBRANCH   7  14
ENDBRANCH   1  10
BRANCH   1  16
ATOM     16  C   UNL     1      62.334 -19.243  -9.942  0.00  0.00    -0.038 C 
ATOM     17  C   UNL     1      60.878 -19.602  -9.633  0.00  0.00    -0.037 C 
ATOM     18  C   UNL     1      59.977 -18.365  -9.591  0.00  0.00    -0.001 C 
ATOM     19  N   UNL     1      60.108 -17.458 -10.741  0.00  0.00    -0.298 N 
ATOM     20  C   UNL     1      61.056 -17.936 -11.750  0.00  0.00    -0.001 C 
ATOM     21  C   UNL     1      62.416 -18.253 -11.123  0.00  0.00    -0.037 C 
ATOM     22  H   UNL     1      60.506 -16.589 -10.384  0.00  0.00    +0.000 HD
BRANCH  19  23
ATOM     23  C   UNL     1      58.790 -17.148 -11.320  0.00  0.00    +0.024 C 
BRANCH  23  24
ATOM     24  C   UNL     1      58.257 -18.230 -12.234  0.00  0.00    -0.033 A 
ATOM     25  C   UNL     1      57.797 -19.442 -11.698  0.00  0.00    -0.057 A 
ATOM     26  C   UNL     1      57.319 -20.452 -12.535  0.00  0.00    -0.061 A 
ATOM     27  C   UNL     1      57.291 -20.257 -13.915  0.00  0.00    -0.062 A 
ATOM     28  C   UNL     1      57.740 -19.054 -14.458  0.00  0.00    -0.061 A 
ATOM     29  C   UNL     1      58.222 -18.045 -13.623  0.00  0.00    -0.057 A 
ENDBRANCH  23  24
ENDBRANCH  19  23
ENDBRANCH   1  16
TORSDOF 6
ENDMDL
MODEL 9
REMARK VINA RESULT:    -7.183     17.528     19.481
REMARK INTER + INTRA:         -10.254
REMARK INTER:                  -9.703
REMARK INTRA:                  -0.551
REMARK UNBOUND:                -0.552
REMARK  Name = cpd8.pdb
REMARK  8 active torsions:
REMARK  status: ('A' for Active; 'I' for Inactive)
REMARK    1  A    between atoms: C_1  and  O_2
REMARK    2  A    between atoms: O_2  and  C_3
REMARK    3  A    between atoms: C_8  and  O_9
REMARK    4  A    between atoms: O_9  and  C_10
REMARK    5  A    between atoms: C_13  and  C_14
REMARK    6  A    between atoms: C_14  and  C_15
REMARK    7  A    between atoms: N_18  and  C_19
REMARK    8  A    between atoms: C_19  and  C_20
REMARK                            x       y       z     vdW  Elec       q    Type
REMARK                         _______ _______ _______ _____ _____    ______ ____
ROOT
ATOM      1  C   UNL     1      45.642 -17.951 -36.225  0.00  0.00    -0.040 C 
ENDROOT
BRANCH   1  10
ATOM      2  C   UNL     1      40.993 -21.502 -34.746  0.00  0.00    +0.162 A 
ATOM      3  C   UNL     1      41.742 -21.030 -35.844  0.00  0.00    -0.012 A 
ATOM      4  C   UNL     1      42.921 -20.342 -35.621  0.00  0.00    -0.033 A 
ATOM      5  C   UNL     1      43.330 -20.106 -34.323  0.00  0.00    +0.025 A 
ATOM      6  C   UNL     1      42.621 -20.535 -33.214  0.00  0.00    -0.006 A 
ATOM      7  C   UNL     1      41.434 -21.252 -33.419  0.00  0.00    +0.162 A 
ATOM      8  C   UNL     1      44.587 -19.372 -34.365  0.00  0.00    +0.167 C 
ATOM      9  O   UNL     1      45.130 -18.936 -33.366  0.00  0.00    -0.292 OA
ATOM     10  C   UNL     1      45.091 -19.319 -35.802  0.00  0.00    +0.026 C 
ATOM     11  C   UNL     1      43.838 -19.723 -36.626  0.00  0.00    -0.017 C 
BRANCH   2  13
ATOM     12  C   UNL     1      38.861 -21.441 -35.855  0.00  0.00    +0.079 C 
ATOM     13  O   UNL     1      39.863 -22.164 -35.156  0.00  0.00    -0.491 OA
ENDBRANCH   2  13
BRANCH   7  14
ATOM     14  O   UNL     1      40.657 -21.703 -32.384  0.00  0.00    -0.491 OA
ATOM     15  C   UNL     1      40.955 -22.980 -31.831  0.00  0.00    +0.079 C 
ENDBRANCH   7  14
ENDBRANCH   1  10
BRANCH   1  16
ATOM     16  C   UNL     1      46.661 -18.005 -37.387  0.00  0.00    -0.038 C 
ATOM     17  C   UNL     1      46.203 -17.231 -38.626  0.00  0.00    -0.037 C 
ATOM     18  C   UNL     1      47.116 -17.478 -39.829  0.00  0.00    -0.001 C 
ATOM     19  N   UNL     1      47.405 -18.891 -40.115  0.00  0.00    -0.298 N 
ATOM     20  C   UNL     1      46.717 -19.816 -39.210  0.00  0.00    -0.001 C 
ATOM     21  C   UNL     1      46.998 -19.467 -37.747  0.00  0.00    -0.037 C 
ATOM     22  H   UNL     1      48.400 -19.028 -39.938  0.00  0.00    +0.000 HD
BRANCH  19  23
ATOM     23  C   UNL     1      47.149 -19.206 -41.530  0.00  0.00    +0.024 C 
BRANCH  23  24
ATOM     24  C   UNL     1      47.093 -20.690 -41.822  0.00  0.00    -0.033 A 
ATOM     25  C   UNL     1      48.236 -21.486 -41.657  0.00  0.00    -0.057 A 
ATOM     26  C   UNL     1      48.197 -22.852 -41.940  0.00  0.00    -0.061 A 
ATOM     27  C   UNL     1      47.012 -23.437 -42.384  0.00  0.00    -0.062 A 
ATOM     28  C   UNL     1      45.868 -22.658 -42.546  0.00  0.00    -0.061 A 
ATOM     29  C   UNL     1      45.906 -21.291 -42.267  0.00  0.00    -0.057 A 
ENDBRANCH  23  24
ENDBRANCH  19  23
ENDBRANCH   1  16
TORSDOF 6
ENDMDL
MODEL 10
REMARK VINA RESULT:    -7.141      3.645      7.058
REMARK INTER + INTRA:         -10.197
REMARK INTER:                  -9.551
REMARK INTRA:                  -0.647
REMARK UNBOUND:                -0.552
REMARK  Name = cpd8.pdb
REMARK  8 active torsions:
REMARK  status: ('A' for Active; 'I' for Inactive)
REMARK    1  A    between atoms: C_1  and  O_2
REMARK    2  A    between atoms: O_2  and  C_3
REMARK    3  A    between atoms: C_8  and  O_9
REMARK    4  A    between atoms: O_9  and  C_10
REMARK    5  A    between atoms: C_13  and  C_14
REMARK    6  A    between atoms: C_14  and  C_15
REMARK    7  A    between atoms: N_18  and  C_19
REMARK    8  A    between atoms: C_19  and  C_20
REMARK                            x       y       z     vdW  Elec       q    Type
REMARK                         _______ _______ _______ _____ _____    ______ ____
ROOT
ATOM      1  C   UNL     1      32.678 -35.581 -29.904  0.00  0.00    -0.040 C 
ENDROOT
BRANCH   1  10
ATOM      2  C   UNL     1      29.628 -30.426 -29.179  0.00  0.00    +0.162 A 
ATOM      3  C   UNL     1      30.270 -31.461 -28.469  0.00  0.00    -0.012 A 
ATOM      4  C   UNL     1      31.049 -32.377 -29.152  0.00  0.00    -0.033 A 
ATOM      5  C   UNL     1      31.163 -32.276 -30.525  0.00  0.00    +0.025 A 
ATOM      6  C   UNL     1      30.540 -31.286 -31.266  0.00  0.00    -0.006 A 
ATOM      7  C   UNL     1      29.762 -30.336 -30.590  0.00  0.00    +0.162 A 
ATOM      8  C   UNL     1      32.029 -33.348 -30.992  0.00  0.00    +0.167 C 
ATOM      9  O   UNL     1      32.226 -33.569 -32.174  0.00  0.00    -0.292 OA
ATOM     10  C   UNL     1      32.653 -34.051 -29.793  0.00  0.00    +0.026 C 
ATOM     11  C   UNL     1      31.773 -33.565 -28.608  0.00  0.00    -0.017 C 
BRANCH   2  13
ATOM     12  C   UNL     1      28.374 -30.161 -27.145  0.00  0.00    +0.079 C 
ATOM     13  O   UNL     1      28.907 -29.612 -28.341  0.00  0.00    -0.491 OA
ENDBRANCH   2  13
BRANCH   7  14
ATOM     14  O   UNL     1      29.096 -29.331 -31.242  0.00  0.00    -0.491 OA
ATOM     15  C   UNL     1      28.171 -29.693 -32.261  0.00  0.00    +0.079 C 
ENDBRANCH   7  14
ENDBRANCH   1  10
BRANCH   1  16
ATOM     16  C   UNL     1      33.920 -36.148 -30.630  0.00  0.00    -0.038 C 
ATOM     17  C   UNL     1      34.400 -37.481 -30.050  0.00  0.00    -0.037 C 
ATOM     18  C   UNL     1      35.748 -37.910 -30.635  0.00  0.00    -0.001 C 
ATOM     19  N   UNL     1      36.792 -36.876 -30.624  0.00  0.00    -0.298 N 
ATOM     20  C   UNL     1      36.357 -35.621 -30.005  0.00  0.00    -0.001 C 
ATOM     21  C   UNL     1      35.062 -35.111 -30.642  0.00  0.00    -0.037 C 
ATOM     22  H   UNL     1      36.985 -36.644 -31.599  0.00  0.00    +0.000 HD
BRANCH  19  23
ATOM     23  C   UNL     1      38.036 -37.388 -30.026  0.00  0.00    +0.024 C 
BRANCH  23  24
ATOM     24  C   UNL     1      39.280 -37.030 -30.811  0.00  0.00    -0.033 A 
ATOM     25  C   UNL     1      39.195 -36.170 -31.916  0.00  0.00    -0.057 A 
ATOM     26  C   UNL     1      40.335 -35.848 -32.654  0.00  0.00    -0.061 A 
ATOM     27  C   UNL     1      41.572 -36.378 -32.291  0.00  0.00    -0.062 A 
ATOM     28  C   UNL     1      41.670 -37.228 -31.191  0.00  0.00    -0.061 A 
ATOM     29  C   UNL     1      40.531 -37.554 -30.454  0.00  0.00    -0.057 A 
ENDBRANCH  23  24
ENDBRANCH  19  23
ENDBRANCH   1  16
TORSDOF 6
ENDMDL
MODEL 11
REMARK VINA RESULT:    -6.999     18.002     20.091
REMARK INTER + INTRA:         -10.006
REMARK INTER:                  -9.289
REMARK INTRA:                  -0.716
REMARK UNBOUND:                -0.552
REMARK  Name = cpd8.pdb
REMARK  8 active torsions:
REMARK  status: ('A' for Active; 'I' for Inactive)
REMARK    1  A    between atoms: C_1  and  O_2
REMARK    2  A    between atoms: O_2  and  C_3
REMARK    3  A    between atoms: C_8  and  O_9
REMARK    4  A    between atoms: O_9  and  C_10
REMARK    5  A    between atoms: C_13  and  C_14
REMARK    6  A    between atoms: C_14  and  C_15
REMARK    7  A    between atoms: N_18  and  C_19
REMARK    8  A    between atoms: C_19  and  C_20
REMARK                            x       y       z     vdW  Elec       q    Type
REMARK                         _______ _______ _______ _____ _____    ______ ____
ROOT
ATOM      1  C   UNL     1      46.456 -17.854 -35.244  0.00  0.00    -0.040 C 
ENDROOT
BRANCH   1  10
ATOM      2  C   UNL     1      41.197 -18.864 -32.464  0.00  0.00    +0.162 A 
ATOM      3  C   UNL     1      42.067 -17.838 -32.884  0.00  0.00    -0.012 A 
ATOM      4  C   UNL     1      43.128 -18.139 -33.718  0.00  0.00    -0.033 A 
ATOM      5  C   UNL     1      43.332 -19.450 -34.104  0.00  0.00    +0.025 A 
ATOM      6  C   UNL     1      42.514 -20.494 -33.705  0.00  0.00    -0.006 A 
ATOM      7  C   UNL     1      41.421 -20.205 -32.876  0.00  0.00    +0.162 A 
ATOM      8  C   UNL     1      44.500 -19.496 -34.971  0.00  0.00    +0.167 C 
ATOM      9  O   UNL     1      44.979 -20.539 -35.379  0.00  0.00    -0.292 OA
ATOM     10  C   UNL     1      44.938 -18.074 -35.301  0.00  0.00    +0.026 C 
ATOM     11  C   UNL     1      44.185 -17.223 -34.241  0.00  0.00    -0.017 C 
BRANCH   2  13
ATOM     12  C   UNL     1      39.250 -17.481 -32.193  0.00  0.00    +0.079 C 
ATOM     13  O   UNL     1      40.204 -18.381 -31.650  0.00  0.00    -0.491 OA
ENDBRANCH   2  13
BRANCH   7  14
ATOM     14  O   UNL     1      40.568 -21.175 -32.418  0.00  0.00    -0.491 OA
ATOM     15  C   UNL     1      41.118 -22.440 -32.069  0.00  0.00    +0.079 C 
ENDBRANCH   7  14
ENDBRANCH   1  10
BRANCH   1  16
ATOM     16  C   UNL     1      47.147 -17.816 -36.627  0.00  0.00    -0.038 C 
ATOM     17  C   UNL     1      46.392 -16.968 -37.655  0.00  0.00    -0.037 C 
ATOM     18  C   UNL     1      46.970 -17.122 -39.064  0.00  0.00    -0.001 C 
ATOM     19  N   UNL     1      47.173 -18.508 -39.508  0.00  0.00    -0.298 N 
ATOM     20  C   UNL     1      46.735 -19.501 -38.524  0.00  0.00    -0.001 C 
ATOM     21  C   UNL     1      47.378 -19.246 -37.159  0.00  0.00    -0.037 C 
ATOM     22  H   UNL     1      48.180 -18.642 -39.599  0.00  0.00    +0.000 HD
BRANCH  19  23
ATOM     23  C   UNL     1      46.567 -18.732 -40.831  0.00  0.00    +0.024 C 
BRANCH  23  24
ATOM     24  C   UNL     1      46.648 -20.169 -41.301  0.00  0.00    -0.033 A 
ATOM     25  C   UNL     1      47.896 -20.773 -41.515  0.00  0.00    -0.057 A 
ATOM     26  C   UNL     1      47.978 -22.091 -41.964  0.00  0.00    -0.061 A 
ATOM     27  C   UNL     1      46.814 -22.821 -42.198  0.00  0.00    -0.062 A 
ATOM     28  C   UNL     1      45.568 -22.234 -41.984  0.00  0.00    -0.061 A 
ATOM     29  C   UNL     1      45.484 -20.915 -41.538  0.00  0.00    -0.057 A 
ENDBRANCH  23  24
ENDBRANCH  19  23
ENDBRANCH   1  16
TORSDOF 6
ENDMDL
MODEL 12
REMARK VINA RESULT:    -6.956     16.499     19.622
REMARK INTER + INTRA:          -9.949
REMARK INTER:                  -9.201
REMARK INTRA:                  -0.748
REMARK UNBOUND:                -0.552
REMARK  Name = cpd8.pdb
REMARK  8 active torsions:
REMARK  status: ('A' for Active; 'I' for Inactive)
REMARK    1  A    between atoms: C_1  and  O_2
REMARK    2  A    between atoms: O_2  and  C_3
REMARK    3  A    between atoms: C_8  and  O_9
REMARK    4  A    between atoms: O_9  and  C_10
REMARK    5  A    between atoms: C_13  and  C_14
REMARK    6  A    between atoms: C_14  and  C_15
REMARK    7  A    between atoms: N_18  and  C_19
REMARK    8  A    between atoms: C_19  and  C_20
REMARK                            x       y       z     vdW  Elec       q    Type
REMARK                         _______ _______ _______ _____ _____    ______ ____
ROOT
ATOM      1  C   UNL     1      39.994 -20.990 -38.843  0.00  0.00    -0.040 C 
ENDROOT
BRANCH   1  10
ATOM      2  C   UNL     1      45.960 -20.274 -39.391  0.00  0.00    +0.162 A 
ATOM      3  C   UNL     1      44.910 -20.271 -38.450  0.00  0.00    -0.012 A 
ATOM      4  C   UNL     1      43.656 -20.720 -38.824  0.00  0.00    -0.033 A 
ATOM      5  C   UNL     1      43.450 -21.141 -40.124  0.00  0.00    +0.025 A 
ATOM      6  C   UNL     1      44.446 -21.148 -41.086  0.00  0.00    -0.006 A 
ATOM      7  C   UNL     1      45.728 -20.715 -40.721  0.00  0.00    +0.162 A 
ATOM      8  C   UNL     1      42.062 -21.559 -40.255  0.00  0.00    +0.167 C 
ATOM      9  O   UNL     1      41.567 -21.881 -41.320  0.00  0.00    -0.292 OA
ATOM     10  C   UNL     1      41.410 -21.580 -38.877  0.00  0.00    +0.026 C 
ATOM     11  C   UNL     1      42.405 -20.761 -38.009  0.00  0.00    -0.017 C 
BRANCH   2  13
ATOM     12  C   UNL     1      47.123 -19.367 -37.492  0.00  0.00    +0.079 C 
ATOM     13  O   UNL     1      47.127 -19.802 -38.843  0.00  0.00    -0.491 OA
ENDBRANCH   2  13
BRANCH   7  14
ATOM     14  O   UNL     1      46.771 -20.672 -41.609  0.00  0.00    -0.491 OA
ATOM     15  C   UNL     1      47.560 -21.845 -41.772  0.00  0.00    +0.079 C 
ENDBRANCH   7  14
ENDBRANCH   1  10
BRANCH   1  16
ATOM     16  C   UNL     1      39.121 -21.494 -37.670  0.00  0.00    -0.038 C 
ATOM     17  C   UNL     1      38.944 -20.455 -36.561  0.00  0.00    -0.037 C 
ATOM     18  C   UNL     1      38.267 -21.046 -35.321  0.00  0.00    -0.001 C 
ATOM     19  N   UNL     1      38.846 -22.306 -34.834  0.00  0.00    -0.298 N 
ATOM     20  C   UNL     1      40.009 -22.745 -35.608  0.00  0.00    -0.001 C 
ATOM     21  C   UNL     1      39.685 -22.813 -37.102  0.00  0.00    -0.037 C 
ATOM     22  H   UNL     1      38.138 -23.027 -34.974  0.00  0.00    +0.000 HD
BRANCH  19  23
ATOM     23  C   UNL     1      39.134 -22.231 -33.392  0.00  0.00    +0.024 C 
BRANCH  23  24
ATOM     24  C   UNL     1      39.868 -20.972 -32.983  0.00  0.00    -0.033 A 
ATOM     25  C   UNL     1      39.169 -19.904 -32.402  0.00  0.00    -0.057 A 
ATOM     26  C   UNL     1      39.836 -18.734 -32.037  0.00  0.00    -0.061 A 
ATOM     27  C   UNL     1      41.210 -18.622 -32.245  0.00  0.00    -0.062 A 
ATOM     28  C   UNL     1      41.917 -19.679 -32.816  0.00  0.00    -0.061 A 
ATOM     29  C   UNL     1      41.251 -20.848 -33.184  0.00  0.00    -0.057 A 
ENDBRANCH  23  24
ENDBRANCH  19  23
ENDBRANCH   1  16
TORSDOF 6
ENDMDL
MODEL 13
REMARK VINA RESULT:    -6.881     23.523     25.706
REMARK INTER + INTRA:          -9.846
REMARK INTER:                  -8.969
REMARK INTRA:                  -0.878
REMARK UNBOUND:                -0.552
REMARK  Name = cpd8.pdb
REMARK  8 active torsions:
REMARK  status: ('A' for Active; 'I' for Inactive)
REMARK    1  A    between atoms: C_1  and  O_2
REMARK    2  A    between atoms: O_2  and  C_3
REMARK    3  A    between atoms: C_8  and  O_9
REMARK    4  A    between atoms: O_9  and  C_10
REMARK    5  A    between atoms: C_13  and  C_14
REMARK    6  A    between atoms: C_14  and  C_15
REMARK    7  A    between atoms: N_18  and  C_19
REMARK    8  A    between atoms: C_19  and  C_20
REMARK                            x       y       z     vdW  Elec       q    Type
REMARK                         _______ _______ _______ _____ _____    ______ ____
ROOT
ATOM      1  C   UNL     1      54.103 -33.280 -54.942  0.00  0.00    -0.040 C 
ENDROOT
BRANCH   1  10
ATOM      2  C   UNL     1      48.558 -31.238 -53.724  0.00  0.00    +0.162 A 
ATOM      3  C   UNL     1      49.897 -30.826 -53.883  0.00  0.00    -0.012 A 
ATOM      4  C   UNL     1      50.828 -31.712 -54.394  0.00  0.00    -0.033 A 
ATOM      5  C   UNL     1      50.433 -32.996 -54.715  0.00  0.00    +0.025 A 
ATOM      6  C   UNL     1      49.134 -33.450 -54.563  0.00  0.00    -0.006 A 
ATOM      7  C   UNL     1      48.171 -32.561 -54.065  0.00  0.00    +0.162 A 
ATOM      8  C   UNL     1      51.589 -33.717 -55.227  0.00  0.00    +0.167 C 
ATOM      9  O   UNL     1      51.562 -34.905 -55.493  0.00  0.00    -0.292 OA
ATOM     10  C   UNL     1      52.747 -32.743 -55.416  0.00  0.00    +0.026 C 
ATOM     11  C   UNL     1      52.293 -31.501 -54.601  0.00  0.00    -0.017 C 
BRANCH   2  13
ATOM     12  C   UNL     1      47.698 -29.001 -53.919  0.00  0.00    +0.079 C 
ATOM     13  O   UNL     1      47.779 -30.230 -53.213  0.00  0.00    -0.491 OA
ENDBRANCH   2  13
BRANCH   7  14
ATOM     14  O   UNL     1      46.865 -32.926 -53.865  0.00  0.00    -0.491 OA
ATOM     15  C   UNL     1      46.529 -33.566 -52.640  0.00  0.00    +0.079 C 
ENDBRANCH   7  14
ENDBRANCH   1  10
BRANCH   1  16
ATOM     16  C   UNL     1      54.407 -33.016 -53.449  0.00  0.00    -0.038 C 
ATOM     17  C   UNL     1      55.904 -33.026 -53.128  0.00  0.00    -0.037 C 
ATOM     18  C   UNL     1      56.170 -32.983 -51.621  0.00  0.00    -0.001 C 
ATOM     19  N   UNL     1      55.411 -33.958 -50.825  0.00  0.00    -0.298 N 
ATOM     20  C   UNL     1      54.563 -34.834 -51.638  0.00  0.00    -0.001 C 
ATOM     21  C   UNL     1      53.648 -34.019 -52.555  0.00  0.00    -0.037 C 
ATOM     22  H   UNL     1      54.768 -33.422 -50.242  0.00  0.00    +0.000 HD
BRANCH  19  23
ATOM     23  C   UNL     1      56.302 -34.719 -49.934  0.00  0.00    +0.024 C 
BRANCH  23  24
ATOM     24  C   UNL     1      55.978 -34.553 -48.464  0.00  0.00    -0.033 A 
ATOM     25  C   UNL     1      56.516 -33.479 -47.740  0.00  0.00    -0.057 A 
ATOM     26  C   UNL     1      56.235 -33.328 -46.381  0.00  0.00    -0.061 A 
ATOM     27  C   UNL     1      55.410 -34.247 -45.735  0.00  0.00    -0.062 A 
ATOM     28  C   UNL     1      54.865 -35.314 -46.445  0.00  0.00    -0.061 A 
ATOM     29  C   UNL     1      55.147 -35.469 -47.803  0.00  0.00    -0.057 A 
ENDBRANCH  23  24
ENDBRANCH  19  23
ENDBRANCH   1  16
TORSDOF 6
ENDMDL
MODEL 14
REMARK VINA RESULT:    -6.879     16.423     19.898
REMARK INTER + INTRA:          -9.845
REMARK INTER:                  -9.259
REMARK INTRA:                  -0.586
REMARK UNBOUND:                -0.552
REMARK  Name = cpd8.pdb
REMARK  8 active torsions:
REMARK  status: ('A' for Active; 'I' for Inactive)
REMARK    1  A    between atoms: C_1  and  O_2
REMARK    2  A    between atoms: O_2  and  C_3
REMARK    3  A    between atoms: C_8  and  O_9
REMARK    4  A    between atoms: O_9  and  C_10
REMARK    5  A    between atoms: C_13  and  C_14
REMARK    6  A    between atoms: C_14  and  C_15
REMARK    7  A    between atoms: N_18  and  C_19
REMARK    8  A    between atoms: C_19  and  C_20
REMARK                            x       y       z     vdW  Elec       q    Type
REMARK                         _______ _______ _______ _____ _____    ______ ____
ROOT
ATOM      1  C   UNL     1      40.399 -20.998 -38.631  0.00  0.00    -0.040 C 
ENDROOT
BRANCH   1  10
ATOM      2  C   UNL     1      46.189 -20.822 -40.320  0.00  0.00    +0.162 A 
ATOM      3  C   UNL     1      45.078 -21.682 -40.203  0.00  0.00    -0.012 A 
ATOM      4  C   UNL     1      43.830 -21.153 -39.932  0.00  0.00    -0.033 A 
ATOM      5  C   UNL     1      43.698 -19.789 -39.754  0.00  0.00    +0.025 A 
ATOM      6  C   UNL     1      44.762 -18.907 -39.844  0.00  0.00    -0.006 A 
ATOM      7  C   UNL     1      46.032 -19.422 -40.138  0.00  0.00    +0.162 A 
ATOM      8  C   UNL     1      42.298 -19.495 -39.485  0.00  0.00    +0.167 C 
ATOM      9  O   UNL     1      41.903 -18.383 -39.184  0.00  0.00    -0.292 OA
ATOM     10  C   UNL     1      41.468 -20.755 -39.704  0.00  0.00    +0.026 C 
ATOM     11  C   UNL     1      42.540 -21.879 -39.726  0.00  0.00    -0.017 C 
BRANCH   2  13
ATOM     12  C   UNL     1      47.304 -22.530 -41.591  0.00  0.00    +0.079 C 
ATOM     13  O   UNL     1      47.339 -21.519 -40.596  0.00  0.00    -0.491 OA
ENDBRANCH   2  13
BRANCH   7  14
ATOM     14  O   UNL     1      47.145 -18.628 -40.230  0.00  0.00    -0.491 OA
ATOM     15  C   UNL     1      47.024 -17.383 -40.910  0.00  0.00    +0.079 C 
ENDBRANCH   7  14
ENDBRANCH   1  10
BRANCH   1  16
ATOM     16  C   UNL     1      40.906 -21.768 -37.389  0.00  0.00    -0.038 C 
ATOM     17  C   UNL     1      39.789 -22.485 -36.628  0.00  0.00    -0.037 C 
ATOM     18  C   UNL     1      40.275 -23.053 -35.292  0.00  0.00    -0.001 C 
ATOM     19  N   UNL     1      41.025 -22.112 -34.448  0.00  0.00    -0.298 N 
ATOM     20  C   UNL     1      41.130 -20.771 -35.030  0.00  0.00    -0.001 C 
ATOM     21  C   UNL     1      41.694 -20.829 -36.452  0.00  0.00    -0.037 C 
ATOM     22  H   UNL     1      41.982 -22.461 -34.398  0.00  0.00    +0.000 HD
BRANCH  19  23
ATOM     23  C   UNL     1      40.483 -22.082 -33.080  0.00  0.00    +0.024 C 
BRANCH  23  24
ATOM     24  C   UNL     1      39.167 -21.344 -32.963  0.00  0.00    -0.033 A 
ATOM     25  C   UNL     1      39.150 -19.954 -32.780  0.00  0.00    -0.057 A 
ATOM     26  C   UNL     1      37.941 -19.269 -32.656  0.00  0.00    -0.061 A 
ATOM     27  C   UNL     1      36.736 -19.966 -32.720  0.00  0.00    -0.062 A 
ATOM     28  C   UNL     1      36.739 -21.347 -32.908  0.00  0.00    -0.061 A 
ATOM     29  C   UNL     1      37.947 -22.035 -33.028  0.00  0.00    -0.057 A 
ENDBRANCH  23  24
ENDBRANCH  19  23
ENDBRANCH   1  16
TORSDOF 6
ENDMDL
MODEL 15
REMARK VINA RESULT:    -6.870      4.984      9.311
REMARK INTER + INTRA:          -9.831
REMARK INTER:                  -9.025
REMARK INTRA:                  -0.806
REMARK UNBOUND:                -0.552
REMARK  Name = cpd8.pdb
REMARK  8 active torsions:
REMARK  status: ('A' for Active; 'I' for Inactive)
REMARK    1  A    between atoms: C_1  and  O_2
REMARK    2  A    between atoms: O_2  and  C_3
REMARK    3  A    between atoms: C_8  and  O_9
REMARK    4  A    between atoms: O_9  and  C_10
REMARK    5  A    between atoms: C_13  and  C_14
REMARK    6  A    between atoms: C_14  and  C_15
REMARK    7  A    between atoms: N_18  and  C_19
REMARK    8  A    between atoms: C_19  and  C_20
REMARK                            x       y       z     vdW  Elec       q    Type
REMARK                         _______ _______ _______ _____ _____    ______ ____
ROOT
ATOM      1  C   UNL     1      31.062 -33.230 -30.571  0.00  0.00    -0.040 C 
ENDROOT
BRANCH   1  10
ATOM      2  C   UNL     1      27.769 -29.355 -27.322  0.00  0.00    +0.162 A 
ATOM      3  C   UNL     1      28.492 -30.563 -27.237  0.00  0.00    -0.012 A 
ATOM      4  C   UNL     1      29.292 -30.956 -28.293  0.00  0.00    -0.033 A 
ATOM      5  C   UNL     1      29.348 -30.170 -29.428  0.00  0.00    +0.025 A 
ATOM      6  C   UNL     1      28.644 -28.985 -29.564  0.00  0.00    -0.006 A 
ATOM      7  C   UNL     1      27.843 -28.559 -28.496  0.00  0.00    +0.162 A 
ATOM      8  C   UNL     1      30.252 -30.801 -30.378  0.00  0.00    +0.167 C 
ATOM      9  O   UNL     1      30.415 -30.383 -31.511  0.00  0.00    -0.292 OA
ATOM     10  C   UNL     1      30.959 -31.969 -29.702  0.00  0.00    +0.026 C 
ATOM     11  C   UNL     1      30.100 -32.206 -28.429  0.00  0.00    -0.017 C 
BRANCH   2  13
ATOM     12  C   UNL     1      27.659 -28.462 -25.093  0.00  0.00    +0.079 C 
ATOM     13  O   UNL     1      27.038 -29.125 -26.184  0.00  0.00    -0.491 OA
ENDBRANCH   2  13
BRANCH   7  14
ATOM     14  O   UNL     1      27.099 -27.409 -28.546  0.00  0.00    -0.491 OA
ATOM     15  C   UNL     1      27.713 -26.196 -28.126  0.00  0.00    +0.079 C 
ENDBRANCH   7  14
ENDBRANCH   1  10
BRANCH   1  16
ATOM     16  C   UNL     1      32.499 -33.576 -31.024  0.00  0.00    -0.038 C 
ATOM     17  C   UNL     1      32.697 -35.067 -31.311  0.00  0.00    -0.037 C 
ATOM     18  C   UNL     1      34.169 -35.418 -31.542  0.00  0.00    -0.001 C 
ATOM     19  N   UNL     1      35.101 -34.905 -30.528  0.00  0.00    -0.298 N 
ATOM     20  C   UNL     1      34.433 -34.182 -29.443  0.00  0.00    -0.001 C 
ATOM     21  C   UNL     1      33.530 -33.075 -29.991  0.00  0.00    -0.037 C 
ATOM     22  H   UNL     1      35.689 -34.214 -30.993  0.00  0.00    +0.000 HD
BRANCH  19  23
ATOM     23  C   UNL     1      35.975 -35.977 -30.025  0.00  0.00    +0.024 C 
BRANCH  23  24
ATOM     24  C   UNL     1      37.394 -35.900 -30.548  0.00  0.00    -0.033 A 
ATOM     25  C   UNL     1      38.349 -36.842 -30.138  0.00  0.00    -0.057 A 
ATOM     26  C   UNL     1      39.663 -36.769 -30.603  0.00  0.00    -0.061 A 
ATOM     27  C   UNL     1      40.033 -35.755 -31.486  0.00  0.00    -0.062 A 
ATOM     28  C   UNL     1      39.091 -34.817 -31.905  0.00  0.00    -0.061 A 
ATOM     29  C   UNL     1      37.778 -34.887 -31.438  0.00  0.00    -0.057 A 
ENDBRANCH  23  24
ENDBRANCH  19  23
ENDBRANCH   1  16
TORSDOF 6
ENDMDL
MODEL 16
REMARK VINA RESULT:    -6.843     16.304     18.802
REMARK INTER + INTRA:          -9.795
REMARK INTER:                  -8.841
REMARK INTRA:                  -0.954
REMARK UNBOUND:                -0.552
REMARK  Name = cpd8.pdb
REMARK  8 active torsions:
REMARK  status: ('A' for Active; 'I' for Inactive)
REMARK    1  A    between atoms: C_1  and  O_2
REMARK    2  A    between atoms: O_2  and  C_3
REMARK    3  A    between atoms: C_8  and  O_9
REMARK    4  A    between atoms: O_9  and  C_10
REMARK    5  A    between atoms: C_13  and  C_14
REMARK    6  A    between atoms: C_14  and  C_15
REMARK    7  A    between atoms: N_18  and  C_19
REMARK    8  A    between atoms: C_19  and  C_20
REMARK                            x       y       z     vdW  Elec       q    Type
REMARK                         _______ _______ _______ _____ _____    ______ ____
ROOT
ATOM      1  C   UNL     1      43.406 -18.534 -33.728  0.00  0.00    -0.040 C 
ENDROOT
BRANCH   1  10
ATOM      2  C   UNL     1      38.346 -21.727 -32.953  0.00  0.00    +0.162 A 
ATOM      3  C   UNL     1      39.741 -21.853 -33.113  0.00  0.00    -0.012 A 
ATOM      4  C   UNL     1      40.542 -20.727 -33.047  0.00  0.00    -0.033 A 
ATOM      5  C   UNL     1      39.954 -19.492 -32.852  0.00  0.00    +0.025 A 
ATOM      6  C   UNL     1      38.588 -19.317 -32.705  0.00  0.00    -0.006 A 
ATOM      7  C   UNL     1      37.763 -20.449 -32.749  0.00  0.00    +0.162 A 
ATOM      8  C   UNL     1      41.005 -18.485 -32.821  0.00  0.00    +0.167 C 
ATOM      9  O   UNL     1      40.773 -17.291 -32.767  0.00  0.00    -0.292 OA
ATOM     10  C   UNL     1      42.364 -19.175 -32.804  0.00  0.00    +0.026 C 
ATOM     11  C   UNL     1      42.021 -20.629 -33.231  0.00  0.00    -0.017 C 
BRANCH   2  13
ATOM     12  C   UNL     1      38.292 -23.954 -33.856  0.00  0.00    +0.079 C 
ATOM     13  O   UNL     1      37.718 -22.944 -33.042  0.00  0.00    -0.491 OA
ENDBRANCH   2  13
BRANCH   7  14
ATOM     14  O   UNL     1      36.400 -20.370 -32.629  0.00  0.00    -0.491 OA
ATOM     15  C   UNL     1      35.785 -19.098 -32.799  0.00  0.00    +0.079 C 
ENDBRANCH   7  14
ENDBRANCH   1  10
BRANCH   1  16
ATOM     16  C   UNL     1      43.630 -19.289 -35.059  0.00  0.00    -0.038 C 
ATOM     17  C   UNL     1      45.110 -19.496 -35.392  0.00  0.00    -0.037 C 
ATOM     18  C   UNL     1      45.310 -20.045 -36.807  0.00  0.00    -0.001 C 
ATOM     19  N   UNL     1      44.583 -19.327 -37.864  0.00  0.00    -0.298 N 
ATOM     20  C   UNL     1      43.829 -18.174 -37.367  0.00  0.00    -0.001 C 
ATOM     21  C   UNL     1      42.902 -18.576 -36.217  0.00  0.00    -0.037 C 
ATOM     22  H   UNL     1      43.883 -19.973 -38.229  0.00  0.00    +0.000 HD
BRANCH  19  23
ATOM     23  C   UNL     1      45.484 -18.965 -38.971  0.00  0.00    +0.024 C 
BRANCH  23  24
ATOM     24  C   UNL     1      45.179 -19.689 -40.265  0.00  0.00    -0.033 A 
ATOM     25  C   UNL     1      45.431 -21.064 -40.381  0.00  0.00    -0.057 A 
ATOM     26  C   UNL     1      45.167 -21.735 -41.575  0.00  0.00    -0.061 A 
ATOM     27  C   UNL     1      44.645 -21.039 -42.664  0.00  0.00    -0.062 A 
ATOM     28  C   UNL     1      44.385 -19.674 -42.559  0.00  0.00    -0.061 A 
ATOM     29  C   UNL     1      44.651 -19.001 -41.367  0.00  0.00    -0.057 A 
ENDBRANCH  23  24
ENDBRANCH  19  23
ENDBRANCH   1  16
TORSDOF 6
ENDMDL
MODEL 17
REMARK VINA RESULT:    -6.760     17.975     21.229
REMARK INTER + INTRA:          -9.683
REMARK INTER:                  -8.841
REMARK INTRA:                  -0.843
REMARK UNBOUND:                -0.552
REMARK  Name = cpd8.pdb
REMARK  8 active torsions:
REMARK  status: ('A' for Active; 'I' for Inactive)
REMARK    1  A    between atoms: C_1  and  O_2
REMARK    2  A    between atoms: O_2  and  C_3
REMARK    3  A    between atoms: C_8  and  O_9
REMARK    4  A    between atoms: O_9  and  C_10
REMARK    5  A    between atoms: C_13  and  C_14
REMARK    6  A    between atoms: C_14  and  C_15
REMARK    7  A    between atoms: N_18  and  C_19
REMARK    8  A    between atoms: C_19  and  C_20
REMARK                            x       y       z     vdW  Elec       q    Type
REMARK                         _______ _______ _______ _____ _____    ______ ____
ROOT
ATOM      1  C   UNL     1      46.250 -16.949 -36.099  0.00  0.00    -0.040 C 
ENDROOT
BRANCH   1  10
ATOM      2  C   UNL     1      46.270 -20.114 -41.235  0.00  0.00    +0.162 A 
ATOM      3  C   UNL     1      46.014 -18.833 -40.706  0.00  0.00    -0.012 A 
ATOM      4  C   UNL     1      46.376 -18.547 -39.403  0.00  0.00    -0.033 A 
ATOM      5  C   UNL     1      46.961 -19.534 -38.633  0.00  0.00    +0.025 A 
ATOM      6  C   UNL     1      47.218 -20.810 -39.103  0.00  0.00    -0.006 A 
ATOM      7  C   UNL     1      46.877 -21.113 -40.429  0.00  0.00    +0.162 A 
ATOM      8  C   UNL     1      47.242 -18.981 -37.316  0.00  0.00    +0.167 C 
ATOM      9  O   UNL     1      47.664 -19.655 -36.393  0.00  0.00    -0.292 OA
ATOM     10  C   UNL     1      46.987 -17.478 -37.336  0.00  0.00    +0.026 C 
ATOM     11  C   UNL     1      46.160 -17.283 -38.636  0.00  0.00    -0.017 C 
BRANCH   2  13
ATOM     12  C   UNL     1      44.482 -19.984 -42.837  0.00  0.00    +0.079 C 
ATOM     13  O   UNL     1      45.850 -20.213 -42.539  0.00  0.00    -0.491 OA
ENDBRANCH   2  13
BRANCH   7  14
ATOM     14  O   UNL     1      47.079 -22.353 -40.976  0.00  0.00    -0.491 OA
ATOM     15  C   UNL     1      48.416 -22.830 -41.079  0.00  0.00    +0.079 C 
ENDBRANCH   7  14
ENDBRANCH   1  10
BRANCH   1  16
ATOM     16  C   UNL     1      45.182 -17.914 -35.532  0.00  0.00    -0.038 C 
ATOM     17  C   UNL     1      43.749 -17.417 -35.743  0.00  0.00    -0.037 C 
ATOM     18  C   UNL     1      42.728 -18.271 -34.987  0.00  0.00    -0.001 C 
ATOM     19  N   UNL     1      43.043 -18.516 -33.572  0.00  0.00    -0.298 N 
ATOM     20  C   UNL     1      44.271 -17.850 -33.129  0.00  0.00    -0.001 C 
ATOM     21  C   UNL     1      45.449 -18.203 -34.040  0.00  0.00    -0.037 C 
ATOM     22  H   UNL     1      43.228 -19.515 -33.482  0.00  0.00    +0.000 HD
BRANCH  19  23
ATOM     23  C   UNL     1      41.894 -18.191 -32.711  0.00  0.00    +0.024 C 
BRANCH  23  24
ATOM     24  C   UNL     1      40.869 -19.301 -32.619  0.00  0.00    -0.033 A 
ATOM     25  C   UNL     1      39.500 -18.998 -32.605  0.00  0.00    -0.057 A 
ATOM     26  C   UNL     1      38.549 -20.016 -32.505  0.00  0.00    -0.061 A 
ATOM     27  C   UNL     1      38.959 -21.346 -32.423  0.00  0.00    -0.062 A 
ATOM     28  C   UNL     1      40.317 -21.659 -32.442  0.00  0.00    -0.061 A 
ATOM     29  C   UNL     1      41.269 -20.643 -32.539  0.00  0.00    -0.057 A 
ENDBRANCH  23  24
ENDBRANCH  19  23
ENDBRANCH   1  16
TORSDOF 6
ENDMDL
MODEL 18
REMARK VINA RESULT:    -6.754     17.094     18.845
REMARK INTER + INTRA:          -9.675
REMARK INTER:                  -8.845
REMARK INTRA:                  -0.830
REMARK UNBOUND:                -0.552
REMARK  Name = cpd8.pdb
REMARK  8 active torsions:
REMARK  status: ('A' for Active; 'I' for Inactive)
REMARK    1  A    between atoms: C_1  and  O_2
REMARK    2  A    between atoms: O_2  and  C_3
REMARK    3  A    between atoms: C_8  and  O_9
REMARK    4  A    between atoms: O_9  and  C_10
REMARK    5  A    between atoms: C_13  and  C_14
REMARK    6  A    between atoms: C_14  and  C_15
REMARK    7  A    between atoms: N_18  and  C_19
REMARK    8  A    between atoms: C_19  and  C_20
REMARK                            x       y       z     vdW  Elec       q    Type
REMARK                         _______ _______ _______ _____ _____    ______ ____
ROOT
ATOM      1  C   UNL     1      41.602 -22.093 -39.637  0.00  0.00    -0.040 C 
ENDROOT
BRANCH   1  10
ATOM      2  C   UNL     1      38.371 -18.860 -35.699  0.00  0.00    +0.162 A 
ATOM      3  C   UNL     1      38.751 -18.925 -37.055  0.00  0.00    -0.012 A 
ATOM      4  C   UNL     1      39.387 -20.056 -37.533  0.00  0.00    -0.033 A 
ATOM      5  C   UNL     1      39.661 -21.094 -36.663  0.00  0.00    +0.025 A 
ATOM      6  C   UNL     1      39.322 -21.069 -35.321  0.00  0.00    -0.006 A 
ATOM      7  C   UNL     1      38.659 -19.940 -34.823  0.00  0.00    +0.162 A 
ATOM      8  C   UNL     1      40.326 -22.153 -37.410  0.00  0.00    +0.167 C 
ATOM      9  O   UNL     1      40.780 -23.151 -36.878  0.00  0.00    -0.292 OA
ATOM     10  C   UNL     1      40.286 -21.822 -38.897  0.00  0.00    +0.026 C 
ATOM     11  C   UNL     1      39.909 -20.315 -38.908  0.00  0.00    -0.017 C 
BRANCH   2  13
ATOM     12  C   UNL     1      37.386 -16.808 -36.474  0.00  0.00    +0.079 C 
ATOM     13  O   UNL     1      37.751 -17.671 -35.407  0.00  0.00    -0.491 OA
ENDBRANCH   2  13
BRANCH   7  14
ATOM     14  O   UNL     1      38.298 -19.819 -33.506  0.00  0.00    -0.491 OA
ATOM     15  C   UNL     1      38.060 -21.011 -32.765  0.00  0.00    +0.079 C 
ENDBRANCH   7  14
ENDBRANCH   1  10
BRANCH   1  16
ATOM     16  C   UNL     1      42.553 -20.876 -39.714  0.00  0.00    -0.038 C 
ATOM     17  C   UNL     1      43.130 -20.649 -41.114  0.00  0.00    -0.037 C 
ATOM     18  C   UNL     1      44.229 -19.584 -41.118  0.00  0.00    -0.001 C 
ATOM     19  N   UNL     1      45.270 -19.755 -40.094  0.00  0.00    -0.298 N 
ATOM     20  C   UNL     1      45.085 -20.958 -39.278  0.00  0.00    -0.001 C 
ATOM     21  C   UNL     1      43.681 -21.001 -38.669  0.00  0.00    -0.037 C 
ATOM     22  H   UNL     1      45.177 -18.972 -39.448  0.00  0.00    +0.000 HD
BRANCH  19  23
ATOM     23  C   UNL     1      46.613 -19.692 -40.693  0.00  0.00    +0.024 C 
BRANCH  23  24
ATOM     24  C   UNL     1      47.161 -21.042 -41.103  0.00  0.00    -0.033 A 
ATOM     25  C   UNL     1      48.224 -21.618 -40.392  0.00  0.00    -0.057 A 
ATOM     26  C   UNL     1      48.745 -22.855 -40.774  0.00  0.00    -0.061 A 
ATOM     27  C   UNL     1      48.204 -23.531 -41.866  0.00  0.00    -0.062 A 
ATOM     28  C   UNL     1      47.143 -22.972 -42.577  0.00  0.00    -0.061 A 
ATOM     29  C   UNL     1      46.624 -21.733 -42.199  0.00  0.00    -0.057 A 
ENDBRANCH  23  24
ENDBRANCH  19  23
ENDBRANCH   1  16
TORSDOF 6
ENDMDL
MODEL 19
REMARK VINA RESULT:    -6.614      4.577      8.768
REMARK INTER + INTRA:          -9.486
REMARK INTER:                  -8.780
REMARK INTRA:                  -0.706
REMARK UNBOUND:                -0.552
REMARK  Name = cpd8.pdb
REMARK  8 active torsions:
REMARK  status: ('A' for Active; 'I' for Inactive)
REMARK    1  A    between atoms: C_1  and  O_2
REMARK    2  A    between atoms: O_2  and  C_3
REMARK    3  A    between atoms: C_8  and  O_9
REMARK    4  A    between atoms: O_9  and  C_10
REMARK    5  A    between atoms: C_13  and  C_14
REMARK    6  A    between atoms: C_14  and  C_15
REMARK    7  A    between atoms: N_18  and  C_19
REMARK    8  A    between atoms: C_19  and  C_20
REMARK                            x       y       z     vdW  Elec       q    Type
REMARK                         _______ _______ _______ _____ _____    ______ ____
ROOT
ATOM      1  C   UNL     1      32.142 -33.143 -29.972  0.00  0.00    -0.040 C 
ENDROOT
BRANCH   1  10
ATOM      2  C   UNL     1      27.909 -28.844 -29.925  0.00  0.00    +0.162 A 
ATOM      3  C   UNL     1      29.096 -29.259 -29.288  0.00  0.00    -0.012 A 
ATOM      4  C   UNL     1      29.849 -30.278 -29.842  0.00  0.00    -0.033 A 
ATOM      5  C   UNL     1      29.408 -30.890 -31.000  0.00  0.00    +0.025 A 
ATOM      6  C   UNL     1      28.242 -30.527 -31.653  0.00  0.00    -0.006 A 
ATOM      7  C   UNL     1      27.476 -29.483 -31.117  0.00  0.00    +0.162 A 
ATOM      8  C   UNL     1      30.371 -31.916 -31.370  0.00  0.00    +0.167 C 
ATOM      9  O   UNL     1      30.190 -32.689 -32.294  0.00  0.00    -0.292 OA
ATOM     10  C   UNL     1      31.601 -31.799 -30.477  0.00  0.00    +0.026 C 
ATOM     11  C   UNL     1      31.102 -30.897 -29.315  0.00  0.00    -0.017 C 
BRANCH   2  13
ATOM     12  C   UNL     1      28.110 -26.878 -28.556  0.00  0.00    +0.079 C 
ATOM     13  O   UNL     1      27.300 -27.823 -29.239  0.00  0.00    -0.491 OA
ENDBRANCH   2  13
BRANCH   7  14
ATOM     14  O   UNL     1      26.300 -29.066 -31.685  0.00  0.00    -0.491 OA
ATOM     15  C   UNL     1      26.356 -28.454 -32.968  0.00  0.00    +0.079 C 
ENDBRANCH   7  14
ENDBRANCH   1  10
BRANCH   1  16
ATOM     16  C   UNL     1      33.350 -33.685 -30.770  0.00  0.00    -0.038 C 
ATOM     17  C   UNL     1      33.149 -35.118 -31.270  0.00  0.00    -0.037 C 
ATOM     18  C   UNL     1      34.433 -35.706 -31.862  0.00  0.00    -0.001 C 
ATOM     19  N   UNL     1      35.632 -35.559 -31.025  0.00  0.00    -0.298 N 
ATOM     20  C   UNL     1      35.364 -34.907 -29.740  0.00  0.00    -0.001 C 
ATOM     21  C   UNL     1      34.645 -33.571 -29.939  0.00  0.00    -0.037 C 
ATOM     22  H   UNL     1      36.261 -34.929 -31.522  0.00  0.00    +0.000 HD
BRANCH  19  23
ATOM     23  C   UNL     1      36.322 -36.849 -30.860  0.00  0.00    +0.024 C 
BRANCH  23  24
ATOM     24  C   UNL     1      37.831 -36.733 -30.844  0.00  0.00    -0.033 A 
ATOM     25  C   UNL     1      38.487 -35.918 -31.778  0.00  0.00    -0.057 A 
ATOM     26  C   UNL     1      39.879 -35.819 -31.780  0.00  0.00    -0.061 A 
ATOM     27  C   UNL     1      40.629 -36.529 -30.843  0.00  0.00    -0.062 A 
ATOM     28  C   UNL     1      39.988 -37.337 -29.905  0.00  0.00    -0.061 A 
ATOM     29  C   UNL     1      38.596 -37.440 -29.905  0.00  0.00    -0.057 A 
ENDBRANCH  23  24
ENDBRANCH  19  23
ENDBRANCH   1  16
TORSDOF 6
ENDMDL
MODEL 20
REMARK VINA RESULT:    -6.520     23.500     25.736
REMARK INTER + INTRA:          -9.359
REMARK INTER:                  -8.817
REMARK INTRA:                  -0.542
REMARK UNBOUND:                -0.552
REMARK  Name = cpd8.pdb
REMARK  8 active torsions:
REMARK  status: ('A' for Active; 'I' for Inactive)
REMARK    1  A    between atoms: C_1  and  O_2
REMARK    2  A    between atoms: O_2  and  C_3
REMARK    3  A    between atoms: C_8  and  O_9
REMARK    4  A    between atoms: O_9  and  C_10
REMARK    5  A    between atoms: C_13  and  C_14
REMARK    6  A    between atoms: C_14  and  C_15
REMARK    7  A    between atoms: N_18  and  C_19
REMARK    8  A    between atoms: C_19  and  C_20
REMARK                            x       y       z     vdW  Elec       q    Type
REMARK                         _______ _______ _______ _____ _____    ______ ____
ROOT
ATOM      1  C   UNL     1      54.690 -33.170 -54.216  0.00  0.00    -0.040 C 
ENDROOT
BRANCH   1  10
ATOM      2  C   UNL     1      48.775 -32.379 -55.102  0.00  0.00    +0.162 A 
ATOM      3  C   UNL     1      49.821 -33.311 -55.265  0.00  0.00    -0.012 A 
ATOM      4  C   UNL     1      51.049 -33.069 -54.676  0.00  0.00    -0.033 A 
ATOM      5  C   UNL     1      51.236 -31.903 -53.959  0.00  0.00    +0.025 A 
ATOM      6  C   UNL     1      50.244 -30.952 -53.786  0.00  0.00    -0.006 A 
ATOM      7  C   UNL     1      48.987 -31.189 -54.358  0.00  0.00    +0.162 A 
ATOM      8  C   UNL     1      52.599 -31.893 -53.449  0.00  0.00    +0.167 C 
ATOM      9  O   UNL     1      53.079 -30.937 -52.867  0.00  0.00    -0.292 OA
ATOM     10  C   UNL     1      53.244 -33.249 -53.709  0.00  0.00    +0.026 C 
ATOM     11  C   UNL     1      52.293 -33.891 -54.756  0.00  0.00    -0.017 C 
BRANCH   2  13
ATOM     12  C   UNL     1      46.743 -33.664 -55.077  0.00  0.00    +0.079 C 
ATOM     13  O   UNL     1      47.634 -32.786 -55.748  0.00  0.00    -0.491 OA
ENDBRANCH   2  13
BRANCH   7  14
ATOM     14  O   UNL     1      47.950 -30.298 -54.252  0.00  0.00    -0.491 OA
ATOM     15  C   UNL     1      47.245 -30.235 -53.018  0.00  0.00    +0.079 C 
ENDBRANCH   7  14
ENDBRANCH   1  10
BRANCH   1  16
ATOM     16  C   UNL     1      55.748 -33.675 -53.206  0.00  0.00    -0.038 C 
ATOM     17  C   UNL     1      55.748 -35.197 -53.044  0.00  0.00    -0.037 C 
ATOM     18  C   UNL     1      56.643 -35.652 -51.889  0.00  0.00    -0.001 C 
ATOM     19  N   UNL     1      56.431 -34.945 -50.618  0.00  0.00    -0.298 N 
ATOM     20  C   UNL     1      55.356 -33.952 -50.681  0.00  0.00    -0.001 C 
ATOM     21  C   UNL     1      55.572 -32.978 -51.841  0.00  0.00    -0.037 C 
ATOM     22  H   UNL     1      57.281 -34.412 -50.434  0.00  0.00    +0.000 HD
BRANCH  19  23
ATOM     23  C   UNL     1      56.245 -35.896 -49.509  0.00  0.00    +0.024 C 
BRANCH  23  24
ATOM     24  C   UNL     1      55.885 -35.235 -48.196  0.00  0.00    -0.033 A 
ATOM     25  C   UNL     1      56.560 -34.078 -47.779  0.00  0.00    -0.057 A 
ATOM     26  C   UNL     1      56.245 -33.472 -46.562  0.00  0.00    -0.061 A 
ATOM     27  C   UNL     1      55.248 -34.015 -45.752  0.00  0.00    -0.062 A 
ATOM     28  C   UNL     1      54.567 -35.160 -46.158  0.00  0.00    -0.061 A 
ATOM     29  C   UNL     1      54.883 -35.769 -47.373  0.00  0.00    -0.057 A 
ENDBRANCH  23  24
ENDBRANCH  19  23
ENDBRANCH   1  16
TORSDOF 6
ENDMDL
