REMARK  Name = cpd8.pdb
REMARK  8 active torsions:
REMARK  status: ('A' for Active; 'I' for Inactive)
REMARK    1  A    between atoms: C_1  and  O_2
REMARK    2  A    between atoms: O_2  and  C_3
REMARK    3  A    between atoms: C_8  and  O_9
REMARK    4  A    between atoms: O_9  and  C_10
REMARK    5  A    between atoms: C_13  and  C_14
REMARK    6  A    between atoms: C_14  and  C_15
REMARK    7  A    between atoms: N_18  and  C_19
REMARK    8  A    between atoms: C_19  and  C_20
REMARK                            x       y       z     vdW  Elec       q    Type
REMARK                         _______ _______ _______ _____ _____    ______ ____
ROOT
ATOM      1  C   UNL     1      -1.650  -0.019   0.214  0.00  0.00    -0.040 C 
ENDROOT
BRANCH   1  10
ATOM      2  C   UNL     1       4.147  -1.670  -0.052  0.00  0.00    +0.162 A 
ATOM      3  C   UNL     1       3.290  -0.647   0.402  0.00  0.00    -0.012 A 
ATOM      4  C   UNL     1       1.922  -0.850   0.399  0.00  0.00    -0.033 A 
ATOM      5  C   UNL     1       1.418  -2.046  -0.075  0.00  0.00    +0.025 A 
ATOM      6  C   UNL     1       2.219  -3.073  -0.545  0.00  0.00    -0.006 A 
ATOM      7  C   UNL     1       3.609  -2.894  -0.531  0.00  0.00    +0.162 A 
ATOM      8  C   UNL     1      -0.033  -2.005   0.030  0.00  0.00    +0.167 C 
ATOM      9  O   UNL     1      -0.752  -2.884  -0.411  0.00  0.00    -0.292 OA
ATOM     10  C   UNL     1      -0.447  -0.762   0.809  0.00  0.00    +0.026 C 
ATOM     11  C   UNL     1       0.842   0.105   0.791  0.00  0.00    -0.017 C 
BRANCH   2  13
ATOM     12  C   UNL     1       6.470  -2.281  -0.150  0.00  0.00    +0.079 C 
ATOM     13  O   UNL     1       5.465  -1.295   0.029  0.00  0.00    -0.491 OA
ENDBRANCH   2  13
BRANCH   7  14
ATOM     14  O   UNL     1       4.479  -3.848  -0.991  0.00  0.00    -0.491 OA
ATOM     15  C   UNL     1       3.958  -5.136  -1.299  0.00  0.00    +0.079 C 
ENDBRANCH   7  14
ENDBRANCH   1  10
BRANCH   1  16
ATOM     16  C   UNL     1      -3.007  -0.381   0.861  0.00  0.00    -0.038 C 
ATOM     17  C   UNL     1      -3.395  -1.849   0.666  0.00  0.00    -0.037 C 
ATOM     18  C   UNL     1      -4.830  -2.130   1.119  0.00  0.00    -0.001 C 
ATOM     19  N   UNL     1      -5.843  -1.200   0.600  0.00  0.00    -0.298 N 
ATOM     20  C   UNL     1      -5.290  -0.189  -0.305  0.00  0.00    -0.001 C 
ATOM     21  C   UNL     1      -4.121   0.554   0.346  0.00  0.00    -0.037 C 
ATOM     22  H   UNL     1      -6.201  -0.680   1.401  0.00  0.00    +0.000 HD
BRANCH  19  23
ATOM     23  C   UNL     1      -6.969  -1.930  -0.005  0.00  0.00    +0.024 C 
BRANCH  23  24
ATOM     24  C   UNL     1      -8.198  -1.075  -0.229  0.00  0.00    -0.033 A 
ATOM     25  C   UNL     1      -8.905  -0.555   0.865  0.00  0.00    -0.057 A 
ATOM     26  C   UNL     1     -10.048   0.221   0.667  0.00  0.00    -0.061 A 
ATOM     27  C   UNL     1     -10.492   0.489  -0.627  0.00  0.00    -0.062 A 
ATOM     28  C   UNL     1      -9.794  -0.017  -1.722  0.00  0.00    -0.061 A 
ATOM     29  C   UNL     1      -8.653  -0.796  -1.526  0.00  0.00    -0.057 A 
ENDBRANCH  23  24
ENDBRANCH  19  23
ENDBRANCH   1  16
TORSDOF 6
