REMARK  Name = cpd38.pdb
REMARK  17 active torsions:
REMARK  status: ('A' for Active; 'I' for Inactive)
REMARK    1  A    between atoms: C_1  and  C_2
REMARK    2  A    between atoms: C_6  and  N_7
REMARK    3  A    between atoms: N_7  and  C_8
REMARK    4  A    between atoms: C_13  and  C_14
REMARK    5  A    between atoms: N_16  and  C_17
REMARK    6  A    between atoms: C_17  and  C_18
REMARK    7  A    between atoms: C_18  and  C_19
REMARK    8  A    between atoms: N_21  and  C_22
REMARK    9  A    between atoms: C_22  and  C_23
REMARK   10  A    between atoms: C_23  and  C_24
REMARK   11  A    between atoms: C_24  and  C_25
REMARK   12  A    between atoms: C_25  and  C_26
REMARK   13  A    between atoms: C_26  and  C_27
REMARK   14  A    between atoms: C_27  and  C_28
REMARK   15  A    between atoms: C_28  and  N_29
REMARK   16  A    between atoms: N_29  and  C_30
REMARK   17  A    between atoms: C_44  and  C_45
REMARK                            x       y       z     vdW  Elec       q    Type
REMARK                         _______ _______ _______ _____ _____    ______ ____
ROOT
ATOM      1  C   UNL A   1       5.972   3.660   0.869  0.00  0.00    +0.215 C 
ATOM      2  O   UNL A   1       6.260   3.487   2.049  0.00  0.00    -0.276 OA
ATOM      3  N   UNL A   1       6.778   3.273  -0.177  0.00  0.00    -0.315 N 
ATOM      4  H   UNL A   1       6.459   3.389  -1.101  0.00  0.00    +0.000 HD
ENDROOT
BRANCH   1   5
ATOM      5  C   UNL A   1       4.668   4.295   0.458  0.00  0.00    +0.039 C 
BRANCH   5   6
ATOM      6  C   UNL A   1       3.605   3.227   0.281  0.00  0.00    +0.020 C 
BRANCH   6   9
ATOM      7  C   UNL A   1       1.258   3.085  -0.445  0.00  0.00    +0.246 C 
ATOM      8  O   UNL A   1       1.419   1.998  -0.989  0.00  0.00    -0.270 OA
ATOM      9  N   UNL A   1       2.285   3.815   0.125  0.00  0.00    -0.311 N 
ATOM     10  H   UNL A   1       2.121   4.738   0.427  0.00  0.00    +0.000 HD
BRANCH   7  16
ATOM     11  C   UNL A   1      -1.227   2.812  -0.139  0.00  0.00    +0.044 A 
ATOM     12  C   UNL A   1      -2.474   3.410   0.107  0.00  0.00    -0.040 A 
ATOM     13  C   UNL A   1      -2.632   4.799   0.090  0.00  0.00    -0.060 A 
ATOM     14  C   UNL A   1      -1.537   5.623  -0.148  0.00  0.00    -0.061 A 
ATOM     15  C   UNL A   1      -0.276   5.060  -0.337  0.00  0.00    -0.048 A 
ATOM     16  C   UNL A   1      -0.111   3.663  -0.302  0.00  0.00    +0.058 A 
BRANCH  11  17
ATOM     17  N   UNL A   1      -1.071   1.401  -0.058  0.00  0.00    -0.314 N 
ATOM     18  H   UNL A   1      -0.187   1.088   0.242  0.00  0.00    +0.000 HD
BRANCH  17  24
ATOM     19  C   UNL A   1      -2.673  -3.295   0.555  0.00  0.00    -0.039 C 
ATOM     20  C   UNL A   1      -2.764  -1.934  -0.081  0.00  0.00    -0.046 A 
ATOM     21  C   UNL A   1      -3.743  -1.714  -1.061  0.00  0.00    -0.058 A 
ATOM     22  C   UNL A   1      -3.845  -0.482  -1.700  0.00  0.00    -0.060 A 
ATOM     23  C   UNL A   1      -2.974   0.550  -1.360  0.00  0.00    -0.040 A 
ATOM     24  C   UNL A   1      -2.015   0.382  -0.351  0.00  0.00    +0.035 A 
ATOM     25  C   UNL A   1      -1.900  -0.876   0.291  0.00  0.00    -0.026 A 
ATOM     26  C   UNL A   1      -0.822  -1.091   1.326  0.00  0.00    -0.038 C 
ENDBRANCH  17  24
ENDBRANCH  11  17
ENDBRANCH   7  16
ENDBRANCH   6   9
ENDBRANCH   5   6
ENDBRANCH   1   5
BRANCH   3  27
ATOM     27  C   UNL A   1       8.089   2.698   0.057  0.00  0.00    +0.012 C 
BRANCH  27  28
ATOM     28  C   UNL A   1       9.122   3.777   0.377  0.00  0.00    -0.037 C 
BRANCH  28  29
ATOM     29  C   UNL A   1      10.476   3.174   0.759  0.00  0.00    -0.052 C 
BRANCH  29  30
ATOM     30  C   UNL A   1      11.468   4.273   1.151  0.00  0.00    -0.053 C 
BRANCH  30  31
ATOM     31  C   UNL A   1      12.805   3.730   1.665  0.00  0.00    -0.052 C 
BRANCH  31  32
ATOM     32  C   UNL A   1      13.934   3.728   0.630  0.00  0.00    -0.037 C 
BRANCH  32  33
ATOM     33  C   UNL A   1      13.740   2.716  -0.499  0.00  0.00    +0.009 C 
BRANCH  33  34
ATOM     34  N   UNL A   1      14.875   2.707  -1.438  0.00  0.00    -0.343 N 
ATOM     35  H   UNL A   1      14.828   3.133  -2.324  0.00  0.00    +0.000 HD
BRANCH  34  36
ATOM     36  C   UNL A   1      16.043   2.041  -0.976  0.00  0.00    +0.041 A 
ATOM     37  C   UNL A   1      17.178   2.783  -0.579  0.00  0.00    -0.005 A 
ATOM     38  C   UNL A   1      18.265   2.077  -0.053  0.00  0.00    +0.047 A 
ATOM     39  N   UNL A   1      18.265   0.736   0.124  0.00  0.00    -0.251 NA
ATOM     40  C   UNL A   1      17.202   0.029  -0.274  0.00  0.00    +0.073 A 
ATOM     41  C   UNL A   1      17.244  -1.352  -0.121  0.00  0.00    -0.036 A 
ATOM     42  C   UNL A   1      16.198  -2.176  -0.540  0.00  0.00    -0.060 A 
ATOM     43  C   UNL A   1      15.083  -1.612  -1.138  0.00  0.00    -0.061 A 
ATOM     44  C   UNL A   1      15.018  -0.228  -1.295  0.00  0.00    -0.051 A 
ATOM     45  C   UNL A   1      16.060   0.622  -0.847  0.00  0.00    +0.021 A 
ATOM     46  C   UNL A   1      19.514   2.774   0.424  0.00  0.00    -0.010 C 
ATOM     47  C   UNL A   1      19.697   4.162  -0.175  0.00  0.00    -0.047 C 
ATOM     48  C   UNL A   1      18.410   4.955  -0.025  0.00  0.00    -0.049 C 
ATOM     49  C   UNL A   1      17.272   4.278  -0.787  0.00  0.00    -0.024 C 
ENDBRANCH  34  36
ENDBRANCH  33  34
ENDBRANCH  32  33
ENDBRANCH  31  32
ENDBRANCH  30  31
ENDBRANCH  29  30
ENDBRANCH  28  29
ENDBRANCH  27  28
ENDBRANCH   3  27
TORSDOF 15
