MODEL 1
REMARK VINA RESULT:    -7.470      0.000      0.000
REMARK INTER + INTRA:         -19.097
REMARK INTER:                 -14.021
REMARK INTRA:                  -5.076
REMARK UNBOUND:                -5.076
REMARK  Name = cpd38.pdb
REMARK  17 active torsions:
REMARK  status: ('A' for Active; 'I' for Inactive)
REMARK    1  A    between atoms: C_1  and  C_2
REMARK    2  A    between atoms: C_6  and  N_7
REMARK    3  A    between atoms: N_7  and  C_8
REMARK    4  A    between atoms: C_13  and  C_14
REMARK    5  A    between atoms: N_16  and  C_17
REMARK    6  A    between atoms: C_17  and  C_18
REMARK    7  A    between atoms: C_18  and  C_19
REMARK    8  A    between atoms: N_21  and  C_22
REMARK    9  A    between atoms: C_22  and  C_23
REMARK   10  A    between atoms: C_23  and  C_24
REMARK   11  A    between atoms: C_24  and  C_25
REMARK   12  A    between atoms: C_25  and  C_26
REMARK   13  A    between atoms: C_26  and  C_27
REMARK   14  A    between atoms: C_27  and  C_28
REMARK   15  A    between atoms: C_28  and  N_29
REMARK   16  A    between atoms: N_29  and  C_30
REMARK   17  A    between atoms: C_44  and  C_45
REMARK                            x       y       z     vdW  Elec       q    Type
REMARK                         _______ _______ _______ _____ _____    ______ ____
ROOT
ATOM      1  C   UNL A   1      30.775 -36.387 -28.449  0.00  0.00    +0.215 C 
ATOM      2  O   UNL A   1      30.635 -36.377 -27.230  0.00  0.00    -0.276 OA
ATOM      3  N   UNL A   1      31.673 -35.589 -29.120  0.00  0.00    -0.315 N 
ATOM      4  H   UNL A   1      31.775 -35.691 -30.094  0.00  0.00    +0.000 HD
ENDROOT
BRANCH   1   5
ATOM      5  C   UNL A   1      29.980 -37.319 -29.328  0.00  0.00    +0.039 C 
BRANCH   5   6
ATOM      6  C   UNL A   1      30.328 -38.760 -29.003  0.00  0.00    +0.020 C 
BRANCH   6   9
ATOM      7  C   UNL A   1      32.218 -40.294 -29.364  0.00  0.00    +0.246 C 
ATOM      8  O   UNL A   1      31.515 -41.294 -29.267  0.00  0.00    -0.270 OA
ATOM      9  N   UNL A   1      31.752 -39.009 -29.159  0.00  0.00    -0.311 N 
ATOM     10  H   UNL A   1      32.388 -38.258 -29.118  0.00  0.00    +0.000 HD
BRANCH   7  16
ATOM     11  C   UNL A   1      34.010 -40.117 -31.125  0.00  0.00    +0.044 A 
ATOM     12  C   UNL A   1      35.378 -40.130 -31.444  0.00  0.00    -0.040 A 
ATOM     13  C   UNL A   1      36.341 -40.521 -30.508  0.00  0.00    -0.060 A 
ATOM     14  C   UNL A   1      35.957 -40.882 -29.221  0.00  0.00    -0.061 A 
ATOM     15  C   UNL A   1      34.612 -40.821 -28.858  0.00  0.00    -0.048 A 
ATOM     16  C   UNL A   1      33.643 -40.411 -29.792  0.00  0.00    +0.058 A 
BRANCH  11  17
ATOM     17  N   UNL A   1      33.050 -39.659 -32.068  0.00  0.00    -0.314 N 
ATOM     18  H   UNL A   1      32.627 -40.359 -32.617  0.00  0.00    +0.000 HD
BRANCH  17  24
ATOM     19  C   UNL A   1      29.605 -36.526 -33.888  0.00  0.00    -0.039 C 
ATOM     20  C   UNL A   1      30.946 -36.808 -33.265  0.00  0.00    -0.046 A 
ATOM     21  C   UNL A   1      31.821 -35.735 -33.039  0.00  0.00    -0.058 A 
ATOM     22  C   UNL A   1      33.084 -35.951 -32.495  0.00  0.00    -0.060 A 
ATOM     23  C   UNL A   1      33.485 -37.242 -32.161  0.00  0.00    -0.040 A 
ATOM     24  C   UNL A   1      32.619 -38.332 -32.328  0.00  0.00    +0.035 A 
ATOM     25  C   UNL A   1      31.338 -38.117 -32.895  0.00  0.00    -0.026 A 
ATOM     26  C   UNL A   1      30.426 -39.293 -33.148  0.00  0.00    -0.038 C 
ENDBRANCH  17  24
ENDBRANCH  11  17
ENDBRANCH   7  16
ENDBRANCH   6   9
ENDBRANCH   5   6
ENDBRANCH   1   5
BRANCH   3  27
ATOM     27  C   UNL A   1      32.470 -34.601 -28.420  0.00  0.00    +0.012 C 
BRANCH  27  28
ATOM     28  C   UNL A   1      32.059 -33.180 -28.802  0.00  0.00    -0.037 C 
BRANCH  28  29
ATOM     29  C   UNL A   1      31.998 -32.993 -30.319  0.00  0.00    -0.052 C 
BRANCH  29  30
ATOM     30  C   UNL A   1      32.792 -31.755 -30.746  0.00  0.00    -0.053 C 
BRANCH  30  31
ATOM     31  C   UNL A   1      34.308 -31.977 -30.749  0.00  0.00    -0.052 C 
BRANCH  31  32
ATOM     32  C   UNL A   1      34.767 -33.244 -31.476  0.00  0.00    -0.037 C 
BRANCH  32  33
ATOM     33  C   UNL A   1      36.093 -33.808 -30.965  0.00  0.00    +0.009 C 
BRANCH  33  34
ATOM     34  N   UNL A   1      36.469 -35.054 -31.654  0.00  0.00    -0.343 N 
ATOM     35  H   UNL A   1      36.140 -35.278 -32.554  0.00  0.00    +0.000 HD
BRANCH  34  36
ATOM     36  C   UNL A   1      37.340 -35.912 -30.929  0.00  0.00    +0.041 A 
ATOM     37  C   UNL A   1      38.670 -36.111 -31.362  0.00  0.00    -0.005 A 
ATOM     38  C   UNL A   1      39.505 -36.898 -30.561  0.00  0.00    +0.047 A 
ATOM     39  N   UNL A   1      39.111 -37.440 -29.386  0.00  0.00    -0.251 NA
ATOM     40  C   UNL A   1      37.846 -37.274 -28.986  0.00  0.00    +0.073 A 
ATOM     41  C   UNL A   1      37.454 -37.878 -27.797  0.00  0.00    -0.036 A 
ATOM     42  C   UNL A   1      36.146 -37.791 -27.317  0.00  0.00    -0.060 A 
ATOM     43  C   UNL A   1      35.198 -37.093 -28.047  0.00  0.00    -0.061 A 
ATOM     44  C   UNL A   1      35.571 -36.475 -29.239  0.00  0.00    -0.051 A 
ATOM     45  C   UNL A   1      36.903 -36.530 -29.722  0.00  0.00    +0.021 A 
ATOM     46  C   UNL A   1      40.947 -37.151 -30.919  0.00  0.00    -0.010 C 
ATOM     47  C   UNL A   1      41.248 -36.945 -32.397  0.00  0.00    -0.047 C 
ATOM     48  C   UNL A   1      40.690 -35.606 -32.848  0.00  0.00    -0.049 C 
ATOM     49  C   UNL A   1      39.171 -35.576 -32.685  0.00  0.00    -0.024 C 
ENDBRANCH  34  36
ENDBRANCH  33  34
ENDBRANCH  32  33
ENDBRANCH  31  32
ENDBRANCH  30  31
ENDBRANCH  29  30
ENDBRANCH  28  29
ENDBRANCH  27  28
ENDBRANCH   3  27
TORSDOF 15
ENDMDL
MODEL 2
REMARK VINA RESULT:    -7.303     17.632     22.173
REMARK INTER + INTRA:         -18.783
REMARK INTER:                 -12.883
REMARK INTRA:                  -5.900
REMARK UNBOUND:                -5.076
REMARK  Name = cpd38.pdb
REMARK  17 active torsions:
REMARK  status: ('A' for Active; 'I' for Inactive)
REMARK    1  A    between atoms: C_1  and  C_2
REMARK    2  A    between atoms: C_6  and  N_7
REMARK    3  A    between atoms: N_7  and  C_8
REMARK    4  A    between atoms: C_13  and  C_14
REMARK    5  A    between atoms: N_16  and  C_17
REMARK    6  A    between atoms: C_17  and  C_18
REMARK    7  A    between atoms: C_18  and  C_19
REMARK    8  A    between atoms: N_21  and  C_22
REMARK    9  A    between atoms: C_22  and  C_23
REMARK   10  A    between atoms: C_23  and  C_24
REMARK   11  A    between atoms: C_24  and  C_25
REMARK   12  A    between atoms: C_25  and  C_26
REMARK   13  A    between atoms: C_26  and  C_27
REMARK   14  A    between atoms: C_27  and  C_28
REMARK   15  A    between atoms: C_28  and  N_29
REMARK   16  A    between atoms: N_29  and  C_30
REMARK   17  A    between atoms: C_44  and  C_45
REMARK                            x       y       z     vdW  Elec       q    Type
REMARK                         _______ _______ _______ _____ _____    ______ ____
ROOT
ATOM      1  C   UNL A   1      45.509 -18.362 -34.727  0.00  0.00    +0.215 C 
ATOM      2  O   UNL A   1      44.748 -17.553 -34.206  0.00  0.00    -0.276 OA
ATOM      3  N   UNL A   1      45.099 -19.567 -35.251  0.00  0.00    -0.315 N 
ATOM      4  H   UNL A   1      45.754 -20.143 -35.708  0.00  0.00    +0.000 HD
ENDROOT
BRANCH   1   5
ATOM      5  C   UNL A   1      46.984 -18.084 -34.868  0.00  0.00    +0.039 C 
BRANCH   5   6
ATOM      6  C   UNL A   1      47.275 -17.519 -36.246  0.00  0.00    +0.020 C 
BRANCH   6   9
ATOM      7  C   UNL A   1      46.084 -16.734 -38.251  0.00  0.00    +0.246 C 
ATOM      8  O   UNL A   1      47.121 -16.540 -38.876  0.00  0.00    -0.270 OA
ATOM      9  N   UNL A   1      46.052 -17.124 -36.925  0.00  0.00    -0.311 N 
ATOM     10  H   UNL A   1      45.196 -17.135 -36.438  0.00  0.00    +0.000 HD
BRANCH   7  16
ATOM     11  C   UNL A   1      44.548 -17.258 -40.177  0.00  0.00    +0.044 A 
ATOM     12  C   UNL A   1      43.251 -17.220 -40.716  0.00  0.00    -0.040 A 
ATOM     13  C   UNL A   1      42.227 -16.496 -40.099  0.00  0.00    -0.060 A 
ATOM     14  C   UNL A   1      42.471 -15.813 -38.913  0.00  0.00    -0.061 A 
ATOM     15  C   UNL A   1      43.732 -15.881 -38.323  0.00  0.00    -0.048 A 
ATOM     16  C   UNL A   1      44.760 -16.625 -38.932  0.00  0.00    +0.058 A 
BRANCH  11  17
ATOM     17  N   UNL A   1      45.562 -18.049 -40.783  0.00  0.00    -0.314 N 
ATOM     18  H   UNL A   1      46.448 -17.625 -40.849  0.00  0.00    +0.000 HD
BRANCH  17  24
ATOM     19  C   UNL A   1      46.901 -22.862 -40.592  0.00  0.00    -0.039 C 
ATOM     20  C   UNL A   1      46.171 -21.712 -41.233  0.00  0.00    -0.046 A 
ATOM     21  C   UNL A   1      45.478 -21.938 -42.430  0.00  0.00    -0.058 A 
ATOM     22  C   UNL A   1      44.816 -20.899 -43.076  0.00  0.00    -0.060 A 
ATOM     23  C   UNL A   1      44.831 -19.619 -42.526  0.00  0.00    -0.040 A 
ATOM     24  C   UNL A   1      45.472 -19.366 -41.306  0.00  0.00    +0.035 A 
ATOM     25  C   UNL A   1      46.159 -20.420 -40.654  0.00  0.00    -0.026 A 
ATOM     26  C   UNL A   1      46.916 -20.141 -39.377  0.00  0.00    -0.038 C 
ENDBRANCH  17  24
ENDBRANCH  11  17
ENDBRANCH   7  16
ENDBRANCH   6   9
ENDBRANCH   5   6
ENDBRANCH   1   5
BRANCH   3  27
ATOM     27  C   UNL A   1      43.720 -20.003 -35.143  0.00  0.00    +0.012 C 
BRANCH  27  28
ATOM     28  C   UNL A   1      42.881 -19.495 -36.315  0.00  0.00    -0.037 C 
BRANCH  28  29
ATOM     29  C   UNL A   1      43.586 -19.712 -37.656  0.00  0.00    -0.052 C 
BRANCH  29  30
ATOM     30  C   UNL A   1      43.215 -21.075 -38.250  0.00  0.00    -0.053 C 
BRANCH  30  31
ATOM     31  C   UNL A   1      42.811 -21.006 -39.726  0.00  0.00    -0.052 C 
BRANCH  31  32
ATOM     32  C   UNL A   1      41.614 -21.884 -40.102  0.00  0.00    -0.037 C 
BRANCH  32  33
ATOM     33  C   UNL A   1      41.052 -22.701 -38.939  0.00  0.00    +0.009 C 
BRANCH  33  34
ATOM     34  N   UNL A   1      39.680 -22.295 -38.587  0.00  0.00    -0.343 N 
ATOM     35  H   UNL A   1      38.887 -22.712 -38.994  0.00  0.00    +0.000 HD
BRANCH  34  36
ATOM     36  C   UNL A   1      39.580 -21.259 -37.618  0.00  0.00    +0.041 A 
ATOM     37  C   UNL A   1      39.253 -19.942 -38.013  0.00  0.00    -0.005 A 
ATOM     38  C   UNL A   1      39.085 -18.985 -37.007  0.00  0.00    +0.047 A 
ATOM     39  N   UNL A   1      39.185 -19.267 -35.688  0.00  0.00    -0.251 NA
ATOM     40  C   UNL A   1      39.520 -20.507 -35.313  0.00  0.00    +0.073 A 
ATOM     41  C   UNL A   1      39.659 -20.761 -33.953  0.00  0.00    -0.036 A 
ATOM     42  C   UNL A   1      40.041 -22.013 -33.469  0.00  0.00    -0.060 A 
ATOM     43  C   UNL A   1      40.302 -23.039 -34.362  0.00  0.00    -0.061 A 
ATOM     44  C   UNL A   1      40.161 -22.807 -35.730  0.00  0.00    -0.051 A 
ATOM     45  C   UNL A   1      39.746 -21.549 -36.233  0.00  0.00    +0.021 A 
ATOM     46  C   UNL A   1      38.710 -17.558 -37.317  0.00  0.00    -0.010 C 
ATOM     47  C   UNL A   1      39.039 -17.144 -38.745  0.00  0.00    -0.047 C 
ATOM     48  C   UNL A   1      38.502 -18.185 -39.713  0.00  0.00    -0.049 C 
ATOM     49  C   UNL A   1      39.168 -19.538 -39.468  0.00  0.00    -0.024 C 
ENDBRANCH  34  36
ENDBRANCH  33  34
ENDBRANCH  32  33
ENDBRANCH  31  32
ENDBRANCH  30  31
ENDBRANCH  29  30
ENDBRANCH  28  29
ENDBRANCH  27  28
ENDBRANCH   3  27
TORSDOF 15
ENDMDL
MODEL 3
REMARK VINA RESULT:    -7.221     17.084     21.192
REMARK INTER + INTRA:         -18.628
REMARK INTER:                 -11.834
REMARK INTRA:                  -6.794
REMARK UNBOUND:                -5.076
REMARK  Name = cpd38.pdb
REMARK  17 active torsions:
REMARK  status: ('A' for Active; 'I' for Inactive)
REMARK    1  A    between atoms: C_1  and  C_2
REMARK    2  A    between atoms: C_6  and  N_7
REMARK    3  A    between atoms: N_7  and  C_8
REMARK    4  A    between atoms: C_13  and  C_14
REMARK    5  A    between atoms: N_16  and  C_17
REMARK    6  A    between atoms: C_17  and  C_18
REMARK    7  A    between atoms: C_18  and  C_19
REMARK    8  A    between atoms: N_21  and  C_22
REMARK    9  A    between atoms: C_22  and  C_23
REMARK   10  A    between atoms: C_23  and  C_24
REMARK   11  A    between atoms: C_24  and  C_25
REMARK   12  A    between atoms: C_25  and  C_26
REMARK   13  A    between atoms: C_26  and  C_27
REMARK   14  A    between atoms: C_27  and  C_28
REMARK   15  A    between atoms: C_28  and  N_29
REMARK   16  A    between atoms: N_29  and  C_30
REMARK   17  A    between atoms: C_44  and  C_45
REMARK                            x       y       z     vdW  Elec       q    Type
REMARK                         _______ _______ _______ _____ _____    ______ ____
ROOT
ATOM      1  C   UNL A   1      45.087 -18.561 -34.447  0.00  0.00    +0.215 C 
ATOM      2  O   UNL A   1      45.382 -19.539 -33.767  0.00  0.00    -0.276 OA
ATOM      3  N   UNL A   1      45.716 -18.236 -35.627  0.00  0.00    -0.315 N 
ATOM      4  H   UNL A   1      45.390 -17.471 -36.153  0.00  0.00    +0.000 HD
ENDROOT
BRANCH   1   5
ATOM      5  C   UNL A   1      43.965 -17.634 -34.054  0.00  0.00    +0.039 C 
BRANCH   5   6
ATOM      6  C   UNL A   1      43.346 -18.093 -32.748  0.00  0.00    +0.020 C 
BRANCH   6   9
ATOM      7  C   UNL A   1      41.363 -19.526 -32.488  0.00  0.00    +0.246 C 
ATOM      8  O   UNL A   1      40.753 -18.684 -31.837  0.00  0.00    -0.270 OA
ATOM      9  N   UNL A   1      42.673 -19.372 -32.902  0.00  0.00    -0.311 N 
ATOM     10  H   UNL A   1      43.153 -20.133 -33.304  0.00  0.00    +0.000 HD
BRANCH   7  16
ATOM     11  C   UNL A   1      39.598 -20.695 -33.853  0.00  0.00    +0.044 A 
ATOM     12  C   UNL A   1      39.065 -21.901 -34.337  0.00  0.00    -0.040 A 
ATOM     13  C   UNL A   1      39.512 -23.138 -33.863  0.00  0.00    -0.060 A 
ATOM     14  C   UNL A   1      40.523 -23.195 -32.909  0.00  0.00    -0.061 A 
ATOM     15  C   UNL A   1      41.112 -22.016 -32.454  0.00  0.00    -0.048 A 
ATOM     16  C   UNL A   1      40.676 -20.771 -32.944  0.00  0.00    +0.058 A 
BRANCH  11  17
ATOM     17  N   UNL A   1      39.175 -19.448 -34.391  0.00  0.00    -0.314 N 
ATOM     18  H   UNL A   1      38.728 -18.842 -33.756  0.00  0.00    +0.000 HD
BRANCH  17  24
ATOM     19  C   UNL A   1      40.401 -15.738 -37.509  0.00  0.00    -0.039 C 
ATOM     20  C   UNL A   1      39.867 -17.118 -37.233  0.00  0.00    -0.046 A 
ATOM     21  C   UNL A   1      39.398 -17.885 -38.309  0.00  0.00    -0.058 A 
ATOM     22  C   UNL A   1      38.866 -19.153 -38.099  0.00  0.00    -0.060 A 
ATOM     23  C   UNL A   1      38.805 -19.676 -36.810  0.00  0.00    -0.040 A 
ATOM     24  C   UNL A   1      39.310 -18.958 -35.716  0.00  0.00    +0.035 A 
ATOM     25  C   UNL A   1      39.839 -17.660 -35.925  0.00  0.00    -0.026 A 
ATOM     26  C   UNL A   1      40.316 -16.848 -34.745  0.00  0.00    -0.038 C 
ENDBRANCH  17  24
ENDBRANCH  11  17
ENDBRANCH   7  16
ENDBRANCH   6   9
ENDBRANCH   5   6
ENDBRANCH   1   5
BRANCH   3  27
ATOM     27  C   UNL A   1      46.851 -19.000 -36.110  0.00  0.00    +0.012 C 
BRANCH  27  28
ATOM     28  C   UNL A   1      46.814 -19.153 -37.629  0.00  0.00    -0.037 C 
BRANCH  28  29
ATOM     29  C   UNL A   1      46.457 -20.581 -38.049  0.00  0.00    -0.052 C 
BRANCH  29  30
ATOM     30  C   UNL A   1      46.743 -20.795 -39.539  0.00  0.00    -0.053 C 
BRANCH  30  31
ATOM     31  C   UNL A   1      46.091 -22.060 -40.107  0.00  0.00    -0.052 C 
BRANCH  31  32
ATOM     32  C   UNL A   1      45.265 -21.838 -41.377  0.00  0.00    -0.037 C 
BRANCH  32  33
ATOM     33  C   UNL A   1      44.949 -20.370 -41.664  0.00  0.00    +0.009 C 
BRANCH  33  34
ATOM     34  N   UNL A   1      43.599 -19.994 -41.212  0.00  0.00    -0.343 N 
ATOM     35  H   UNL A   1      42.795 -20.171 -41.752  0.00  0.00    +0.000 HD
BRANCH  34  36
ATOM     36  C   UNL A   1      43.536 -19.358 -39.942  0.00  0.00    +0.041 A 
ATOM     37  C   UNL A   1      43.908 -18.002 -39.804  0.00  0.00    -0.005 A 
ATOM     38  C   UNL A   1      43.744 -17.407 -38.548  0.00  0.00    +0.047 A 
ATOM     39  N   UNL A   1      43.219 -18.054 -37.483  0.00  0.00    -0.251 NA
ATOM     40  C   UNL A   1      42.890 -19.345 -37.604  0.00  0.00    +0.073 A 
ATOM     41  C   UNL A   1      42.393 -19.998 -36.483  0.00  0.00    -0.036 A 
ATOM     42  C   UNL A   1      42.057 -21.353 -36.503  0.00  0.00    -0.060 A 
ATOM     43  C   UNL A   1      42.230 -22.081 -37.669  0.00  0.00    -0.061 A 
ATOM     44  C   UNL A   1      42.721 -21.443 -38.807  0.00  0.00    -0.051 A 
ATOM     45  C   UNL A   1      43.038 -20.061 -38.808  0.00  0.00    +0.021 A 
ATOM     46  C   UNL A   1      44.085 -15.960 -38.300  0.00  0.00    -0.010 C 
ATOM     47  C   UNL A   1      45.064 -15.387 -39.316  0.00  0.00    -0.047 C 
ATOM     48  C   UNL A   1      44.587 -15.713 -40.721  0.00  0.00    -0.049 C 
ATOM     49  C   UNL A   1      44.544 -17.225 -40.935  0.00  0.00    -0.024 C 
ENDBRANCH  34  36
ENDBRANCH  33  34
ENDBRANCH  32  33
ENDBRANCH  31  32
ENDBRANCH  30  31
ENDBRANCH  29  30
ENDBRANCH  28  29
ENDBRANCH  27  28
ENDBRANCH   3  27
TORSDOF 15
ENDMDL
MODEL 4
REMARK VINA RESULT:    -7.163     19.282     22.982
REMARK INTER + INTRA:         -18.521
REMARK INTER:                 -10.919
REMARK INTRA:                  -7.601
REMARK UNBOUND:                -5.076
REMARK  Name = cpd38.pdb
REMARK  17 active torsions:
REMARK  status: ('A' for Active; 'I' for Inactive)
REMARK    1  A    between atoms: C_1  and  C_2
REMARK    2  A    between atoms: C_6  and  N_7
REMARK    3  A    between atoms: N_7  and  C_8
REMARK    4  A    between atoms: C_13  and  C_14
REMARK    5  A    between atoms: N_16  and  C_17
REMARK    6  A    between atoms: C_17  and  C_18
REMARK    7  A    between atoms: C_18  and  C_19
REMARK    8  A    between atoms: N_21  and  C_22
REMARK    9  A    between atoms: C_22  and  C_23
REMARK   10  A    between atoms: C_23  and  C_24
REMARK   11  A    between atoms: C_24  and  C_25
REMARK   12  A    between atoms: C_25  and  C_26
REMARK   13  A    between atoms: C_26  and  C_27
REMARK   14  A    between atoms: C_27  and  C_28
REMARK   15  A    between atoms: C_28  and  N_29
REMARK   16  A    between atoms: N_29  and  C_30
REMARK   17  A    between atoms: C_44  and  C_45
REMARK                            x       y       z     vdW  Elec       q    Type
REMARK                         _______ _______ _______ _____ _____    ______ ____
ROOT
ATOM      1  C   UNL A   1      44.892 -19.769 -34.598  0.00  0.00    +0.215 C 
ATOM      2  O   UNL A   1      45.343 -20.822 -34.157  0.00  0.00    -0.276 OA
ATOM      3  N   UNL A   1      43.585 -19.607 -34.996  0.00  0.00    -0.315 N 
ATOM      4  H   UNL A   1      43.275 -18.718 -35.285  0.00  0.00    +0.000 HD
ENDROOT
BRANCH   1   5
ATOM      5  C   UNL A   1      45.744 -18.531 -34.712  0.00  0.00    +0.039 C 
BRANCH   5   6
ATOM      6  C   UNL A   1      46.932 -18.800 -35.617  0.00  0.00    +0.020 C 
BRANCH   6   9
ATOM      7  C   UNL A   1      46.982 -19.087 -38.061  0.00  0.00    +0.246 C 
ATOM      8  O   UNL A   1      47.593 -18.039 -38.241  0.00  0.00    -0.270 OA
ATOM      9  N   UNL A   1      46.529 -19.505 -36.823  0.00  0.00    -0.311 N 
ATOM     10  H   UNL A   1      45.930 -20.284 -36.758  0.00  0.00    +0.000 HD
BRANCH   7  16
ATOM     11  C   UNL A   1      46.584 -19.536 -40.507  0.00  0.00    +0.044 A 
ATOM     12  C   UNL A   1      46.485 -20.472 -41.550  0.00  0.00    -0.040 A 
ATOM     13  C   UNL A   1      46.448 -21.846 -41.294  0.00  0.00    -0.060 A 
ATOM     14  C   UNL A   1      46.535 -22.316 -39.988  0.00  0.00    -0.061 A 
ATOM     15  C   UNL A   1      46.693 -21.413 -38.938  0.00  0.00    -0.048 A 
ATOM     16  C   UNL A   1      46.750 -20.031 -39.194  0.00  0.00    +0.058 A 
BRANCH  11  17
ATOM     17  N   UNL A   1      46.682 -18.145 -40.787  0.00  0.00    -0.314 N 
ATOM     18  H   UNL A   1      47.594 -17.774 -40.779  0.00  0.00    +0.000 HD
BRANCH  17  24
ATOM     19  C   UNL A   1      44.874 -13.490 -40.557  0.00  0.00    -0.039 C 
ATOM     20  C   UNL A   1      44.749 -14.946 -40.916  0.00  0.00    -0.046 A 
ATOM     21  C   UNL A   1      43.536 -15.405 -41.450  0.00  0.00    -0.058 A 
ATOM     22  C   UNL A   1      43.362 -16.749 -41.768  0.00  0.00    -0.060 A 
ATOM     23  C   UNL A   1      44.403 -17.650 -41.563  0.00  0.00    -0.040 A 
ATOM     24  C   UNL A   1      45.646 -17.220 -41.076  0.00  0.00    +0.035 A 
ATOM     25  C   UNL A   1      45.821 -15.854 -40.739  0.00  0.00    -0.026 A 
ATOM     26  C   UNL A   1      47.129 -15.393 -40.144  0.00  0.00    -0.038 C 
ENDBRANCH  17  24
ENDBRANCH  11  17
ENDBRANCH   7  16
ENDBRANCH   6   9
ENDBRANCH   5   6
ENDBRANCH   1   5
BRANCH   3  27
ATOM     27  C   UNL A   1      42.656 -20.721 -34.998  0.00  0.00    +0.012 C 
BRANCH  27  28
ATOM     28  C   UNL A   1      41.270 -20.290 -35.475  0.00  0.00    -0.037 C 
BRANCH  28  29
ATOM     29  C   UNL A   1      41.055 -18.783 -35.312  0.00  0.00    -0.052 C 
BRANCH  29  30
ATOM     30  C   UNL A   1      39.583 -18.474 -35.018  0.00  0.00    -0.053 C 
BRANCH  30  31
ATOM     31  C   UNL A   1      38.979 -17.437 -35.970  0.00  0.00    -0.052 C 
BRANCH  31  32
ATOM     32  C   UNL A   1      38.693 -17.955 -37.382  0.00  0.00    -0.037 C 
BRANCH  32  33
ATOM     33  C   UNL A   1      38.961 -16.932 -38.486  0.00  0.00    +0.009 C 
BRANCH  33  34
ATOM     34  N   UNL A   1      39.905 -17.440 -39.497  0.00  0.00    -0.343 N 
ATOM     35  H   UNL A   1      39.696 -17.439 -40.458  0.00  0.00    +0.000 HD
BRANCH  34  36
ATOM     36  C   UNL A   1      41.138 -17.930 -38.987  0.00  0.00    +0.041 A 
ATOM     37  C   UNL A   1      41.467 -19.299 -39.107  0.00  0.00    -0.005 A 
ATOM     38  C   UNL A   1      42.730 -19.706 -38.665  0.00  0.00    +0.047 A 
ATOM     39  N   UNL A   1      43.653 -18.853 -38.166  0.00  0.00    -0.251 NA
ATOM     40  C   UNL A   1      43.336 -17.561 -38.029  0.00  0.00    +0.073 A 
ATOM     41  C   UNL A   1      44.287 -16.712 -37.474  0.00  0.00    -0.036 A 
ATOM     42  C   UNL A   1      44.034 -15.357 -37.257  0.00  0.00    -0.060 A 
ATOM     43  C   UNL A   1      42.796 -14.832 -37.592  0.00  0.00    -0.061 A 
ATOM     44  C   UNL A   1      41.830 -15.665 -38.156  0.00  0.00    -0.051 A 
ATOM     45  C   UNL A   1      42.085 -17.036 -38.408  0.00  0.00    +0.021 A 
ATOM     46  C   UNL A   1      43.189 -21.138 -38.771  0.00  0.00    -0.010 C 
ATOM     47  C   UNL A   1      42.043 -22.133 -38.890  0.00  0.00    -0.047 C 
ATOM     48  C   UNL A   1      41.081 -21.675 -39.973  0.00  0.00    -0.049 C 
ATOM     49  C   UNL A   1      40.472 -20.321 -39.611  0.00  0.00    -0.024 C 
ENDBRANCH  34  36
ENDBRANCH  33  34
ENDBRANCH  32  33
ENDBRANCH  31  32
ENDBRANCH  30  31
ENDBRANCH  29  30
ENDBRANCH  28  29
ENDBRANCH  27  28
ENDBRANCH   3  27
TORSDOF 15
ENDMDL
MODEL 5
REMARK VINA RESULT:    -7.082     18.268     22.599
REMARK INTER + INTRA:         -18.368
REMARK INTER:                 -12.975
REMARK INTRA:                  -5.393
REMARK UNBOUND:                -5.076
REMARK  Name = cpd38.pdb
REMARK  17 active torsions:
REMARK  status: ('A' for Active; 'I' for Inactive)
REMARK    1  A    between atoms: C_1  and  C_2
REMARK    2  A    between atoms: C_6  and  N_7
REMARK    3  A    between atoms: N_7  and  C_8
REMARK    4  A    between atoms: C_13  and  C_14
REMARK    5  A    between atoms: N_16  and  C_17
REMARK    6  A    between atoms: C_17  and  C_18
REMARK    7  A    between atoms: C_18  and  C_19
REMARK    8  A    between atoms: N_21  and  C_22
REMARK    9  A    between atoms: C_22  and  C_23
REMARK   10  A    between atoms: C_23  and  C_24
REMARK   11  A    between atoms: C_24  and  C_25
REMARK   12  A    between atoms: C_25  and  C_26
REMARK   13  A    between atoms: C_26  and  C_27
REMARK   14  A    between atoms: C_27  and  C_28
REMARK   15  A    between atoms: C_28  and  N_29
REMARK   16  A    between atoms: N_29  and  C_30
REMARK   17  A    between atoms: C_44  and  C_45
REMARK                            x       y       z     vdW  Elec       q    Type
REMARK                         _______ _______ _______ _____ _____    ______ ____
ROOT
ATOM      1  C   UNL A   1      46.623 -17.294 -35.724  0.00  0.00    +0.215 C 
ATOM      2  O   UNL A   1      46.018 -16.950 -34.714  0.00  0.00    -0.276 OA
ATOM      3  N   UNL A   1      46.404 -16.746 -36.967  0.00  0.00    -0.315 N 
ATOM      4  H   UNL A   1      46.967 -17.027 -37.725  0.00  0.00    +0.000 HD
ENDROOT
BRANCH   1   5
ATOM      5  C   UNL A   1      47.703 -18.345 -35.680  0.00  0.00    +0.039 C 
BRANCH   5   6
ATOM      6  C   UNL A   1      47.079 -19.728 -35.688  0.00  0.00    +0.020 C 
BRANCH   6   9
ATOM      7  C   UNL A   1      46.366 -20.250 -37.984  0.00  0.00    +0.246 C 
ATOM      8  O   UNL A   1      45.275 -19.710 -37.843  0.00  0.00    -0.270 OA
ATOM      9  N   UNL A   1      47.287 -20.395 -36.962  0.00  0.00    -0.311 N 
ATOM     10  H   UNL A   1      48.086 -20.954 -37.099  0.00  0.00    +0.000 HD
BRANCH   7  16
ATOM     11  C   UNL A   1      46.989 -19.812 -40.385  0.00  0.00    +0.044 A 
ATOM     12  C   UNL A   1      47.511 -20.303 -41.593  0.00  0.00    -0.040 A 
ATOM     13  C   UNL A   1      47.743 -21.668 -41.786  0.00  0.00    -0.060 A 
ATOM     14  C   UNL A   1      47.482 -22.571 -40.761  0.00  0.00    -0.061 A 
ATOM     15  C   UNL A   1      47.020 -22.107 -39.531  0.00  0.00    -0.048 A 
ATOM     16  C   UNL A   1      46.803 -20.731 -39.329  0.00  0.00    +0.058 A 
BRANCH  11  17
ATOM     17  N   UNL A   1      46.817 -18.415 -40.184  0.00  0.00    -0.314 N 
ATOM     18  H   UNL A   1      47.471 -17.988 -39.585  0.00  0.00    +0.000 HD
BRANCH  17  24
ATOM     19  C   UNL A   1      45.288 -13.793 -41.324  0.00  0.00    -0.039 C 
ATOM     20  C   UNL A   1      45.070 -15.280 -41.240  0.00  0.00    -0.046 A 
ATOM     21  C   UNL A   1      43.822 -15.799 -41.612  0.00  0.00    -0.058 A 
ATOM     22  C   UNL A   1      43.563 -17.164 -41.521  0.00  0.00    -0.060 A 
ATOM     23  C   UNL A   1      44.554 -18.029 -41.064  0.00  0.00    -0.040 A 
ATOM     24  C   UNL A   1      45.830 -17.552 -40.729  0.00  0.00    +0.035 A 
ATOM     25  C   UNL A   1      46.091 -16.161 -40.808  0.00  0.00    -0.026 A 
ATOM     26  C   UNL A   1      47.437 -15.628 -40.378  0.00  0.00    -0.038 C 
ENDBRANCH  17  24
ENDBRANCH  11  17
ENDBRANCH   7  16
ENDBRANCH   6   9
ENDBRANCH   5   6
ENDBRANCH   1   5
BRANCH   3  27
ATOM     27  C   UNL A   1      45.360 -15.762 -37.182  0.00  0.00    +0.012 C 
BRANCH  27  28
ATOM     28  C   UNL A   1      44.071 -16.416 -37.675  0.00  0.00    -0.037 C 
BRANCH  28  29
ATOM     29  C   UNL A   1      43.008 -15.377 -38.040  0.00  0.00    -0.052 C 
BRANCH  29  30
ATOM     30  C   UNL A   1      41.736 -16.059 -38.551  0.00  0.00    -0.053 C 
BRANCH  30  31
ATOM     31  C   UNL A   1      40.635 -16.163 -37.491  0.00  0.00    -0.052 C 
BRANCH  31  32
ATOM     32  C   UNL A   1      40.334 -17.589 -37.021  0.00  0.00    -0.037 C 
BRANCH  32  33
ATOM     33  C   UNL A   1      41.136 -18.020 -35.793  0.00  0.00    +0.009 C 
BRANCH  33  34
ATOM     34  N   UNL A   1      42.163 -19.023 -36.125  0.00  0.00    -0.343 N 
ATOM     35  H   UNL A   1      43.120 -18.799 -36.175  0.00  0.00    +0.000 HD
BRANCH  34  36
ATOM     36  C   UNL A   1      41.676 -20.337 -36.367  0.00  0.00    +0.041 A 
ATOM     37  C   UNL A   1      41.183 -21.123 -35.302  0.00  0.00    -0.005 A 
ATOM     38  C   UNL A   1      40.639 -22.373 -35.614  0.00  0.00    +0.047 A 
ATOM     39  N   UNL A   1      40.531 -22.843 -36.878  0.00  0.00    -0.251 NA
ATOM     40  C   UNL A   1      41.020 -22.111 -37.886  0.00  0.00    +0.073 A 
ATOM     41  C   UNL A   1      40.937 -22.634 -39.171  0.00  0.00    -0.036 A 
ATOM     42  C   UNL A   1      41.451 -21.961 -40.280  0.00  0.00    -0.060 A 
ATOM     43  C   UNL A   1      42.076 -20.737 -40.105  0.00  0.00    -0.061 A 
ATOM     44  C   UNL A   1      42.164 -20.191 -38.825  0.00  0.00    -0.051 A 
ATOM     45  C   UNL A   1      41.620 -20.851 -37.695  0.00  0.00    +0.021 A 
ATOM     46  C   UNL A   1      40.062 -23.280 -34.556  0.00  0.00    -0.010 C 
ATOM     47  C   UNL A   1      40.578 -22.978 -33.156  0.00  0.00    -0.047 C 
ATOM     48  C   UNL A   1      40.454 -21.490 -32.878  0.00  0.00    -0.049 C 
ATOM     49  C   UNL A   1      41.308 -20.689 -33.859  0.00  0.00    -0.024 C 
ENDBRANCH  34  36
ENDBRANCH  33  34
ENDBRANCH  32  33
ENDBRANCH  31  32
ENDBRANCH  30  31
ENDBRANCH  29  30
ENDBRANCH  28  29
ENDBRANCH  27  28
ENDBRANCH   3  27
TORSDOF 15
ENDMDL
MODEL 6
REMARK VINA RESULT:    -7.060     18.130     22.526
REMARK INTER + INTRA:         -18.327
REMARK INTER:                 -12.514
REMARK INTRA:                  -5.813
REMARK UNBOUND:                -5.076
REMARK  Name = cpd38.pdb
REMARK  17 active torsions:
REMARK  status: ('A' for Active; 'I' for Inactive)
REMARK    1  A    between atoms: C_1  and  C_2
REMARK    2  A    between atoms: C_6  and  N_7
REMARK    3  A    between atoms: N_7  and  C_8
REMARK    4  A    between atoms: C_13  and  C_14
REMARK    5  A    between atoms: N_16  and  C_17
REMARK    6  A    between atoms: C_17  and  C_18
REMARK    7  A    between atoms: C_18  and  C_19
REMARK    8  A    between atoms: N_21  and  C_22
REMARK    9  A    between atoms: C_22  and  C_23
REMARK   10  A    between atoms: C_23  and  C_24
REMARK   11  A    between atoms: C_24  and  C_25
REMARK   12  A    between atoms: C_25  and  C_26
REMARK   13  A    between atoms: C_26  and  C_27
REMARK   14  A    between atoms: C_27  and  C_28
REMARK   15  A    between atoms: C_28  and  N_29
REMARK   16  A    between atoms: N_29  and  C_30
REMARK   17  A    between atoms: C_44  and  C_45
REMARK                            x       y       z     vdW  Elec       q    Type
REMARK                         _______ _______ _______ _____ _____    ______ ____
ROOT
ATOM      1  C   UNL A   1      42.424 -14.425 -38.495  0.00  0.00    +0.215 C 
ATOM      2  O   UNL A   1      42.907 -14.475 -37.368  0.00  0.00    -0.276 OA
ATOM      3  N   UNL A   1      41.206 -14.973 -38.826  0.00  0.00    -0.315 N 
ATOM      4  H   UNL A   1      40.851 -14.846 -39.735  0.00  0.00    +0.000 HD
ENDROOT
BRANCH   1   5
ATOM      5  C   UNL A   1      43.125 -13.716 -39.625  0.00  0.00    +0.039 C 
BRANCH   5   6
ATOM      6  C   UNL A   1      43.946 -14.707 -40.429  0.00  0.00    +0.020 C 
BRANCH   6   9
ATOM      7  C   UNL A   1      45.820 -16.023 -39.529  0.00  0.00    +0.246 C 
ATOM      8  O   UNL A   1      46.638 -15.500 -40.278  0.00  0.00    -0.270 OA
ATOM      9  N   UNL A   1      44.462 -15.773 -39.586  0.00  0.00    -0.311 N 
ATOM     10  H   UNL A   1      43.840 -16.319 -39.052  0.00  0.00    +0.000 HD
BRANCH   7  16
ATOM     11  C   UNL A   1      46.874 -18.172 -38.746  0.00  0.00    +0.044 A 
ATOM     12  C   UNL A   1      47.384 -18.935 -37.682  0.00  0.00    -0.040 A 
ATOM     13  C   UNL A   1      47.214 -18.538 -36.353  0.00  0.00    -0.060 A 
ATOM     14  C   UNL A   1      46.550 -17.351 -36.059  0.00  0.00    -0.061 A 
ATOM     15  C   UNL A   1      46.085 -16.544 -37.095  0.00  0.00    -0.048 A 
ATOM     16  C   UNL A   1      46.272 -16.933 -38.435  0.00  0.00    +0.058 A 
BRANCH  11  17
ATOM     17  N   UNL A   1      47.109 -18.559 -40.094  0.00  0.00    -0.314 N 
ATOM     18  H   UNL A   1      47.957 -18.245 -40.484  0.00  0.00    +0.000 HD
BRANCH  17  24
ATOM     19  C   UNL A   1      46.248 -22.846 -42.517  0.00  0.00    -0.039 C 
ATOM     20  C   UNL A   1      45.901 -21.423 -42.174  0.00  0.00    -0.046 A 
ATOM     21  C   UNL A   1      44.799 -20.828 -42.807  0.00  0.00    -0.058 A 
ATOM     22  C   UNL A   1      44.458 -19.505 -42.546  0.00  0.00    -0.060 A 
ATOM     23  C   UNL A   1      45.210 -18.760 -41.641  0.00  0.00    -0.040 A 
ATOM     24  C   UNL A   1      46.288 -19.335 -40.954  0.00  0.00    +0.035 A 
ATOM     25  C   UNL A   1      46.646 -20.678 -41.228  0.00  0.00    -0.026 A 
ATOM     26  C   UNL A   1      47.850 -21.285 -40.549  0.00  0.00    -0.038 C 
ENDBRANCH  17  24
ENDBRANCH  11  17
ENDBRANCH   7  16
ENDBRANCH   6   9
ENDBRANCH   5   6
ENDBRANCH   1   5
BRANCH   3  27
ATOM     27  C   UNL A   1      40.437 -15.736 -37.861  0.00  0.00    +0.012 C 
BRANCH  27  28
ATOM     28  C   UNL A   1      40.582 -17.239 -38.095  0.00  0.00    -0.037 C 
BRANCH  28  29
ATOM     29  C   UNL A   1      40.639 -18.017 -36.778  0.00  0.00    -0.052 C 
BRANCH  29  30
ATOM     30  C   UNL A   1      41.298 -17.177 -35.680  0.00  0.00    -0.053 C 
BRANCH  30  31
ATOM     31  C   UNL A   1      42.799 -17.444 -35.529  0.00  0.00    -0.052 C 
BRANCH  31  32
ATOM     32  C   UNL A   1      43.204 -18.083 -34.197  0.00  0.00    -0.037 C 
BRANCH  32  33
ATOM     33  C   UNL A   1      42.297 -19.232 -33.758  0.00  0.00    +0.009 C 
BRANCH  33  34
ATOM     34  N   UNL A   1      42.832 -20.545 -34.154  0.00  0.00    -0.343 N 
ATOM     35  H   UNL A   1      43.641 -20.929 -33.744  0.00  0.00    +0.000 HD
BRANCH  34  36
ATOM     36  C   UNL A   1      42.101 -21.221 -35.169  0.00  0.00    +0.041 A 
ATOM     37  C   UNL A   1      40.905 -21.904 -34.852  0.00  0.00    -0.005 A 
ATOM     38  C   UNL A   1      40.185 -22.477 -35.906  0.00  0.00    +0.047 A 
ATOM     39  N   UNL A   1      40.558 -22.377 -37.202  0.00  0.00    -0.251 NA
ATOM     40  C   UNL A   1      41.702 -21.752 -37.502  0.00  0.00    +0.073 A 
ATOM     41  C   UNL A   1      42.085 -21.700 -38.837  0.00  0.00    -0.036 A 
ATOM     42  C   UNL A   1      43.280 -21.102 -39.242  0.00  0.00    -0.060 A 
ATOM     43  C   UNL A   1      44.123 -20.549 -38.292  0.00  0.00    -0.061 A 
ATOM     44  C   UNL A   1      43.754 -20.585 -36.948  0.00  0.00    -0.051 A 
ATOM     45  C   UNL A   1      42.530 -21.163 -36.526  0.00  0.00    +0.021 A 
ATOM     46  C   UNL A   1      38.885 -23.206 -35.681  0.00  0.00    -0.010 C 
ATOM     47  C   UNL A   1      38.710 -23.702 -34.252  0.00  0.00    -0.047 C 
ATOM     48  C   UNL A   1      39.000 -22.570 -33.281  0.00  0.00    -0.049 C 
ATOM     49  C   UNL A   1      40.446 -22.099 -33.424  0.00  0.00    -0.024 C 
ENDBRANCH  34  36
ENDBRANCH  33  34
ENDBRANCH  32  33
ENDBRANCH  31  32
ENDBRANCH  30  31
ENDBRANCH  29  30
ENDBRANCH  28  29
ENDBRANCH  27  28
ENDBRANCH   3  27
TORSDOF 15
ENDMDL
MODEL 7
REMARK VINA RESULT:    -6.994      2.834      7.822
REMARK INTER + INTRA:         -18.204
REMARK INTER:                 -13.730
REMARK INTRA:                  -4.473
REMARK UNBOUND:                -5.076
REMARK  Name = cpd38.pdb
REMARK  17 active torsions:
REMARK  status: ('A' for Active; 'I' for Inactive)
REMARK    1  A    between atoms: C_1  and  C_2
REMARK    2  A    between atoms: C_6  and  N_7
REMARK    3  A    between atoms: N_7  and  C_8
REMARK    4  A    between atoms: C_13  and  C_14
REMARK    5  A    between atoms: N_16  and  C_17
REMARK    6  A    between atoms: C_17  and  C_18
REMARK    7  A    between atoms: C_18  and  C_19
REMARK    8  A    between atoms: N_21  and  C_22
REMARK    9  A    between atoms: C_22  and  C_23
REMARK   10  A    between atoms: C_23  and  C_24
REMARK   11  A    between atoms: C_24  and  C_25
REMARK   12  A    between atoms: C_25  and  C_26
REMARK   13  A    between atoms: C_26  and  C_27
REMARK   14  A    between atoms: C_27  and  C_28
REMARK   15  A    between atoms: C_28  and  N_29
REMARK   16  A    between atoms: N_29  and  C_30
REMARK   17  A    between atoms: C_44  and  C_45
REMARK                            x       y       z     vdW  Elec       q    Type
REMARK                         _______ _______ _______ _____ _____    ______ ____
ROOT
ATOM      1  C   UNL A   1      31.085 -39.371 -33.216  0.00  0.00    +0.215 C 
ATOM      2  O   UNL A   1      30.343 -40.247 -32.782  0.00  0.00    -0.276 OA
ATOM      3  N   UNL A   1      32.371 -39.606 -33.644  0.00  0.00    -0.315 N 
ATOM      4  H   UNL A   1      32.891 -38.867 -34.036  0.00  0.00    +0.000 HD
ENDROOT
BRANCH   1   5
ATOM      5  C   UNL A   1      30.627 -37.941 -33.348  0.00  0.00    +0.039 C 
BRANCH   5   6
ATOM      6  C   UNL A   1      31.781 -37.068 -33.803  0.00  0.00    +0.020 C 
BRANCH   6   9
ATOM      7  C   UNL A   1      33.411 -35.467 -32.890  0.00  0.00    +0.246 C 
ATOM      8  O   UNL A   1      34.145 -35.548 -33.869  0.00  0.00    -0.270 OA
ATOM      9  N   UNL A   1      32.277 -36.239 -32.717  0.00  0.00    -0.311 N 
ATOM     10  H   UNL A   1      31.803 -36.226 -31.854  0.00  0.00    +0.000 HD
BRANCH   7  16
ATOM     11  C   UNL A   1      34.958 -34.338 -31.253  0.00  0.00    +0.044 A 
ATOM     12  C   UNL A   1      35.180 -33.287 -30.348  0.00  0.00    -0.040 A 
ATOM     13  C   UNL A   1      34.144 -32.437 -29.951  0.00  0.00    -0.060 A 
ATOM     14  C   UNL A   1      32.866 -32.603 -30.472  0.00  0.00    -0.061 A 
ATOM     15  C   UNL A   1      32.628 -33.601 -31.417  0.00  0.00    -0.048 A 
ATOM     16  C   UNL A   1      33.674 -34.446 -31.832  0.00  0.00    +0.058 A 
BRANCH  11  17
ATOM     17  N   UNL A   1      36.035 -35.156 -31.693  0.00  0.00    -0.314 N 
ATOM     18  H   UNL A   1      36.149 -35.218 -32.669  0.00  0.00    +0.000 HD
BRANCH  17  24
ATOM     19  C   UNL A   1      40.735 -36.650 -30.876  0.00  0.00    -0.039 C 
ATOM     20  C   UNL A   1      39.265 -36.659 -30.555  0.00  0.00    -0.046 A 
ATOM     21  C   UNL A   1      38.805 -37.503 -29.533  0.00  0.00    -0.058 A 
ATOM     22  C   UNL A   1      37.450 -37.569 -29.222  0.00  0.00    -0.060 A 
ATOM     23  C   UNL A   1      36.538 -36.786 -29.923  0.00  0.00    -0.040 A 
ATOM     24  C   UNL A   1      36.967 -35.895 -30.918  0.00  0.00    +0.035 A 
ATOM     25  C   UNL A   1      38.344 -35.836 -31.246  0.00  0.00    -0.026 A 
ATOM     26  C   UNL A   1      38.807 -34.936 -32.367  0.00  0.00    -0.038 C 
ENDBRANCH  17  24
ENDBRANCH  11  17
ENDBRANCH   7  16
ENDBRANCH   6   9
ENDBRANCH   5   6
ENDBRANCH   1   5
BRANCH   3  27
ATOM     27  C   UNL A   1      32.975 -40.920 -33.529  0.00  0.00    +0.012 C 
BRANCH  27  28
ATOM     28  C   UNL A   1      34.332 -40.851 -32.831  0.00  0.00    -0.037 C 
BRANCH  28  29
ATOM     29  C   UNL A   1      34.186 -40.640 -31.322  0.00  0.00    -0.052 C 
BRANCH  29  30
ATOM     30  C   UNL A   1      35.513 -40.910 -30.606  0.00  0.00    -0.053 C 
BRANCH  30  31
ATOM     31  C   UNL A   1      35.368 -41.044 -29.087  0.00  0.00    -0.052 C 
BRANCH  31  32
ATOM     32  C   UNL A   1      34.071 -41.716 -28.626  0.00  0.00    -0.037 C 
BRANCH  32  33
ATOM     33  C   UNL A   1      33.516 -41.160 -27.314  0.00  0.00    +0.009 C 
BRANCH  33  34
ATOM     34  N   UNL A   1      34.408 -40.152 -26.716  0.00  0.00    -0.343 N 
ATOM     35  H   UNL A   1      35.388 -40.242 -26.732  0.00  0.00    +0.000 HD
BRANCH  34  36
ATOM     36  C   UNL A   1      33.756 -39.040 -26.116  0.00  0.00    +0.041 A 
ATOM     37  C   UNL A   1      33.499 -39.029 -24.727  0.00  0.00    -0.005 A 
ATOM     38  C   UNL A   1      32.933 -37.872 -24.180  0.00  0.00    +0.047 A 
ATOM     39  N   UNL A   1      32.657 -36.765 -24.906  0.00  0.00    -0.251 NA
ATOM     40  C   UNL A   1      32.877 -36.782 -26.225  0.00  0.00    +0.073 A 
ATOM     41  C   UNL A   1      32.545 -35.647 -26.956  0.00  0.00    -0.036 A 
ATOM     42  C   UNL A   1      32.704 -35.585 -28.341  0.00  0.00    -0.060 A 
ATOM     43  C   UNL A   1      33.197 -36.687 -29.021  0.00  0.00    -0.061 A 
ATOM     44  C   UNL A   1      33.542 -37.833 -28.306  0.00  0.00    -0.051 A 
ATOM     45  C   UNL A   1      33.413 -37.898 -26.896  0.00  0.00    +0.021 A 
ATOM     46  C   UNL A   1      32.642 -37.746 -22.706  0.00  0.00    -0.010 C 
ATOM     47  C   UNL A   1      32.519 -39.088 -21.998  0.00  0.00    -0.047 C 
ATOM     48  C   UNL A   1      33.709 -39.963 -22.355  0.00  0.00    -0.049 C 
ATOM     49  C   UNL A   1      33.737 -40.242 -23.857  0.00  0.00    -0.024 C 
ENDBRANCH  34  36
ENDBRANCH  33  34
ENDBRANCH  32  33
ENDBRANCH  31  32
ENDBRANCH  30  31
ENDBRANCH  29  30
ENDBRANCH  28  29
ENDBRANCH  27  28
ENDBRANCH   3  27
TORSDOF 15
ENDMDL
MODEL 8
REMARK VINA RESULT:    -6.984     17.275     21.596
REMARK INTER + INTRA:         -18.185
REMARK INTER:                 -12.913
REMARK INTRA:                  -5.271
REMARK UNBOUND:                -5.076
REMARK  Name = cpd38.pdb
REMARK  17 active torsions:
REMARK  status: ('A' for Active; 'I' for Inactive)
REMARK    1  A    between atoms: C_1  and  C_2
REMARK    2  A    between atoms: C_6  and  N_7
REMARK    3  A    between atoms: N_7  and  C_8
REMARK    4  A    between atoms: C_13  and  C_14
REMARK    5  A    between atoms: N_16  and  C_17
REMARK    6  A    between atoms: C_17  and  C_18
REMARK    7  A    between atoms: C_18  and  C_19
REMARK    8  A    between atoms: N_21  and  C_22
REMARK    9  A    between atoms: C_22  and  C_23
REMARK   10  A    between atoms: C_23  and  C_24
REMARK   11  A    between atoms: C_24  and  C_25
REMARK   12  A    between atoms: C_25  and  C_26
REMARK   13  A    between atoms: C_26  and  C_27
REMARK   14  A    between atoms: C_27  and  C_28
REMARK   15  A    between atoms: C_28  and  N_29
REMARK   16  A    between atoms: N_29  and  C_30
REMARK   17  A    between atoms: C_44  and  C_45
REMARK                            x       y       z     vdW  Elec       q    Type
REMARK                         _______ _______ _______ _____ _____    ______ ____
ROOT
ATOM      1  C   UNL A   1      45.501 -18.752 -34.058  0.00  0.00    +0.215 C 
ATOM      2  O   UNL A   1      44.458 -19.364 -34.265  0.00  0.00    -0.276 OA
ATOM      3  N   UNL A   1      45.592 -17.662 -33.222  0.00  0.00    -0.315 N 
ATOM      4  H   UNL A   1      46.472 -17.254 -33.055  0.00  0.00    +0.000 HD
ENDROOT
BRANCH   1   5
ATOM      5  C   UNL A   1      46.804 -19.171 -34.690  0.00  0.00    +0.039 C 
BRANCH   5   6
ATOM      6  C   UNL A   1      47.006 -18.431 -35.999  0.00  0.00    +0.020 C 
BRANCH   6   9
ATOM      7  C   UNL A   1      45.692 -17.167 -37.651  0.00  0.00    +0.246 C 
ATOM      8  O   UNL A   1      46.657 -16.505 -38.017  0.00  0.00    -0.270 OA
ATOM      9  N   UNL A   1      45.736 -18.072 -36.606  0.00  0.00    -0.311 N 
ATOM     10  H   UNL A   1      44.901 -18.474 -36.271  0.00  0.00    +0.000 HD
BRANCH   7  16
ATOM     11  C   UNL A   1      44.327 -17.445 -39.750  0.00  0.00    +0.044 A 
ATOM     12  C   UNL A   1      43.062 -17.457 -40.361  0.00  0.00    -0.040 A 
ATOM     13  C   UNL A   1      41.920 -17.027 -39.679  0.00  0.00    -0.060 A 
ATOM     14  C   UNL A   1      42.015 -16.600 -38.359  0.00  0.00    -0.061 A 
ATOM     15  C   UNL A   1      43.247 -16.632 -37.708  0.00  0.00    -0.048 A 
ATOM     16  C   UNL A   1      44.395 -17.082 -38.386  0.00  0.00    +0.058 A 
BRANCH  11  17
ATOM     17  N   UNL A   1      45.468 -17.942 -40.437  0.00  0.00    -0.314 N 
ATOM     18  H   UNL A   1      46.018 -17.265 -40.893  0.00  0.00    +0.000 HD
BRANCH  17  24
ATOM     19  C   UNL A   1      45.291 -22.364 -42.764  0.00  0.00    -0.039 C 
ATOM     20  C   UNL A   1      45.794 -21.457 -41.672  0.00  0.00    -0.046 A 
ATOM     21  C   UNL A   1      46.648 -21.991 -40.696  0.00  0.00    -0.058 A 
ATOM     22  C   UNL A   1      47.113 -21.200 -39.650  0.00  0.00    -0.060 A 
ATOM     23  C   UNL A   1      46.736 -19.861 -39.571  0.00  0.00    -0.040 A 
ATOM     24  C   UNL A   1      45.923 -19.282 -40.556  0.00  0.00    +0.035 A 
ATOM     25  C   UNL A   1      45.437 -20.089 -41.614  0.00  0.00    -0.026 A 
ATOM     26  C   UNL A   1      44.501 -19.494 -42.638  0.00  0.00    -0.038 C 
ENDBRANCH  17  24
ENDBRANCH  11  17
ENDBRANCH   7  16
ENDBRANCH   6   9
ENDBRANCH   5   6
ENDBRANCH   1   5
BRANCH   3  27
ATOM     27  C   UNL A   1      44.416 -17.104 -32.583  0.00  0.00    +0.012 C 
BRANCH  27  28
ATOM     28  C   UNL A   1      44.133 -15.686 -33.076  0.00  0.00    -0.037 C 
BRANCH  28  29
ATOM     29  C   UNL A   1      42.761 -15.579 -33.747  0.00  0.00    -0.052 C 
BRANCH  29  30
ATOM     30  C   UNL A   1      41.943 -16.853 -33.516  0.00  0.00    -0.053 C 
BRANCH  30  31
ATOM     31  C   UNL A   1      41.194 -17.329 -34.764  0.00  0.00    -0.052 C 
BRANCH  31  32
ATOM     32  C   UNL A   1      40.462 -18.665 -34.599  0.00  0.00    -0.037 C 
BRANCH  32  33
ATOM     33  C   UNL A   1      41.062 -19.574 -33.527  0.00  0.00    +0.009 C 
BRANCH  33  34
ATOM     34  N   UNL A   1      41.902 -20.636 -34.106  0.00  0.00    -0.343 N 
ATOM     35  H   UNL A   1      42.821 -20.806 -33.799  0.00  0.00    +0.000 HD
BRANCH  34  36
ATOM     36  C   UNL A   1      41.293 -21.399 -35.140  0.00  0.00    +0.041 A 
ATOM     37  C   UNL A   1      41.793 -21.342 -36.460  0.00  0.00    -0.005 A 
ATOM     38  C   UNL A   1      41.207 -22.179 -37.414  0.00  0.00    +0.047 A 
ATOM     39  N   UNL A   1      40.219 -23.058 -37.127  0.00  0.00    -0.251 NA
ATOM     40  C   UNL A   1      39.727 -23.097 -35.884  0.00  0.00    +0.073 A 
ATOM     41  C   UNL A   1      38.683 -23.977 -35.624  0.00  0.00    -0.036 A 
ATOM     42  C   UNL A   1      38.081 -24.062 -34.368  0.00  0.00    -0.060 A 
ATOM     43  C   UNL A   1      38.522 -23.241 -33.343  0.00  0.00    -0.061 A 
ATOM     44  C   UNL A   1      39.573 -22.355 -33.581  0.00  0.00    -0.051 A 
ATOM     45  C   UNL A   1      40.212 -22.280 -34.844  0.00  0.00    +0.021 A 
ATOM     46  C   UNL A   1      41.682 -22.214 -38.845  0.00  0.00    -0.010 C 
ATOM     47  C   UNL A   1      42.436 -20.958 -39.261  0.00  0.00    -0.047 C 
ATOM     48  C   UNL A   1      43.502 -20.638 -38.228  0.00  0.00    -0.049 C 
ATOM     49  C   UNL A   1      42.863 -20.354 -36.869  0.00  0.00    -0.024 C 
ENDBRANCH  34  36
ENDBRANCH  33  34
ENDBRANCH  32  33
ENDBRANCH  31  32
ENDBRANCH  30  31
ENDBRANCH  29  30
ENDBRANCH  28  29
ENDBRANCH  27  28
ENDBRANCH   3  27
TORSDOF 15
ENDMDL
MODEL 9
REMARK VINA RESULT:    -6.895     17.103     21.147
REMARK INTER + INTRA:         -18.016
REMARK INTER:                 -13.365
REMARK INTRA:                  -4.652
REMARK UNBOUND:                -5.076
REMARK  Name = cpd38.pdb
REMARK  17 active torsions:
REMARK  status: ('A' for Active; 'I' for Inactive)
REMARK    1  A    between atoms: C_1  and  C_2
REMARK    2  A    between atoms: C_6  and  N_7
REMARK    3  A    between atoms: N_7  and  C_8
REMARK    4  A    between atoms: C_13  and  C_14
REMARK    5  A    between atoms: N_16  and  C_17
REMARK    6  A    between atoms: C_17  and  C_18
REMARK    7  A    between atoms: C_18  and  C_19
REMARK    8  A    between atoms: N_21  and  C_22
REMARK    9  A    between atoms: C_22  and  C_23
REMARK   10  A    between atoms: C_23  and  C_24
REMARK   11  A    between atoms: C_24  and  C_25
REMARK   12  A    between atoms: C_25  and  C_26
REMARK   13  A    between atoms: C_26  and  C_27
REMARK   14  A    between atoms: C_27  and  C_28
REMARK   15  A    between atoms: C_28  and  N_29
REMARK   16  A    between atoms: N_29  and  C_30
REMARK   17  A    between atoms: C_44  and  C_45
REMARK                            x       y       z     vdW  Elec       q    Type
REMARK                         _______ _______ _______ _____ _____    ______ ____
ROOT
ATOM      1  C   UNL A   1      41.887 -19.035 -33.235  0.00  0.00    +0.215 C 
ATOM      2  O   UNL A   1      40.867 -18.364 -33.355  0.00  0.00    -0.276 OA
ATOM      3  N   UNL A   1      43.122 -18.500 -32.948  0.00  0.00    -0.315 N 
ATOM      4  H   UNL A   1      43.888 -19.101 -32.807  0.00  0.00    +0.000 HD
ENDROOT
BRANCH   1   5
ATOM      5  C   UNL A   1      41.866 -20.537 -33.363  0.00  0.00    +0.039 C 
BRANCH   5   6
ATOM      6  C   UNL A   1      42.265 -20.942 -34.770  0.00  0.00    +0.020 C 
BRANCH   6   9
ATOM      7  C   UNL A   1      41.693 -20.319 -37.081  0.00  0.00    +0.246 C 
ATOM      8  O   UNL A   1      42.095 -21.382 -37.541  0.00  0.00    -0.270 OA
ATOM      9  N   UNL A   1      41.817 -19.966 -35.749  0.00  0.00    -0.311 N 
ATOM     10  H   UNL A   1      41.599 -19.050 -35.463  0.00  0.00    +0.000 HD
BRANCH   7  16
ATOM     11  C   UNL A   1      39.577 -19.501 -38.174  0.00  0.00    +0.044 A 
ATOM     12  C   UNL A   1      38.919 -18.496 -38.902  0.00  0.00    -0.040 A 
ATOM     13  C   UNL A   1      39.622 -17.431 -39.473  0.00  0.00    -0.060 A 
ATOM     14  C   UNL A   1      40.999 -17.335 -39.307  0.00  0.00    -0.061 A 
ATOM     15  C   UNL A   1      41.671 -18.286 -38.540  0.00  0.00    -0.048 A 
ATOM     16  C   UNL A   1      40.963 -19.348 -37.948  0.00  0.00    +0.058 A 
BRANCH  11  17
ATOM     17  N   UNL A   1      38.840 -20.544 -37.548  0.00  0.00    -0.314 N 
ATOM     18  H   UNL A   1      38.485 -21.235 -38.153  0.00  0.00    +0.000 HD
BRANCH  17  24
ATOM     19  C   UNL A   1      38.488 -23.559 -33.576  0.00  0.00    -0.039 C 
ATOM     20  C   UNL A   1      38.331 -22.219 -34.243  0.00  0.00    -0.046 A 
ATOM     21  C   UNL A   1      37.782 -21.161 -33.505  0.00  0.00    -0.058 A 
ATOM     22  C   UNL A   1      37.588 -19.912 -34.088  0.00  0.00    -0.060 A 
ATOM     23  C   UNL A   1      37.950 -19.704 -35.417  0.00  0.00    -0.040 A 
ATOM     24  C   UNL A   1      38.546 -20.724 -36.171  0.00  0.00    +0.035 A 
ATOM     25  C   UNL A   1      38.732 -22.000 -35.583  0.00  0.00    -0.026 A 
ATOM     26  C   UNL A   1      39.304 -23.127 -36.409  0.00  0.00    -0.038 C 
ENDBRANCH  17  24
ENDBRANCH  11  17
ENDBRANCH   7  16
ENDBRANCH   6   9
ENDBRANCH   5   6
ENDBRANCH   1   5
BRANCH   3  27
ATOM     27  C   UNL A   1      43.315 -17.065 -32.849  0.00  0.00    +0.012 C 
BRANCH  27  28
ATOM     28  C   UNL A   1      44.469 -16.596 -33.733  0.00  0.00    -0.037 C 
BRANCH  28  29
ATOM     29  C   UNL A   1      44.119 -16.683 -35.221  0.00  0.00    -0.052 C 
BRANCH  29  30
ATOM     30  C   UNL A   1      45.389 -16.742 -36.074  0.00  0.00    -0.053 C 
BRANCH  30  31
ATOM     31  C   UNL A   1      46.122 -18.084 -35.983  0.00  0.00    -0.052 C 
BRANCH  31  32
ATOM     32  C   UNL A   1      45.361 -19.269 -36.585  0.00  0.00    -0.037 C 
BRANCH  32  33
ATOM     33  C   UNL A   1      46.239 -20.227 -37.390  0.00  0.00    +0.009 C 
BRANCH  33  34
ATOM     34  N   UNL A   1      46.918 -19.551 -38.509  0.00  0.00    -0.343 N 
ATOM     35  H   UNL A   1      47.767 -19.067 -38.394  0.00  0.00    +0.000 HD
BRANCH  34  36
ATOM     36  C   UNL A   1      46.261 -19.645 -39.766  0.00  0.00    +0.041 A 
ATOM     37  C   UNL A   1      46.340 -20.835 -40.525  0.00  0.00    -0.005 A 
ATOM     38  C   UNL A   1      45.603 -20.899 -41.712  0.00  0.00    +0.047 A 
ATOM     39  N   UNL A   1      44.801 -19.899 -42.144  0.00  0.00    -0.251 NA
ATOM     40  C   UNL A   1      44.745 -18.763 -41.441  0.00  0.00    +0.073 A 
ATOM     41  C   UNL A   1      43.947 -17.734 -41.928  0.00  0.00    -0.036 A 
ATOM     42  C   UNL A   1      43.853 -16.500 -41.284  0.00  0.00    -0.060 A 
ATOM     43  C   UNL A   1      44.583 -16.277 -40.127  0.00  0.00    -0.061 A 
ATOM     44  C   UNL A   1      45.384 -17.298 -39.617  0.00  0.00    -0.051 A 
ATOM     45  C   UNL A   1      45.465 -18.566 -40.246  0.00  0.00    +0.021 A 
ATOM     46  C   UNL A   1      45.597 -22.130 -42.582  0.00  0.00    -0.010 C 
ATOM     47  C   UNL A   1      46.801 -23.034 -42.358  0.00  0.00    -0.047 C 
ATOM     48  C   UNL A   1      46.977 -23.288 -40.870  0.00  0.00    -0.049 C 
ATOM     49  C   UNL A   1      47.249 -21.978 -40.132  0.00  0.00    -0.024 C 
ENDBRANCH  34  36
ENDBRANCH  33  34
ENDBRANCH  32  33
ENDBRANCH  31  32
ENDBRANCH  30  31
ENDBRANCH  29  30
ENDBRANCH  28  29
ENDBRANCH  27  28
ENDBRANCH   3  27
TORSDOF 15
ENDMDL
MODEL 10
REMARK VINA RESULT:    -6.772     17.374     21.668
REMARK INTER + INTRA:         -17.787
REMARK INTER:                 -12.334
REMARK INTRA:                  -5.452
REMARK UNBOUND:                -5.076
REMARK  Name = cpd38.pdb
REMARK  17 active torsions:
REMARK  status: ('A' for Active; 'I' for Inactive)
REMARK    1  A    between atoms: C_1  and  C_2
REMARK    2  A    between atoms: C_6  and  N_7
REMARK    3  A    between atoms: N_7  and  C_8
REMARK    4  A    between atoms: C_13  and  C_14
REMARK    5  A    between atoms: N_16  and  C_17
REMARK    6  A    between atoms: C_17  and  C_18
REMARK    7  A    between atoms: C_18  and  C_19
REMARK    8  A    between atoms: N_21  and  C_22
REMARK    9  A    between atoms: C_22  and  C_23
REMARK   10  A    between atoms: C_23  and  C_24
REMARK   11  A    between atoms: C_24  and  C_25
REMARK   12  A    between atoms: C_25  and  C_26
REMARK   13  A    between atoms: C_26  and  C_27
REMARK   14  A    between atoms: C_27  and  C_28
REMARK   15  A    between atoms: C_28  and  N_29
REMARK   16  A    between atoms: N_29  and  C_30
REMARK   17  A    between atoms: C_44  and  C_45
REMARK                            x       y       z     vdW  Elec       q    Type
REMARK                         _______ _______ _______ _____ _____    ______ ____
ROOT
ATOM      1  C   UNL A   1      40.381 -16.868 -38.928  0.00  0.00    +0.215 C 
ATOM      2  O   UNL A   1      39.419 -16.557 -39.623  0.00  0.00    -0.276 OA
ATOM      3  N   UNL A   1      40.269 -17.363 -37.649  0.00  0.00    -0.315 N 
ATOM      4  H   UNL A   1      41.080 -17.648 -37.169  0.00  0.00    +0.000 HD
ENDROOT
BRANCH   1   5
ATOM      5  C   UNL A   1      41.795 -16.764 -39.442  0.00  0.00    +0.039 C 
BRANCH   5   6
ATOM      6  C   UNL A   1      42.653 -16.007 -38.445  0.00  0.00    +0.020 C 
BRANCH   6   9
ATOM      7  C   UNL A   1      44.983 -16.528 -37.852  0.00  0.00    +0.246 C 
ATOM      8  O   UNL A   1      45.432 -15.588 -38.500  0.00  0.00    -0.270 OA
ATOM      9  N   UNL A   1      43.645 -16.875 -37.834  0.00  0.00    -0.311 N 
ATOM     10  H   UNL A   1      43.363 -17.716 -37.405  0.00  0.00    +0.000 HD
BRANCH   7  16
ATOM     11  C   UNL A   1      46.788 -18.253 -37.520  0.00  0.00    +0.044 A 
ATOM     12  C   UNL A   1      47.684 -18.893 -36.648  0.00  0.00    -0.040 A 
ATOM     13  C   UNL A   1      47.616 -18.703 -35.264  0.00  0.00    -0.060 A 
ATOM     14  C   UNL A   1      46.663 -17.845 -34.724  0.00  0.00    -0.061 A 
ATOM     15  C   UNL A   1      45.798 -17.152 -35.569  0.00  0.00    -0.048 A 
ATOM     16  C   UNL A   1      45.877 -17.327 -36.963  0.00  0.00    +0.058 A 
BRANCH  11  17
ATOM     17  N   UNL A   1      46.910 -18.409 -38.928  0.00  0.00    -0.314 N 
ATOM     18  H   UNL A   1      47.324 -17.654 -39.405  0.00  0.00    +0.000 HD
BRANCH  17  24
ATOM     19  C   UNL A   1      44.407 -20.159 -42.886  0.00  0.00    -0.039 C 
ATOM     20  C   UNL A   1      45.248 -20.358 -41.654  0.00  0.00    -0.046 A 
ATOM     21  C   UNL A   1      45.553 -21.666 -41.251  0.00  0.00    -0.058 A 
ATOM     22  C   UNL A   1      46.300 -21.901 -40.101  0.00  0.00    -0.060 A 
ATOM     23  C   UNL A   1      46.760 -20.827 -39.342  0.00  0.00    -0.040 A 
ATOM     24  C   UNL A   1      46.516 -19.505 -39.740  0.00  0.00    +0.035 A 
ATOM     25  C   UNL A   1      45.744 -19.264 -40.903  0.00  0.00    -0.026 A 
ATOM     26  C   UNL A   1      45.412 -17.846 -41.299  0.00  0.00    -0.038 C 
ENDBRANCH  17  24
ENDBRANCH  11  17
ENDBRANCH   7  16
ENDBRANCH   6   9
ENDBRANCH   5   6
ENDBRANCH   1   5
BRANCH   3  27
ATOM     27  C   UNL A   1      38.979 -17.470 -36.995  0.00  0.00    +0.012 C 
BRANCH  27  28
ATOM     28  C   UNL A   1      38.653 -18.920 -36.639  0.00  0.00    -0.037 C 
BRANCH  28  29
ATOM     29  C   UNL A   1      38.452 -19.106 -35.133  0.00  0.00    -0.052 C 
BRANCH  29  30
ATOM     30  C   UNL A   1      37.206 -19.950 -34.853  0.00  0.00    -0.053 C 
BRANCH  30  31
ATOM     31  C   UNL A   1      37.502 -21.227 -34.060  0.00  0.00    -0.052 C 
BRANCH  31  32
ATOM     32  C   UNL A   1      38.400 -22.235 -34.784  0.00  0.00    -0.037 C 
BRANCH  32  33
ATOM     33  C   UNL A   1      39.702 -22.549 -34.047  0.00  0.00    +0.009 C 
BRANCH  33  34
ATOM     34  N   UNL A   1      40.817 -22.808 -34.974  0.00  0.00    -0.343 N 
ATOM     35  H   UNL A   1      41.142 -23.717 -35.165  0.00  0.00    +0.000 HD
BRANCH  34  36
ATOM     36  C   UNL A   1      41.391 -21.654 -35.574  0.00  0.00    +0.041 A 
ATOM     37  C   UNL A   1      41.539 -21.578 -36.977  0.00  0.00    -0.005 A 
ATOM     38  C   UNL A   1      42.031 -20.384 -37.515  0.00  0.00    +0.047 A 
ATOM     39  N   UNL A   1      42.333 -19.299 -36.765  0.00  0.00    -0.251 NA
ATOM     40  C   UNL A   1      42.217 -19.377 -35.435  0.00  0.00    +0.073 A 
ATOM     41  C   UNL A   1      42.575 -18.264 -34.683  0.00  0.00    -0.036 A 
ATOM     42  C   UNL A   1      42.523 -18.264 -33.289  0.00  0.00    -0.060 A 
ATOM     43  C   UNL A   1      42.113 -19.406 -32.621  0.00  0.00    -0.061 A 
ATOM     44  C   UNL A   1      41.743 -20.532 -33.356  0.00  0.00    -0.051 A 
ATOM     45  C   UNL A   1      41.764 -20.535 -34.773  0.00  0.00    +0.021 A 
ATOM     46  C   UNL A   1      42.204 -20.189 -39.000  0.00  0.00    -0.010 C 
ATOM     47  C   UNL A   1      42.305 -21.497 -39.773  0.00  0.00    -0.047 C 
ATOM     48  C   UNL A   1      41.170 -22.419 -39.364  0.00  0.00    -0.049 C 
ATOM     49  C   UNL A   1      41.267 -22.761 -37.878  0.00  0.00    -0.024 C 
ENDBRANCH  34  36
ENDBRANCH  33  34
ENDBRANCH  32  33
ENDBRANCH  31  32
ENDBRANCH  30  31
ENDBRANCH  29  30
ENDBRANCH  28  29
ENDBRANCH  27  28
ENDBRANCH   3  27
TORSDOF 15
ENDMDL
MODEL 11
REMARK VINA RESULT:    -6.674     17.534     21.993
REMARK INTER + INTRA:         -17.601
REMARK INTER:                 -12.886
REMARK INTRA:                  -4.715
REMARK UNBOUND:                -5.076
REMARK  Name = cpd38.pdb
REMARK  17 active torsions:
REMARK  status: ('A' for Active; 'I' for Inactive)
REMARK    1  A    between atoms: C_1  and  C_2
REMARK    2  A    between atoms: C_6  and  N_7
REMARK    3  A    between atoms: N_7  and  C_8
REMARK    4  A    between atoms: C_13  and  C_14
REMARK    5  A    between atoms: N_16  and  C_17
REMARK    6  A    between atoms: C_17  and  C_18
REMARK    7  A    between atoms: C_18  and  C_19
REMARK    8  A    between atoms: N_21  and  C_22
REMARK    9  A    between atoms: C_22  and  C_23
REMARK   10  A    between atoms: C_23  and  C_24
REMARK   11  A    between atoms: C_24  and  C_25
REMARK   12  A    between atoms: C_25  and  C_26
REMARK   13  A    between atoms: C_26  and  C_27
REMARK   14  A    between atoms: C_27  and  C_28
REMARK   15  A    between atoms: C_28  and  N_29
REMARK   16  A    between atoms: N_29  and  C_30
REMARK   17  A    between atoms: C_44  and  C_45
REMARK                            x       y       z     vdW  Elec       q    Type
REMARK                         _______ _______ _______ _____ _____    ______ ____
ROOT
ATOM      1  C   UNL A   1      39.732 -17.339 -39.154  0.00  0.00    +0.215 C 
ATOM      2  O   UNL A   1      38.709 -16.686 -39.334  0.00  0.00    -0.276 OA
ATOM      3  N   UNL A   1      39.769 -18.520 -38.448  0.00  0.00    -0.315 N 
ATOM      4  H   UNL A   1      40.613 -19.023 -38.391  0.00  0.00    +0.000 HD
ENDROOT
BRANCH   1   5
ATOM      5  C   UNL A   1      41.057 -16.909 -39.730  0.00  0.00    +0.039 C 
BRANCH   5   6
ATOM      6  C   UNL A   1      41.667 -15.819 -38.870  0.00  0.00    +0.020 C 
BRANCH   6   9
ATOM      7  C   UNL A   1      44.108 -16.129 -38.845  0.00  0.00    +0.246 C 
ATOM      8  O   UNL A   1      44.068 -16.919 -37.908  0.00  0.00    -0.270 OA
ATOM      9  N   UNL A   1      42.998 -15.462 -39.331  0.00  0.00    -0.311 N 
ATOM     10  H   UNL A   1      43.111 -14.743 -39.994  0.00  0.00    +0.000 HD
BRANCH   7  16
ATOM     11  C   UNL A   1      46.131 -16.985 -40.077  0.00  0.00    +0.044 A 
ATOM     12  C   UNL A   1      47.262 -16.702 -40.860  0.00  0.00    -0.040 A 
ATOM     13  C   UNL A   1      47.701 -15.390 -41.059  0.00  0.00    -0.060 A 
ATOM     14  C   UNL A   1      46.999 -14.327 -40.500  0.00  0.00    -0.061 A 
ATOM     15  C   UNL A   1      45.839 -14.574 -39.767  0.00  0.00    -0.048 A 
ATOM     16  C   UNL A   1      45.386 -15.893 -39.580  0.00  0.00    +0.058 A 
BRANCH  11  17
ATOM     17  N   UNL A   1      45.664 -18.321 -39.934  0.00  0.00    -0.314 N 
ATOM     18  H   UNL A   1      45.544 -18.632 -39.008  0.00  0.00    +0.000 HD
BRANCH  17  24
ATOM     19  C   UNL A   1      46.529 -22.723 -42.141  0.00  0.00    -0.039 C 
ATOM     20  C   UNL A   1      45.811 -21.403 -42.047  0.00  0.00    -0.046 A 
ATOM     21  C   UNL A   1      44.886 -21.069 -43.047  0.00  0.00    -0.058 A 
ATOM     22  C   UNL A   1      44.221 -19.847 -43.021  0.00  0.00    -0.060 A 
ATOM     23  C   UNL A   1      44.466 -18.946 -41.987  0.00  0.00    -0.040 A 
ATOM     24  C   UNL A   1      45.347 -19.266 -40.945  0.00  0.00    +0.035 A 
ATOM     25  C   UNL A   1      46.036 -20.504 -40.977  0.00  0.00    -0.026 A 
ATOM     26  C   UNL A   1      47.043 -20.828 -39.900  0.00  0.00    -0.038 C 
ENDBRANCH  17  24
ENDBRANCH  11  17
ENDBRANCH   7  16
ENDBRANCH   6   9
ENDBRANCH   5   6
ENDBRANCH   1   5
BRANCH   3  27
ATOM     27  C   UNL A   1      38.586 -19.036 -37.786  0.00  0.00    +0.012 C 
BRANCH  27  28
ATOM     28  C   UNL A   1      38.446 -18.471 -36.373  0.00  0.00    -0.037 C 
BRANCH  28  29
ATOM     29  C   UNL A   1      38.159 -19.569 -35.346  0.00  0.00    -0.052 C 
BRANCH  29  30
ATOM     30  C   UNL A   1      38.870 -19.273 -34.022  0.00  0.00    -0.053 C 
BRANCH  30  31
ATOM     31  C   UNL A   1      40.168 -18.478 -34.194  0.00  0.00    -0.052 C 
BRANCH  31  32
ATOM     32  C   UNL A   1      41.427 -19.193 -33.696  0.00  0.00    -0.037 C 
BRANCH  32  33
ATOM     33  C   UNL A   1      42.425 -19.538 -34.802  0.00  0.00    +0.009 C 
BRANCH  33  34
ATOM     34  N   UNL A   1      42.612 -20.991 -34.948  0.00  0.00    -0.343 N 
ATOM     35  H   UNL A   1      43.357 -21.471 -34.521  0.00  0.00    +0.000 HD
BRANCH  34  36
ATOM     36  C   UNL A   1      41.641 -21.653 -35.749  0.00  0.00    +0.041 A 
ATOM     37  C   UNL A   1      40.567 -22.344 -35.143  0.00  0.00    -0.005 A 
ATOM     38  C   UNL A   1      39.597 -22.902 -35.983  0.00  0.00    +0.047 A 
ATOM     39  N   UNL A   1      39.622 -22.782 -37.330  0.00  0.00    -0.251 NA
ATOM     40  C   UNL A   1      40.650 -22.150 -37.906  0.00  0.00    +0.073 A 
ATOM     41  C   UNL A   1      40.674 -22.077 -39.294  0.00  0.00    -0.036 A 
ATOM     42  C   UNL A   1      41.723 -21.471 -39.986  0.00  0.00    -0.060 A 
ATOM     43  C   UNL A   1      42.785 -20.931 -39.279  0.00  0.00    -0.061 A 
ATOM     44  C   UNL A   1      42.777 -20.987 -37.886  0.00  0.00    -0.051 A 
ATOM     45  C   UNL A   1      41.703 -21.574 -37.170  0.00  0.00    +0.021 A 
ATOM     46  C   UNL A   1      38.398 -23.637 -35.439  0.00  0.00    -0.010 C 
ATOM     47  C   UNL A   1      38.600 -24.155 -34.021  0.00  0.00    -0.047 C 
ATOM     48  C   UNL A   1      39.134 -23.037 -33.142  0.00  0.00    -0.049 C 
ATOM     49  C   UNL A   1      40.494 -22.560 -33.648  0.00  0.00    -0.024 C 
ENDBRANCH  34  36
ENDBRANCH  33  34
ENDBRANCH  32  33
ENDBRANCH  31  32
ENDBRANCH  30  31
ENDBRANCH  29  30
ENDBRANCH  28  29
ENDBRANCH  27  28
ENDBRANCH   3  27
TORSDOF 15
ENDMDL
MODEL 12
REMARK VINA RESULT:    -6.659     17.105     21.497
REMARK INTER + INTRA:         -17.574
REMARK INTER:                 -12.218
REMARK INTRA:                  -5.356
REMARK UNBOUND:                -5.076
REMARK  Name = cpd38.pdb
REMARK  17 active torsions:
REMARK  status: ('A' for Active; 'I' for Inactive)
REMARK    1  A    between atoms: C_1  and  C_2
REMARK    2  A    between atoms: C_6  and  N_7
REMARK    3  A    between atoms: N_7  and  C_8
REMARK    4  A    between atoms: C_13  and  C_14
REMARK    5  A    between atoms: N_16  and  C_17
REMARK    6  A    between atoms: C_17  and  C_18
REMARK    7  A    between atoms: C_18  and  C_19
REMARK    8  A    between atoms: N_21  and  C_22
REMARK    9  A    between atoms: C_22  and  C_23
REMARK   10  A    between atoms: C_23  and  C_24
REMARK   11  A    between atoms: C_24  and  C_25
REMARK   12  A    between atoms: C_25  and  C_26
REMARK   13  A    between atoms: C_26  and  C_27
REMARK   14  A    between atoms: C_27  and  C_28
REMARK   15  A    between atoms: C_28  and  N_29
REMARK   16  A    between atoms: N_29  and  C_30
REMARK   17  A    between atoms: C_44  and  C_45
REMARK                            x       y       z     vdW  Elec       q    Type
REMARK                         _______ _______ _______ _____ _____    ______ ____
ROOT
ATOM      1  C   UNL A   1      39.744 -17.123 -39.062  0.00  0.00    +0.215 C 
ATOM      2  O   UNL A   1      38.690 -17.090 -39.689  0.00  0.00    -0.276 OA
ATOM      3  N   UNL A   1      39.815 -17.309 -37.700  0.00  0.00    -0.315 N 
ATOM      4  H   UNL A   1      40.696 -17.383 -37.269  0.00  0.00    +0.000 HD
ENDROOT
BRANCH   1   5
ATOM      5  C   UNL A   1      41.078 -16.992 -39.751  0.00  0.00    +0.039 C 
BRANCH   5   6
ATOM      6  C   UNL A   1      42.060 -16.271 -38.846  0.00  0.00    +0.020 C 
BRANCH   6   9
ATOM      7  C   UNL A   1      44.414 -16.962 -38.667  0.00  0.00    +0.246 C 
ATOM      8  O   UNL A   1      44.793 -16.134 -39.489  0.00  0.00    -0.270 OA
ATOM      9  N   UNL A   1      43.085 -17.174 -38.350  0.00  0.00    -0.311 N 
ATOM     10  H   UNL A   1      42.832 -17.940 -37.786  0.00  0.00    +0.000 HD
BRANCH   7  16
ATOM     11  C   UNL A   1      46.282 -18.648 -38.555  0.00  0.00    +0.044 A 
ATOM     12  C   UNL A   1      47.271 -19.288 -37.789  0.00  0.00    -0.040 A 
ATOM     13  C   UNL A   1      47.327 -19.138 -36.400  0.00  0.00    -0.060 A 
ATOM     14  C   UNL A   1      46.409 -18.321 -35.749  0.00  0.00    -0.061 A 
ATOM     15  C   UNL A   1      45.453 -17.627 -36.489  0.00  0.00    -0.048 A 
ATOM     16  C   UNL A   1      45.406 -17.762 -37.889  0.00  0.00    +0.058 A 
BRANCH  11  17
ATOM     17  N   UNL A   1      46.276 -18.763 -39.972  0.00  0.00    -0.314 N 
ATOM     18  H   UNL A   1      46.786 -18.074 -40.456  0.00  0.00    +0.000 HD
BRANCH  17  24
ATOM     19  C   UNL A   1      46.499 -23.014 -42.594  0.00  0.00    -0.039 C 
ATOM     20  C   UNL A   1      45.767 -21.793 -42.105  0.00  0.00    -0.046 A 
ATOM     21  C   UNL A   1      44.458 -21.569 -42.555  0.00  0.00    -0.058 A 
ATOM     22  C   UNL A   1      43.753 -20.437 -42.156  0.00  0.00    -0.060 A 
ATOM     23  C   UNL A   1      44.346 -19.519 -41.293  0.00  0.00    -0.040 A 
ATOM     24  C   UNL A   1      45.635 -19.735 -40.785  0.00  0.00    +0.035 A 
ATOM     25  C   UNL A   1      46.359 -20.879 -41.201  0.00  0.00    -0.026 A 
ATOM     26  C   UNL A   1      47.775 -21.083 -40.718  0.00  0.00    -0.038 C 
ENDBRANCH  17  24
ENDBRANCH  11  17
ENDBRANCH   7  16
ENDBRANCH   6   9
ENDBRANCH   5   6
ENDBRANCH   1   5
BRANCH   3  27
ATOM     27  C   UNL A   1      38.615 -17.396 -36.890  0.00  0.00    +0.012 C 
BRANCH  27  28
ATOM     28  C   UNL A   1      38.275 -18.846 -36.552  0.00  0.00    -0.037 C 
BRANCH  28  29
ATOM     29  C   UNL A   1      38.255 -19.090 -35.041  0.00  0.00    -0.052 C 
BRANCH  29  30
ATOM     30  C   UNL A   1      37.175 -20.111 -34.670  0.00  0.00    -0.053 C 
BRANCH  30  31
ATOM     31  C   UNL A   1      37.715 -21.307 -33.881  0.00  0.00    -0.052 C 
BRANCH  31  32
ATOM     32  C   UNL A   1      38.477 -22.336 -34.722  0.00  0.00    -0.037 C 
BRANCH  32  33
ATOM     33  C   UNL A   1      39.680 -22.952 -34.009  0.00  0.00    +0.009 C 
BRANCH  33  34
ATOM     34  N   UNL A   1      40.884 -22.960 -34.858  0.00  0.00    -0.343 N 
ATOM     35  H   UNL A   1      41.463 -23.752 -34.943  0.00  0.00    +0.000 HD
BRANCH  34  36
ATOM     36  C   UNL A   1      41.152 -21.745 -35.547  0.00  0.00    +0.041 A 
ATOM     37  C   UNL A   1      41.519 -20.584 -34.830  0.00  0.00    -0.005 A 
ATOM     38  C   UNL A   1      41.854 -19.444 -35.566  0.00  0.00    +0.047 A 
ATOM     39  N   UNL A   1      41.877 -19.412 -36.919  0.00  0.00    -0.251 NA
ATOM     40  C   UNL A   1      41.506 -20.502 -37.599  0.00  0.00    +0.073 A 
ATOM     41  C   UNL A   1      41.496 -20.431 -38.987  0.00  0.00    -0.036 A 
ATOM     42  C   UNL A   1      41.089 -21.504 -39.782  0.00  0.00    -0.060 A 
ATOM     43  C   UNL A   1      40.670 -22.679 -39.178  0.00  0.00    -0.061 A 
ATOM     44  C   UNL A   1      40.678 -22.773 -37.787  0.00  0.00    -0.051 A 
ATOM     45  C   UNL A   1      41.117 -21.701 -36.970  0.00  0.00    +0.021 A 
ATOM     46  C   UNL A   1      42.284 -18.161 -34.901  0.00  0.00    -0.010 C 
ATOM     47  C   UNL A   1      41.832 -18.052 -33.451  0.00  0.00    -0.047 C 
ATOM     48  C   UNL A   1      42.195 -19.326 -32.707  0.00  0.00    -0.049 C 
ATOM     49  C   UNL A   1      41.474 -20.527 -33.319  0.00  0.00    -0.024 C 
ENDBRANCH  34  36
ENDBRANCH  33  34
ENDBRANCH  32  33
ENDBRANCH  31  32
ENDBRANCH  30  31
ENDBRANCH  29  30
ENDBRANCH  28  29
ENDBRANCH  27  28
ENDBRANCH   3  27
TORSDOF 15
ENDMDL
MODEL 13
REMARK VINA RESULT:    -6.659     17.051     21.385
REMARK INTER + INTRA:         -17.573
REMARK INTER:                 -12.484
REMARK INTRA:                  -5.089
REMARK UNBOUND:                -5.076
REMARK  Name = cpd38.pdb
REMARK  17 active torsions:
REMARK  status: ('A' for Active; 'I' for Inactive)
REMARK    1  A    between atoms: C_1  and  C_2
REMARK    2  A    between atoms: C_6  and  N_7
REMARK    3  A    between atoms: N_7  and  C_8
REMARK    4  A    between atoms: C_13  and  C_14
REMARK    5  A    between atoms: N_16  and  C_17
REMARK    6  A    between atoms: C_17  and  C_18
REMARK    7  A    between atoms: C_18  and  C_19
REMARK    8  A    between atoms: N_21  and  C_22
REMARK    9  A    between atoms: C_22  and  C_23
REMARK   10  A    between atoms: C_23  and  C_24
REMARK   11  A    between atoms: C_24  and  C_25
REMARK   12  A    between atoms: C_25  and  C_26
REMARK   13  A    between atoms: C_26  and  C_27
REMARK   14  A    between atoms: C_27  and  C_28
REMARK   15  A    between atoms: C_28  and  N_29
REMARK   16  A    between atoms: N_29  and  C_30
REMARK   17  A    between atoms: C_44  and  C_45
REMARK                            x       y       z     vdW  Elec       q    Type
REMARK                         _______ _______ _______ _____ _____    ______ ____
ROOT
ATOM      1  C   UNL A   1      45.157 -18.487 -34.537  0.00  0.00    +0.215 C 
ATOM      2  O   UNL A   1      45.367 -19.504 -33.884  0.00  0.00    -0.276 OA
ATOM      3  N   UNL A   1      45.893 -18.126 -35.642  0.00  0.00    -0.315 N 
ATOM      4  H   UNL A   1      45.632 -17.327 -36.155  0.00  0.00    +0.000 HD
ENDROOT
BRANCH   1   5
ATOM      5  C   UNL A   1      44.030 -17.547 -34.195  0.00  0.00    +0.039 C 
BRANCH   5   6
ATOM      6  C   UNL A   1      43.262 -18.072 -32.996  0.00  0.00    +0.020 C 
BRANCH   6   9
ATOM      7  C   UNL A   1      41.344 -19.587 -32.714  0.00  0.00    +0.246 C 
ATOM      8  O   UNL A   1      40.882 -18.940 -31.780  0.00  0.00    -0.270 OA
ATOM      9  N   UNL A   1      42.553 -19.299 -33.319  0.00  0.00    -0.311 N 
ATOM     10  H   UNL A   1      42.937 -19.929 -33.972  0.00  0.00    +0.000 HD
BRANCH   7  16
ATOM     11  C   UNL A   1      39.378 -20.449 -34.031  0.00  0.00    +0.044 A 
ATOM     12  C   UNL A   1      38.749 -21.529 -34.671  0.00  0.00    -0.040 A 
ATOM     13  C   UNL A   1      39.218 -22.838 -34.521  0.00  0.00    -0.060 A 
ATOM     14  C   UNL A   1      40.345 -23.091 -33.747  0.00  0.00    -0.061 A 
ATOM     15  C   UNL A   1      41.025 -22.031 -33.148  0.00  0.00    -0.048 A 
ATOM     16  C   UNL A   1      40.565 -20.711 -33.312  0.00  0.00    +0.058 A 
BRANCH  11  17
ATOM     17  N   UNL A   1      38.925 -19.117 -34.243  0.00  0.00    -0.314 N 
ATOM     18  H   UNL A   1      39.378 -18.624 -34.964  0.00  0.00    +0.000 HD
BRANCH  17  24
ATOM     19  C   UNL A   1      37.429 -15.000 -31.834  0.00  0.00    -0.039 C 
ATOM     20  C   UNL A   1      37.201 -16.400 -32.336  0.00  0.00    -0.046 A 
ATOM     21  C   UNL A   1      35.993 -17.039 -32.021  0.00  0.00    -0.058 A 
ATOM     22  C   UNL A   1      35.750 -18.345 -32.436  0.00  0.00    -0.060 A 
ATOM     23  C   UNL A   1      36.710 -19.026 -33.181  0.00  0.00    -0.040 A 
ATOM     24  C   UNL A   1      37.908 -18.402 -33.556  0.00  0.00    +0.035 A 
ATOM     25  C   UNL A   1      38.164 -17.078 -33.122  0.00  0.00    -0.026 A 
ATOM     26  C   UNL A   1      39.483 -16.423 -33.457  0.00  0.00    -0.038 C 
ENDBRANCH  17  24
ENDBRANCH  11  17
ENDBRANCH   7  16
ENDBRANCH   6   9
ENDBRANCH   5   6
ENDBRANCH   1   5
BRANCH   3  27
ATOM     27  C   UNL A   1      47.044 -18.900 -36.065  0.00  0.00    +0.012 C 
BRANCH  27  28
ATOM     28  C   UNL A   1      47.057 -19.099 -37.579  0.00  0.00    -0.037 C 
BRANCH  28  29
ATOM     29  C   UNL A   1      46.445 -20.443 -37.982  0.00  0.00    -0.052 C 
BRANCH  29  30
ATOM     30  C   UNL A   1      46.894 -20.842 -39.391  0.00  0.00    -0.053 C 
BRANCH  30  31
ATOM     31  C   UNL A   1      46.209 -22.110 -39.911  0.00  0.00    -0.052 C 
BRANCH  31  32
ATOM     32  C   UNL A   1      45.555 -21.965 -41.288  0.00  0.00    -0.037 C 
BRANCH  32  33
ATOM     33  C   UNL A   1      45.413 -20.518 -41.758  0.00  0.00    +0.009 C 
BRANCH  33  34
ATOM     34  N   UNL A   1      44.043 -20.007 -41.578  0.00  0.00    -0.343 N 
ATOM     35  H   UNL A   1      43.337 -20.145 -42.249  0.00  0.00    +0.000 HD
BRANCH  34  36
ATOM     36  C   UNL A   1      43.811 -19.301 -40.366  0.00  0.00    +0.041 A 
ATOM     37  C   UNL A   1      43.084 -19.905 -39.315  0.00  0.00    -0.005 A 
ATOM     38  C   UNL A   1      42.962 -19.194 -38.117  0.00  0.00    +0.047 A 
ATOM     39  N   UNL A   1      43.531 -17.985 -37.908  0.00  0.00    -0.251 NA
ATOM     40  C   UNL A   1      44.198 -17.401 -38.908  0.00  0.00    +0.073 A 
ATOM     41  C   UNL A   1      44.737 -16.139 -38.682  0.00  0.00    -0.036 A 
ATOM     42  C   UNL A   1      45.418 -15.435 -39.677  0.00  0.00    -0.060 A 
ATOM     43  C   UNL A   1      45.558 -15.997 -40.936  0.00  0.00    -0.061 A 
ATOM     44  C   UNL A   1      45.030 -17.264 -41.182  0.00  0.00    -0.051 A 
ATOM     45  C   UNL A   1      44.363 -18.001 -40.172  0.00  0.00    +0.021 A 
ATOM     46  C   UNL A   1      42.229 -19.758 -36.926  0.00  0.00    -0.010 C 
ATOM     47  C   UNL A   1      41.239 -20.856 -37.290  0.00  0.00    -0.047 C 
ATOM     48  C   UNL A   1      41.920 -21.880 -38.182  0.00  0.00    -0.049 C 
ATOM     49  C   UNL A   1      42.380 -21.232 -39.487  0.00  0.00    -0.024 C 
ENDBRANCH  34  36
ENDBRANCH  33  34
ENDBRANCH  32  33
ENDBRANCH  31  32
ENDBRANCH  30  31
ENDBRANCH  29  30
ENDBRANCH  28  29
ENDBRANCH  27  28
ENDBRANCH   3  27
TORSDOF 15
ENDMDL
MODEL 14
REMARK VINA RESULT:    -6.571     16.834     21.329
REMARK INTER + INTRA:         -17.409
REMARK INTER:                 -12.700
REMARK INTRA:                  -4.709
REMARK UNBOUND:                -5.076
REMARK  Name = cpd38.pdb
REMARK  17 active torsions:
REMARK  status: ('A' for Active; 'I' for Inactive)
REMARK    1  A    between atoms: C_1  and  C_2
REMARK    2  A    between atoms: C_6  and  N_7
REMARK    3  A    between atoms: N_7  and  C_8
REMARK    4  A    between atoms: C_13  and  C_14
REMARK    5  A    between atoms: N_16  and  C_17
REMARK    6  A    between atoms: C_17  and  C_18
REMARK    7  A    between atoms: C_18  and  C_19
REMARK    8  A    between atoms: N_21  and  C_22
REMARK    9  A    between atoms: C_22  and  C_23
REMARK   10  A    between atoms: C_23  and  C_24
REMARK   11  A    between atoms: C_24  and  C_25
REMARK   12  A    between atoms: C_25  and  C_26
REMARK   13  A    between atoms: C_26  and  C_27
REMARK   14  A    between atoms: C_27  and  C_28
REMARK   15  A    between atoms: C_28  and  N_29
REMARK   16  A    between atoms: N_29  and  C_30
REMARK   17  A    between atoms: C_44  and  C_45
REMARK                            x       y       z     vdW  Elec       q    Type
REMARK                         _______ _______ _______ _____ _____    ______ ____
ROOT
ATOM      1  C   UNL A   1      46.046 -16.907 -38.929  0.00  0.00    +0.215 C 
ATOM      2  O   UNL A   1      47.044 -17.015 -39.635  0.00  0.00    -0.276 OA
ATOM      3  N   UNL A   1      46.088 -16.835 -37.556  0.00  0.00    -0.315 N 
ATOM      4  H   UNL A   1      45.254 -16.689 -37.054  0.00  0.00    +0.000 HD
ENDROOT
BRANCH   1   5
ATOM      5  C   UNL A   1      44.664 -16.810 -39.523  0.00  0.00    +0.039 C 
BRANCH   5   6
ATOM      6  C   UNL A   1      43.678 -16.347 -38.467  0.00  0.00    +0.020 C 
BRANCH   6   9
ATOM      7  C   UNL A   1      41.792 -17.921 -38.615  0.00  0.00    +0.246 C 
ATOM      8  O   UNL A   1      41.295 -17.345 -39.576  0.00  0.00    -0.270 OA
ATOM      9  N   UNL A   1      42.907 -17.461 -37.939  0.00  0.00    -0.311 N 
ATOM     10  H   UNL A   1      43.181 -17.890 -37.096  0.00  0.00    +0.000 HD
BRANCH   7  16
ATOM     11  C   UNL A   1      41.655 -20.431 -38.773  0.00  0.00    +0.044 A 
ATOM     12  C   UNL A   1      41.198 -21.640 -38.224  0.00  0.00    -0.040 A 
ATOM     13  C   UNL A   1      40.284 -21.661 -37.166  0.00  0.00    -0.060 A 
ATOM     14  C   UNL A   1      39.828 -20.468 -36.615  0.00  0.00    -0.061 A 
ATOM     15  C   UNL A   1      40.310 -19.253 -37.100  0.00  0.00    -0.048 A 
ATOM     16  C   UNL A   1      41.243 -19.231 -38.153  0.00  0.00    +0.058 A 
BRANCH  11  17
ATOM     17  N   UNL A   1      42.630 -20.428 -39.809  0.00  0.00    -0.314 N 
ATOM     18  H   UNL A   1      42.306 -20.147 -40.695  0.00  0.00    +0.000 HD
BRANCH  17  24
ATOM     19  C   UNL A   1      46.630 -22.624 -41.851  0.00  0.00    -0.039 C 
ATOM     20  C   UNL A   1      45.946 -21.894 -40.727  0.00  0.00    -0.046 A 
ATOM     21  C   UNL A   1      46.666 -21.649 -39.548  0.00  0.00    -0.058 A 
ATOM     22  C   UNL A   1      46.066 -21.006 -38.469  0.00  0.00    -0.060 A 
ATOM     23  C   UNL A   1      44.740 -20.590 -38.559  0.00  0.00    -0.040 A 
ATOM     24  C   UNL A   1      44.005 -20.774 -39.739  0.00  0.00    +0.035 A 
ATOM     25  C   UNL A   1      44.609 -21.441 -40.833  0.00  0.00    -0.026 A 
ATOM     26  C   UNL A   1      43.803 -21.711 -42.081  0.00  0.00    -0.038 C 
ENDBRANCH  17  24
ENDBRANCH  11  17
ENDBRANCH   7  16
ENDBRANCH   6   9
ENDBRANCH   5   6
ENDBRANCH   1   5
BRANCH   3  27
ATOM     27  C   UNL A   1      47.339 -16.969 -36.834  0.00  0.00    +0.012 C 
BRANCH  27  28
ATOM     28  C   UNL A   1      47.490 -18.367 -36.236  0.00  0.00    -0.037 C 
BRANCH  28  29
ATOM     29  C   UNL A   1      47.305 -18.360 -34.717  0.00  0.00    -0.052 C 
BRANCH  29  30
ATOM     30  C   UNL A   1      45.818 -18.336 -34.351  0.00  0.00    -0.053 C 
BRANCH  30  31
ATOM     31  C   UNL A   1      45.041 -19.541 -34.891  0.00  0.00    -0.052 C 
BRANCH  31  32
ATOM     32  C   UNL A   1      43.518 -19.371 -34.891  0.00  0.00    -0.037 C 
BRANCH  32  33
ATOM     33  C   UNL A   1      42.752 -20.638 -34.512  0.00  0.00    +0.009 C 
BRANCH  33  34
ATOM     34  N   UNL A   1      42.236 -20.584 -33.133  0.00  0.00    -0.343 N 
ATOM     35  H   UNL A   1      42.813 -20.728 -32.350  0.00  0.00    +0.000 HD
BRANCH  34  36
ATOM     36  C   UNL A   1      40.846 -20.307 -33.013  0.00  0.00    +0.041 A 
ATOM     37  C   UNL A   1      40.397 -18.984 -32.805  0.00  0.00    -0.005 A 
ATOM     38  C   UNL A   1      39.016 -18.762 -32.781  0.00  0.00    +0.047 A 
ATOM     39  N   UNL A   1      38.103 -19.739 -32.981  0.00  0.00    -0.251 NA
ATOM     40  C   UNL A   1      38.525 -20.996 -33.153  0.00  0.00    +0.073 A 
ATOM     41  C   UNL A   1      37.565 -21.989 -33.314  0.00  0.00    -0.036 A 
ATOM     42  C   UNL A   1      37.908 -23.334 -33.464  0.00  0.00    -0.060 A 
ATOM     43  C   UNL A   1      39.243 -23.704 -33.442  0.00  0.00    -0.061 A 
ATOM     44  C   UNL A   1      40.222 -22.723 -33.289  0.00  0.00    -0.051 A 
ATOM     45  C   UNL A   1      39.888 -21.351 -33.166  0.00  0.00    +0.021 A 
ATOM     46  C   UNL A   1      38.432 -17.385 -32.591  0.00  0.00    -0.010 C 
ATOM     47  C   UNL A   1      39.395 -16.407 -31.931  0.00  0.00    -0.047 C 
ATOM     48  C   UNL A   1      40.736 -16.454 -32.642  0.00  0.00    -0.049 C 
ATOM     49  C   UNL A   1      41.354 -17.846 -32.528  0.00  0.00    -0.024 C 
ENDBRANCH  34  36
ENDBRANCH  33  34
ENDBRANCH  32  33
ENDBRANCH  31  32
ENDBRANCH  30  31
ENDBRANCH  29  30
ENDBRANCH  28  29
ENDBRANCH  27  28
ENDBRANCH   3  27
TORSDOF 15
ENDMDL
MODEL 15
REMARK VINA RESULT:    -6.521     17.720     22.239
REMARK INTER + INTRA:         -17.315
REMARK INTER:                 -11.282
REMARK INTRA:                  -6.033
REMARK UNBOUND:                -5.076
REMARK  Name = cpd38.pdb
REMARK  17 active torsions:
REMARK  status: ('A' for Active; 'I' for Inactive)
REMARK    1  A    between atoms: C_1  and  C_2
REMARK    2  A    between atoms: C_6  and  N_7
REMARK    3  A    between atoms: N_7  and  C_8
REMARK    4  A    between atoms: C_13  and  C_14
REMARK    5  A    between atoms: N_16  and  C_17
REMARK    6  A    between atoms: C_17  and  C_18
REMARK    7  A    between atoms: C_18  and  C_19
REMARK    8  A    between atoms: N_21  and  C_22
REMARK    9  A    between atoms: C_22  and  C_23
REMARK   10  A    between atoms: C_23  and  C_24
REMARK   11  A    between atoms: C_24  and  C_25
REMARK   12  A    between atoms: C_25  and  C_26
REMARK   13  A    between atoms: C_26  and  C_27
REMARK   14  A    between atoms: C_27  and  C_28
REMARK   15  A    between atoms: C_28  and  N_29
REMARK   16  A    between atoms: N_29  and  C_30
REMARK   17  A    between atoms: C_44  and  C_45
REMARK                            x       y       z     vdW  Elec       q    Type
REMARK                         _______ _______ _______ _____ _____    ______ ____
ROOT
ATOM      1  C   UNL A   1      44.886 -18.262 -33.876  0.00  0.00    +0.215 C 
ATOM      2  O   UNL A   1      45.378 -19.350 -33.593  0.00  0.00    -0.276 OA
ATOM      3  N   UNL A   1      43.571 -17.936 -33.639  0.00  0.00    -0.315 N 
ATOM      4  H   UNL A   1      43.256 -17.024 -33.837  0.00  0.00    +0.000 HD
ENDROOT
BRANCH   1   5
ATOM      5  C   UNL A   1      45.709 -17.157 -34.488  0.00  0.00    +0.039 C 
BRANCH   5   6
ATOM      6  C   UNL A   1      46.325 -17.632 -35.791  0.00  0.00    +0.020 C 
BRANCH   6   9
ATOM      7  C   UNL A   1      44.536 -18.212 -37.378  0.00  0.00    +0.246 C 
ATOM      8  O   UNL A   1      44.241 -17.039 -37.582  0.00  0.00    -0.270 OA
ATOM      9  N   UNL A   1      45.479 -18.613 -36.450  0.00  0.00    -0.311 N 
ATOM     10  H   UNL A   1      45.578 -19.569 -36.234  0.00  0.00    +0.000 HD
BRANCH   7  16
ATOM     11  C   UNL A   1      44.205 -19.389 -39.580  0.00  0.00    +0.044 A 
ATOM     12  C   UNL A   1      43.697 -20.496 -40.279  0.00  0.00    -0.040 A 
ATOM     13  C   UNL A   1      42.855 -21.425 -39.660  0.00  0.00    -0.060 A 
ATOM     14  C   UNL A   1      42.525 -21.280 -38.317  0.00  0.00    -0.061 A 
ATOM     15  C   UNL A   1      43.062 -20.224 -37.582  0.00  0.00    -0.048 A 
ATOM     16  C   UNL A   1      43.924 -19.298 -38.198  0.00  0.00    +0.058 A 
BRANCH  11  17
ATOM     17  N   UNL A   1      45.108 -18.487 -40.208  0.00  0.00    -0.314 N 
ATOM     18  H   UNL A   1      46.042 -18.793 -40.267  0.00  0.00    +0.000 HD
BRANCH  17  24
ATOM     19  C   UNL A   1      46.611 -13.812 -41.147  0.00  0.00    -0.039 C 
ATOM     20  C   UNL A   1      45.575 -14.904 -41.172  0.00  0.00    -0.046 A 
ATOM     21  C   UNL A   1      44.295 -14.604 -41.659  0.00  0.00    -0.058 A 
ATOM     22  C   UNL A   1      43.295 -15.571 -41.673  0.00  0.00    -0.060 A 
ATOM     23  C   UNL A   1      43.566 -16.856 -41.208  0.00  0.00    -0.040 A 
ATOM     24  C   UNL A   1      44.847 -17.205 -40.760  0.00  0.00    +0.035 A 
ATOM     25  C   UNL A   1      45.863 -16.218 -40.731  0.00  0.00    -0.026 A 
ATOM     26  C   UNL A   1      47.226 -16.563 -40.181  0.00  0.00    -0.038 C 
ENDBRANCH  17  24
ENDBRANCH  11  17
ENDBRANCH   7  16
ENDBRANCH   6   9
ENDBRANCH   5   6
ENDBRANCH   1   5
BRANCH   3  27
ATOM     27  C   UNL A   1      42.639 -18.910 -33.105  0.00  0.00    +0.012 C 
BRANCH  27  28
ATOM     28  C   UNL A   1      41.905 -19.651 -34.222  0.00  0.00    -0.037 C 
BRANCH  28  29
ATOM     29  C   UNL A   1      41.153 -20.876 -33.696  0.00  0.00    -0.052 C 
BRANCH  29  30
ATOM     30  C   UNL A   1      41.055 -21.957 -34.776  0.00  0.00    -0.053 C 
BRANCH  30  31
ATOM     31  C   UNL A   1      39.763 -22.776 -34.701  0.00  0.00    -0.052 C 
BRANCH  31  32
ATOM     32  C   UNL A   1      39.112 -23.068 -36.056  0.00  0.00    -0.037 C 
BRANCH  32  33
ATOM     33  C   UNL A   1      39.341 -21.977 -37.103  0.00  0.00    +0.009 C 
BRANCH  33  34
ATOM     34  N   UNL A   1      38.263 -20.973 -37.104  0.00  0.00    -0.343 N 
ATOM     35  H   UNL A   1      37.376 -21.153 -37.491  0.00  0.00    +0.000 HD
BRANCH  34  36
ATOM     36  C   UNL A   1      38.592 -19.725 -36.507  0.00  0.00    +0.041 A 
ATOM     37  C   UNL A   1      38.184 -19.436 -35.185  0.00  0.00    -0.005 A 
ATOM     38  C   UNL A   1      38.611 -18.229 -34.622  0.00  0.00    +0.047 A 
ATOM     39  N   UNL A   1      39.416 -17.353 -35.265  0.00  0.00    -0.251 NA
ATOM     40  C   UNL A   1      39.783 -17.612 -36.524  0.00  0.00    +0.073 A 
ATOM     41  C   UNL A   1      40.576 -16.675 -37.178  0.00  0.00    -0.036 A 
ATOM     42  C   UNL A   1      40.978 -16.842 -38.504  0.00  0.00    -0.060 A 
ATOM     43  C   UNL A   1      40.572 -17.966 -39.204  0.00  0.00    -0.061 A 
ATOM     44  C   UNL A   1      39.783 -18.921 -38.565  0.00  0.00    -0.051 A 
ATOM     45  C   UNL A   1      39.392 -18.779 -37.210  0.00  0.00    +0.021 A 
ATOM     46  C   UNL A   1      38.253 -17.836 -33.211  0.00  0.00    -0.010 C 
ATOM     47  C   UNL A   1      37.025 -18.559 -32.676  0.00  0.00    -0.047 C 
ATOM     48  C   UNL A   1      37.166 -20.052 -32.921  0.00  0.00    -0.049 C 
ATOM     49  C   UNL A   1      37.248 -20.343 -34.419  0.00  0.00    -0.024 C 
ENDBRANCH  34  36
ENDBRANCH  33  34
ENDBRANCH  32  33
ENDBRANCH  31  32
ENDBRANCH  30  31
ENDBRANCH  29  30
ENDBRANCH  28  29
ENDBRANCH  27  28
ENDBRANCH   3  27
TORSDOF 15
ENDMDL
MODEL 16
REMARK VINA RESULT:    -6.497     18.161     22.289
REMARK INTER + INTRA:         -17.270
REMARK INTER:                 -10.868
REMARK INTRA:                  -6.401
REMARK UNBOUND:                -5.076
REMARK  Name = cpd38.pdb
REMARK  17 active torsions:
REMARK  status: ('A' for Active; 'I' for Inactive)
REMARK    1  A    between atoms: C_1  and  C_2
REMARK    2  A    between atoms: C_6  and  N_7
REMARK    3  A    between atoms: N_7  and  C_8
REMARK    4  A    between atoms: C_13  and  C_14
REMARK    5  A    between atoms: N_16  and  C_17
REMARK    6  A    between atoms: C_17  and  C_18
REMARK    7  A    between atoms: C_18  and  C_19
REMARK    8  A    between atoms: N_21  and  C_22
REMARK    9  A    between atoms: C_22  and  C_23
REMARK   10  A    between atoms: C_23  and  C_24
REMARK   11  A    between atoms: C_24  and  C_25
REMARK   12  A    between atoms: C_25  and  C_26
REMARK   13  A    between atoms: C_26  and  C_27
REMARK   14  A    between atoms: C_27  and  C_28
REMARK   15  A    between atoms: C_28  and  N_29
REMARK   16  A    between atoms: N_29  and  C_30
REMARK   17  A    between atoms: C_44  and  C_45
REMARK                            x       y       z     vdW  Elec       q    Type
REMARK                         _______ _______ _______ _____ _____    ______ ____
ROOT
ATOM      1  C   UNL A   1      40.059 -19.711 -33.661  0.00  0.00    +0.215 C 
ATOM      2  O   UNL A   1      39.500 -18.631 -33.500  0.00  0.00    -0.276 OA
ATOM      3  N   UNL A   1      39.744 -20.589 -34.673  0.00  0.00    -0.315 N 
ATOM      4  H   UNL A   1      40.272 -21.412 -34.780  0.00  0.00    +0.000 HD
ENDROOT
BRANCH   1   5
ATOM      5  C   UNL A   1      41.185 -20.160 -32.765  0.00  0.00    +0.039 C 
BRANCH   5   6
ATOM      6  C   UNL A   1      41.967 -21.274 -33.435  0.00  0.00    +0.020 C 
BRANCH   6   9
ATOM      7  C   UNL A   1      43.602 -20.060 -34.815  0.00  0.00    +0.246 C 
ATOM      8  O   UNL A   1      42.775 -19.783 -35.677  0.00  0.00    -0.270 OA
ATOM      9  N   UNL A   1      43.331 -20.864 -33.723  0.00  0.00    -0.311 N 
ATOM     10  H   UNL A   1      44.066 -21.160 -33.138  0.00  0.00    +0.000 HD
BRANCH   7  16
ATOM     11  C   UNL A   1      45.275 -18.322 -34.089  0.00  0.00    +0.044 A 
ATOM     12  C   UNL A   1      46.607 -17.874 -34.082  0.00  0.00    -0.040 A 
ATOM     13  C   UNL A   1      47.580 -18.469 -34.890  0.00  0.00    -0.060 A 
ATOM     14  C   UNL A   1      47.247 -19.546 -35.706  0.00  0.00    -0.061 A 
ATOM     15  C   UNL A   1      45.948 -20.050 -35.689  0.00  0.00    -0.048 A 
ATOM     16  C   UNL A   1      44.971 -19.465 -34.863  0.00  0.00    +0.058 A 
BRANCH  11  17
ATOM     17  N   UNL A   1      44.312 -17.746 -33.217  0.00  0.00    -0.314 N 
ATOM     18  H   UNL A   1      44.133 -18.249 -32.390  0.00  0.00    +0.000 HD
BRANCH  17  24
ATOM     19  C   UNL A   1      43.222 -13.120 -31.666  0.00  0.00    -0.039 C 
ATOM     20  C   UNL A   1      43.011 -14.298 -32.579  0.00  0.00    -0.046 A 
ATOM     21  C   UNL A   1      41.987 -14.233 -33.535  0.00  0.00    -0.058 A 
ATOM     22  C   UNL A   1      41.733 -15.309 -34.379  0.00  0.00    -0.060 A 
ATOM     23  C   UNL A   1      42.508 -16.462 -34.285  0.00  0.00    -0.040 A 
ATOM     24  C   UNL A   1      43.572 -16.545 -33.375  0.00  0.00    +0.035 A 
ATOM     25  C   UNL A   1      43.823 -15.455 -32.504  0.00  0.00    -0.026 A 
ATOM     26  C   UNL A   1      44.918 -15.562 -31.470  0.00  0.00    -0.038 C 
ENDBRANCH  17  24
ENDBRANCH  11  17
ENDBRANCH   7  16
ENDBRANCH   6   9
ENDBRANCH   5   6
ENDBRANCH   1   5
BRANCH   3  27
ATOM     27  C   UNL A   1      38.646 -20.323 -35.583  0.00  0.00    +0.012 C 
BRANCH  27  28
ATOM     28  C   UNL A   1      39.110 -20.353 -37.039  0.00  0.00    -0.037 C 
BRANCH  28  29
ATOM     29  C   UNL A   1      38.651 -19.112 -37.808  0.00  0.00    -0.052 C 
BRANCH  29  30
ATOM     30  C   UNL A   1      39.416 -18.978 -39.128  0.00  0.00    -0.053 C 
BRANCH  30  31
ATOM     31  C   UNL A   1      39.666 -17.524 -39.541  0.00  0.00    -0.052 C 
BRANCH  31  32
ATOM     32  C   UNL A   1      40.322 -16.657 -38.462  0.00  0.00    -0.037 C 
BRANCH  32  33
ATOM     33  C   UNL A   1      41.841 -16.546 -38.593  0.00  0.00    +0.009 C 
BRANCH  33  34
ATOM     34  N   UNL A   1      42.545 -17.490 -37.708  0.00  0.00    -0.343 N 
ATOM     35  H   UNL A   1      42.122 -17.877 -36.908  0.00  0.00    +0.000 HD
BRANCH  34  36
ATOM     36  C   UNL A   1      43.878 -17.804 -38.089  0.00  0.00    +0.041 A 
ATOM     37  C   UNL A   1      44.142 -18.929 -38.902  0.00  0.00    -0.005 A 
ATOM     38  C   UNL A   1      45.462 -19.138 -39.315  0.00  0.00    +0.047 A 
ATOM     39  N   UNL A   1      46.479 -18.301 -39.005  0.00  0.00    -0.251 NA
ATOM     40  C   UNL A   1      46.236 -17.249 -38.216  0.00  0.00    +0.073 A 
ATOM     41  C   UNL A   1      47.306 -16.429 -37.876  0.00  0.00    -0.036 A 
ATOM     42  C   UNL A   1      47.157 -15.330 -37.029  0.00  0.00    -0.060 A 
ATOM     43  C   UNL A   1      45.911 -15.044 -36.495  0.00  0.00    -0.061 A 
ATOM     44  C   UNL A   1      44.824 -15.850 -36.828  0.00  0.00    -0.051 A 
ATOM     45  C   UNL A   1      44.956 -16.952 -37.711  0.00  0.00    +0.021 A 
ATOM     46  C   UNL A   1      45.847 -20.293 -40.204  0.00  0.00    -0.010 C 
ATOM     47  C   UNL A   1      44.846 -21.440 -40.171  0.00  0.00    -0.047 C 
ATOM     48  C   UNL A   1      43.443 -20.897 -40.379  0.00  0.00    -0.049 C 
ATOM     49  C   UNL A   1      43.069 -19.935 -39.253  0.00  0.00    -0.024 C 
ENDBRANCH  34  36
ENDBRANCH  33  34
ENDBRANCH  32  33
ENDBRANCH  31  32
ENDBRANCH  30  31
ENDBRANCH  29  30
ENDBRANCH  28  29
ENDBRANCH  27  28
ENDBRANCH   3  27
TORSDOF 15
ENDMDL
MODEL 17
REMARK VINA RESULT:    -6.480     18.541     22.994
REMARK INTER + INTRA:         -17.238
REMARK INTER:                 -12.082
REMARK INTRA:                  -5.156
REMARK UNBOUND:                -5.076
REMARK  Name = cpd38.pdb
REMARK  17 active torsions:
REMARK  status: ('A' for Active; 'I' for Inactive)
REMARK    1  A    between atoms: C_1  and  C_2
REMARK    2  A    between atoms: C_6  and  N_7
REMARK    3  A    between atoms: N_7  and  C_8
REMARK    4  A    between atoms: C_13  and  C_14
REMARK    5  A    between atoms: N_16  and  C_17
REMARK    6  A    between atoms: C_17  and  C_18
REMARK    7  A    between atoms: C_18  and  C_19
REMARK    8  A    between atoms: N_21  and  C_22
REMARK    9  A    between atoms: C_22  and  C_23
REMARK   10  A    between atoms: C_23  and  C_24
REMARK   11  A    between atoms: C_24  and  C_25
REMARK   12  A    between atoms: C_25  and  C_26
REMARK   13  A    between atoms: C_26  and  C_27
REMARK   14  A    between atoms: C_27  and  C_28
REMARK   15  A    between atoms: C_28  and  N_29
REMARK   16  A    between atoms: N_29  and  C_30
REMARK   17  A    between atoms: C_44  and  C_45
REMARK                            x       y       z     vdW  Elec       q    Type
REMARK                         _______ _______ _______ _____ _____    ______ ____
ROOT
ATOM      1  C   UNL A   1      43.443 -14.050 -39.770  0.00  0.00    +0.215 C 
ATOM      2  O   UNL A   1      43.555 -12.851 -39.535  0.00  0.00    -0.276 OA
ATOM      3  N   UNL A   1      42.696 -14.911 -39.000  0.00  0.00    -0.315 N 
ATOM      4  H   UNL A   1      42.601 -15.850 -39.279  0.00  0.00    +0.000 HD
ENDROOT
BRANCH   1   5
ATOM      5  C   UNL A   1      44.102 -14.686 -40.967  0.00  0.00    +0.039 C 
BRANCH   5   6
ATOM      6  C   UNL A   1      43.244 -15.824 -41.487  0.00  0.00    +0.020 C 
BRANCH   6   9
ATOM      7  C   UNL A   1      44.185 -18.007 -40.852  0.00  0.00    +0.246 C 
ATOM      8  O   UNL A   1      43.798 -17.915 -39.692  0.00  0.00    -0.270 OA
ATOM      9  N   UNL A   1      44.046 -16.998 -41.787  0.00  0.00    -0.311 N 
ATOM     10  H   UNL A   1      44.493 -17.076 -42.661  0.00  0.00    +0.000 HD
BRANCH   7  16
ATOM     11  C   UNL A   1      46.155 -19.547 -41.153  0.00  0.00    +0.044 A 
ATOM     12  C   UNL A   1      46.638 -20.809 -41.537  0.00  0.00    -0.040 A 
ATOM     13  C   UNL A   1      45.818 -21.736 -42.187  0.00  0.00    -0.060 A 
ATOM     14  C   UNL A   1      44.486 -21.430 -42.443  0.00  0.00    -0.061 A 
ATOM     15  C   UNL A   1      43.963 -20.209 -42.020  0.00  0.00    -0.048 A 
ATOM     16  C   UNL A   1      44.781 -19.282 -41.350  0.00  0.00    +0.058 A 
BRANCH  11  17
ATOM     17  N   UNL A   1      46.985 -18.640 -40.439  0.00  0.00    -0.314 N 
ATOM     18  H   UNL A   1      47.691 -18.204 -40.969  0.00  0.00    +0.000 HD
BRANCH  17  24
ATOM     19  C   UNL A   1      47.322 -15.129 -36.896  0.00  0.00    -0.039 C 
ATOM     20  C   UNL A   1      47.149 -16.557 -37.337  0.00  0.00    -0.046 A 
ATOM     21  C   UNL A   1      47.042 -17.555 -36.356  0.00  0.00    -0.058 A 
ATOM     22  C   UNL A   1      46.913 -18.893 -36.715  0.00  0.00    -0.060 A 
ATOM     23  C   UNL A   1      46.879 -19.250 -38.061  0.00  0.00    -0.040 A 
ATOM     24  C   UNL A   1      46.935 -18.276 -39.068  0.00  0.00    +0.035 A 
ATOM     25  C   UNL A   1      47.081 -16.914 -38.705  0.00  0.00    -0.026 A 
ATOM     26  C   UNL A   1      47.216 -15.864 -39.781  0.00  0.00    -0.038 C 
ENDBRANCH  17  24
ENDBRANCH  11  17
ENDBRANCH   7  16
ENDBRANCH   6   9
ENDBRANCH   5   6
ENDBRANCH   1   5
BRANCH   3  27
ATOM     27  C   UNL A   1      42.046 -14.460 -37.784  0.00  0.00    +0.012 C 
BRANCH  27  28
ATOM     28  C   UNL A   1      42.789 -14.948 -36.541  0.00  0.00    -0.037 C 
BRANCH  28  29
ATOM     29  C   UNL A   1      43.693 -16.144 -36.850  0.00  0.00    -0.052 C 
BRANCH  29  30
ATOM     30  C   UNL A   1      43.308 -17.351 -35.989  0.00  0.00    -0.053 C 
BRANCH  30  31
ATOM     31  C   UNL A   1      43.019 -16.989 -34.529  0.00  0.00    -0.052 C 
BRANCH  31  32
ATOM     32  C   UNL A   1      43.196 -18.143 -33.538  0.00  0.00    -0.037 C 
BRANCH  32  33
ATOM     33  C   UNL A   1      44.035 -19.301 -34.076  0.00  0.00    +0.009 C 
BRANCH  33  34
ATOM     34  N   UNL A   1      43.344 -20.595 -33.945  0.00  0.00    -0.343 N 
ATOM     35  H   UNL A   1      43.669 -21.307 -33.348  0.00  0.00    +0.000 HD
BRANCH  34  36
ATOM     36  C   UNL A   1      42.176 -20.745 -34.741  0.00  0.00    +0.041 A 
ATOM     37  C   UNL A   1      40.899 -20.766 -34.137  0.00  0.00    -0.005 A 
ATOM     38  C   UNL A   1      39.782 -20.830 -34.977  0.00  0.00    +0.047 A 
ATOM     39  N   UNL A   1      39.868 -20.836 -36.327  0.00  0.00    -0.251 NA
ATOM     40  C   UNL A   1      41.076 -20.842 -36.901  0.00  0.00    +0.073 A 
ATOM     41  C   UNL A   1      41.138 -20.892 -38.289  0.00  0.00    -0.036 A 
ATOM     42  C   UNL A   1      42.352 -20.938 -38.975  0.00  0.00    -0.060 A 
ATOM     43  C   UNL A   1      43.539 -20.945 -38.261  0.00  0.00    -0.061 A 
ATOM     44  C   UNL A   1      43.500 -20.889 -36.869  0.00  0.00    -0.051 A 
ATOM     45  C   UNL A   1      42.274 -20.812 -36.161  0.00  0.00    +0.021 A 
ATOM     46  C   UNL A   1      38.375 -20.831 -34.437  0.00  0.00    -0.010 C 
ATOM     47  C   UNL A   1      38.287 -21.275 -32.983  0.00  0.00    -0.047 C 
ATOM     48  C   UNL A   1      39.303 -20.508 -32.154  0.00  0.00    -0.049 C 
ATOM     49  C   UNL A   1      40.722 -20.808 -32.635  0.00  0.00    -0.024 C 
ENDBRANCH  34  36
ENDBRANCH  33  34
ENDBRANCH  32  33
ENDBRANCH  31  32
ENDBRANCH  30  31
ENDBRANCH  29  30
ENDBRANCH  28  29
ENDBRANCH  27  28
ENDBRANCH   3  27
TORSDOF 15
ENDMDL
MODEL 18
REMARK VINA RESULT:    -6.390     18.834     22.876
REMARK INTER + INTRA:         -17.068
REMARK INTER:                 -10.200
REMARK INTRA:                  -6.869
REMARK UNBOUND:                -5.076
REMARK  Name = cpd38.pdb
REMARK  17 active torsions:
REMARK  status: ('A' for Active; 'I' for Inactive)
REMARK    1  A    between atoms: C_1  and  C_2
REMARK    2  A    between atoms: C_6  and  N_7
REMARK    3  A    between atoms: N_7  and  C_8
REMARK    4  A    between atoms: C_13  and  C_14
REMARK    5  A    between atoms: N_16  and  C_17
REMARK    6  A    between atoms: C_17  and  C_18
REMARK    7  A    between atoms: C_18  and  C_19
REMARK    8  A    between atoms: N_21  and  C_22
REMARK    9  A    between atoms: C_22  and  C_23
REMARK   10  A    between atoms: C_23  and  C_24
REMARK   11  A    between atoms: C_24  and  C_25
REMARK   12  A    between atoms: C_25  and  C_26
REMARK   13  A    between atoms: C_26  and  C_27
REMARK   14  A    between atoms: C_27  and  C_28
REMARK   15  A    between atoms: C_28  and  N_29
REMARK   16  A    between atoms: N_29  and  C_30
REMARK   17  A    between atoms: C_44  and  C_45
REMARK                            x       y       z     vdW  Elec       q    Type
REMARK                         _______ _______ _______ _____ _____    ______ ____
ROOT
ATOM      1  C   UNL A   1      45.481 -14.264 -38.483  0.00  0.00    +0.215 C 
ATOM      2  O   UNL A   1      44.497 -14.543 -37.805  0.00  0.00    -0.276 OA
ATOM      3  N   UNL A   1      45.410 -13.838 -39.790  0.00  0.00    -0.315 N 
ATOM      4  H   UNL A   1      46.236 -13.574 -40.257  0.00  0.00    +0.000 HD
ENDROOT
BRANCH   1   5
ATOM      5  C   UNL A   1      46.877 -14.335 -37.918  0.00  0.00    +0.039 C 
BRANCH   5   6
ATOM      6  C   UNL A   1      47.294 -15.783 -37.748  0.00  0.00    +0.020 C 
BRANCH   6   9
ATOM      7  C   UNL A   1      46.766 -18.010 -38.653  0.00  0.00    +0.246 C 
ATOM      8  O   UNL A   1      47.485 -18.586 -37.845  0.00  0.00    -0.270 OA
ATOM      9  N   UNL A   1      46.674 -16.633 -38.751  0.00  0.00    -0.311 N 
ATOM     10  H   UNL A   1      46.186 -16.227 -39.504  0.00  0.00    +0.000 HD
BRANCH   7  16
ATOM     11  C   UNL A   1      44.907 -19.671 -39.013  0.00  0.00    +0.044 A 
ATOM     12  C   UNL A   1      44.012 -20.290 -39.902  0.00  0.00    -0.040 A 
ATOM     13  C   UNL A   1      44.129 -20.126 -41.285  0.00  0.00    -0.060 A 
ATOM     14  C   UNL A   1      45.130 -19.315 -41.810  0.00  0.00    -0.061 A 
ATOM     15  C   UNL A   1      45.996 -18.641 -40.950  0.00  0.00    -0.048 A 
ATOM     16  C   UNL A   1      45.868 -18.790 -39.556  0.00  0.00    +0.058 A 
BRANCH  11  17
ATOM     17  N   UNL A   1      44.737 -19.799 -37.607  0.00  0.00    -0.314 N 
ATOM     18  H   UNL A   1      44.913 -20.694 -37.238  0.00  0.00    +0.000 HD
BRANCH  17  24
ATOM     19  C   UNL A   1      44.731 -18.097 -32.906  0.00  0.00    -0.039 C 
ATOM     20  C   UNL A   1      44.310 -18.013 -34.349  0.00  0.00    -0.046 A 
ATOM     21  C   UNL A   1      43.429 -16.992 -34.734  0.00  0.00    -0.058 A 
ATOM     22  C   UNL A   1      42.987 -16.892 -36.049  0.00  0.00    -0.060 A 
ATOM     23  C   UNL A   1      43.429 -17.808 -37.001  0.00  0.00    -0.040 A 
ATOM     24  C   UNL A   1      44.348 -18.812 -36.663  0.00  0.00    +0.035 A 
ATOM     25  C   UNL A   1      44.788 -18.924 -35.321  0.00  0.00    -0.026 A 
ATOM     26  C   UNL A   1      45.719 -20.047 -34.931  0.00  0.00    -0.038 C 
ENDBRANCH  17  24
ENDBRANCH  11  17
ENDBRANCH   7  16
ENDBRANCH   6   9
ENDBRANCH   5   6
ENDBRANCH   1   5
BRANCH   3  27
ATOM     27  C   UNL A   1      44.143 -13.771 -40.491  0.00  0.00    +0.012 C 
BRANCH  27  28
ATOM     28  C   UNL A   1      44.088 -14.775 -41.641  0.00  0.00    -0.037 C 
BRANCH  28  29
ATOM     29  C   UNL A   1      43.415 -16.084 -41.223  0.00  0.00    -0.052 C 
BRANCH  29  30
ATOM     30  C   UNL A   1      42.305 -15.821 -40.201  0.00  0.00    -0.053 C 
BRANCH  30  31
ATOM     31  C   UNL A   1      41.526 -17.081 -39.811  0.00  0.00    -0.052 C 
BRANCH  31  32
ATOM     32  C   UNL A   1      40.093 -16.825 -39.336  0.00  0.00    -0.037 C 
BRANCH  32  33
ATOM     33  C   UNL A   1      39.901 -16.979 -37.827  0.00  0.00    +0.009 C 
BRANCH  33  34
ATOM     34  N   UNL A   1      39.152 -18.201 -37.485  0.00  0.00    -0.343 N 
ATOM     35  H   UNL A   1      38.177 -18.268 -37.596  0.00  0.00    +0.000 HD
BRANCH  34  36
ATOM     36  C   UNL A   1      39.936 -19.275 -36.982  0.00  0.00    +0.041 A 
ATOM     37  C   UNL A   1      40.379 -20.301 -37.846  0.00  0.00    -0.005 A 
ATOM     38  C   UNL A   1      41.218 -21.285 -37.312  0.00  0.00    +0.047 A 
ATOM     39  N   UNL A   1      41.647 -21.279 -36.029  0.00  0.00    -0.251 NA
ATOM     40  C   UNL A   1      41.208 -20.323 -35.202  0.00  0.00    +0.073 A 
ATOM     41  C   UNL A   1      41.630 -20.364 -33.878  0.00  0.00    -0.036 A 
ATOM     42  C   UNL A   1      41.197 -19.431 -32.934  0.00  0.00    -0.060 A 
ATOM     43  C   UNL A   1      40.311 -18.436 -33.315  0.00  0.00    -0.061 A 
ATOM     44  C   UNL A   1      39.881 -18.374 -34.640  0.00  0.00    -0.051 A 
ATOM     45  C   UNL A   1      40.337 -19.296 -35.615  0.00  0.00    +0.021 A 
ATOM     46  C   UNL A   1      41.767 -22.408 -38.153  0.00  0.00    -0.010 C 
ATOM     47  C   UNL A   1      40.955 -22.672 -39.414  0.00  0.00    -0.047 C 
ATOM     48  C   UNL A   1      40.716 -21.364 -40.148  0.00  0.00    -0.049 C 
ATOM     49  C   UNL A   1      39.907 -20.402 -39.280  0.00  0.00    -0.024 C 
ENDBRANCH  34  36
ENDBRANCH  33  34
ENDBRANCH  32  33
ENDBRANCH  31  32
ENDBRANCH  30  31
ENDBRANCH  29  30
ENDBRANCH  28  29
ENDBRANCH  27  28
ENDBRANCH   3  27
TORSDOF 15
ENDMDL
MODEL 19
REMARK VINA RESULT:    -6.352     17.018     21.265
REMARK INTER + INTRA:         -16.998
REMARK INTER:                 -12.157
REMARK INTRA:                  -4.841
REMARK UNBOUND:                -5.076
REMARK  Name = cpd38.pdb
REMARK  17 active torsions:
REMARK  status: ('A' for Active; 'I' for Inactive)
REMARK    1  A    between atoms: C_1  and  C_2
REMARK    2  A    between atoms: C_6  and  N_7
REMARK    3  A    between atoms: N_7  and  C_8
REMARK    4  A    between atoms: C_13  and  C_14
REMARK    5  A    between atoms: N_16  and  C_17
REMARK    6  A    between atoms: C_17  and  C_18
REMARK    7  A    between atoms: C_18  and  C_19
REMARK    8  A    between atoms: N_21  and  C_22
REMARK    9  A    between atoms: C_22  and  C_23
REMARK   10  A    between atoms: C_23  and  C_24
REMARK   11  A    between atoms: C_24  and  C_25
REMARK   12  A    between atoms: C_25  and  C_26
REMARK   13  A    between atoms: C_26  and  C_27
REMARK   14  A    between atoms: C_27  and  C_28
REMARK   15  A    between atoms: C_28  and  N_29
REMARK   16  A    between atoms: N_29  and  C_30
REMARK   17  A    between atoms: C_44  and  C_45
REMARK                            x       y       z     vdW  Elec       q    Type
REMARK                         _______ _______ _______ _____ _____    ______ ____
ROOT
ATOM      1  C   UNL A   1      45.086 -18.112 -34.925  0.00  0.00    +0.215 C 
ATOM      2  O   UNL A   1      45.197 -19.218 -34.406  0.00  0.00    -0.276 OA
ATOM      3  N   UNL A   1      45.963 -17.620 -35.865  0.00  0.00    -0.315 N 
ATOM      4  H   UNL A   1      45.781 -16.748 -36.285  0.00  0.00    +0.000 HD
ENDROOT
BRANCH   1   5
ATOM      5  C   UNL A   1      43.938 -17.193 -34.593  0.00  0.00    +0.039 C 
BRANCH   5   6
ATOM      6  C   UNL A   1      43.155 -17.748 -33.418  0.00  0.00    +0.020 C 
BRANCH   6   9
ATOM      7  C   UNL A   1      41.443 -19.459 -32.972  0.00  0.00    +0.246 C 
ATOM      8  O   UNL A   1      41.188 -19.014 -31.858  0.00  0.00    -0.270 OA
ATOM      9  N   UNL A   1      42.453 -18.969 -33.779  0.00  0.00    -0.311 N 
ATOM     10  H   UNL A   1      42.698 -19.450 -34.603  0.00  0.00    +0.000 HD
BRANCH   7  16
ATOM     11  C   UNL A   1      39.352 -20.230 -34.145  0.00  0.00    +0.044 A 
ATOM     12  C   UNL A   1      38.656 -21.266 -34.789  0.00  0.00    -0.040 A 
ATOM     13  C   UNL A   1      39.126 -22.582 -34.770  0.00  0.00    -0.060 A 
ATOM     14  C   UNL A   1      40.321 -22.887 -34.126  0.00  0.00    -0.061 A 
ATOM     15  C   UNL A   1      41.064 -21.869 -33.529  0.00  0.00    -0.048 A 
ATOM     16  C   UNL A   1      40.601 -20.541 -33.563  0.00  0.00    +0.058 A 
BRANCH  11  17
ATOM     17  N   UNL A   1      38.891 -18.887 -34.226  0.00  0.00    -0.314 N 
ATOM     18  H   UNL A   1      39.373 -18.310 -34.862  0.00  0.00    +0.000 HD
BRANCH  17  24
ATOM     19  C   UNL A   1      37.258 -15.163 -31.318  0.00  0.00    -0.039 C 
ATOM     20  C   UNL A   1      37.054 -16.461 -32.051  0.00  0.00    -0.046 A 
ATOM     21  C   UNL A   1      35.817 -17.113 -31.934  0.00  0.00    -0.058 A 
ATOM     22  C   UNL A   1      35.593 -18.331 -32.567  0.00  0.00    -0.060 A 
ATOM     23  C   UNL A   1      36.601 -18.910 -33.335  0.00  0.00    -0.040 A 
ATOM     24  C   UNL A   1      37.832 -18.264 -33.514  0.00  0.00    +0.035 A 
ATOM     25  C   UNL A   1      38.068 -17.031 -32.859  0.00  0.00    -0.026 A 
ATOM     26  C   UNL A   1      39.417 -16.363 -32.984  0.00  0.00    -0.038 C 
ENDBRANCH  17  24
ENDBRANCH  11  17
ENDBRANCH   7  16
ENDBRANCH   6   9
ENDBRANCH   5   6
ENDBRANCH   1   5
BRANCH   3  27
ATOM     27  C   UNL A   1      47.148 -18.362 -36.249  0.00  0.00    +0.012 C 
BRANCH  27  28
ATOM     28  C   UNL A   1      47.138 -18.696 -37.740  0.00  0.00    -0.037 C 
BRANCH  28  29
ATOM     29  C   UNL A   1      46.675 -20.132 -37.999  0.00  0.00    -0.052 C 
BRANCH  29  30
ATOM     30  C   UNL A   1      47.162 -20.621 -39.366  0.00  0.00    -0.053 C 
BRANCH  30  31
ATOM     31  C   UNL A   1      46.712 -22.047 -39.697  0.00  0.00    -0.052 C 
BRANCH  31  32
ATOM     32  C   UNL A   1      45.762 -22.155 -40.894  0.00  0.00    -0.037 C 
BRANCH  32  33
ATOM     33  C   UNL A   1      45.543 -20.836 -41.635  0.00  0.00    +0.009 C 
BRANCH  33  34
ATOM     34  N   UNL A   1      44.144 -20.383 -41.561  0.00  0.00    -0.343 N 
ATOM     35  H   UNL A   1      43.502 -20.533 -42.292  0.00  0.00    +0.000 HD
BRANCH  34  36
ATOM     36  C   UNL A   1      43.783 -19.712 -40.360  0.00  0.00    +0.041 A 
ATOM     37  C   UNL A   1      44.205 -18.384 -40.130  0.00  0.00    -0.005 A 
ATOM     38  C   UNL A   1      43.747 -17.748 -38.970  0.00  0.00    +0.047 A 
ATOM     39  N   UNL A   1      42.902 -18.329 -38.088  0.00  0.00    -0.251 NA
ATOM     40  C   UNL A   1      42.522 -19.595 -38.291  0.00  0.00    +0.073 A 
ATOM     41  C   UNL A   1      41.687 -20.183 -37.348  0.00  0.00    -0.036 A 
ATOM     42  C   UNL A   1      41.268 -21.510 -37.455  0.00  0.00    -0.060 A 
ATOM     43  C   UNL A   1      41.699 -22.277 -38.524  0.00  0.00    -0.061 A 
ATOM     44  C   UNL A   1      42.531 -21.704 -39.485  0.00  0.00    -0.051 A 
ATOM     45  C   UNL A   1      42.940 -20.350 -39.404  0.00  0.00    +0.021 A 
ATOM     46  C   UNL A   1      44.116 -16.323 -38.643  0.00  0.00    -0.010 C 
ATOM     47  C   UNL A   1      45.377 -15.848 -39.352  0.00  0.00    -0.047 C 
ATOM     48  C   UNL A   1      45.282 -16.173 -40.833  0.00  0.00    -0.049 C 
ATOM     49  C   UNL A   1      45.184 -17.683 -41.044  0.00  0.00    -0.024 C 
ENDBRANCH  34  36
ENDBRANCH  33  34
ENDBRANCH  32  33
ENDBRANCH  31  32
ENDBRANCH  30  31
ENDBRANCH  29  30
ENDBRANCH  28  29
ENDBRANCH  27  28
ENDBRANCH   3  27
TORSDOF 15
ENDMDL
MODEL 20
REMARK VINA RESULT:    -6.024     17.290     21.590
REMARK INTER + INTRA:         -16.381
REMARK INTER:                  -9.413
REMARK INTRA:                  -6.968
REMARK UNBOUND:                -5.076
REMARK  Name = cpd38.pdb
REMARK  17 active torsions:
REMARK  status: ('A' for Active; 'I' for Inactive)
REMARK    1  A    between atoms: C_1  and  C_2
REMARK    2  A    between atoms: C_6  and  N_7
REMARK    3  A    between atoms: N_7  and  C_8
REMARK    4  A    between atoms: C_13  and  C_14
REMARK    5  A    between atoms: N_16  and  C_17
REMARK    6  A    between atoms: C_17  and  C_18
REMARK    7  A    between atoms: C_18  and  C_19
REMARK    8  A    between atoms: N_21  and  C_22
REMARK    9  A    between atoms: C_22  and  C_23
REMARK   10  A    between atoms: C_23  and  C_24
REMARK   11  A    between atoms: C_24  and  C_25
REMARK   12  A    between atoms: C_25  and  C_26
REMARK   13  A    between atoms: C_26  and  C_27
REMARK   14  A    between atoms: C_27  and  C_28
REMARK   15  A    between atoms: C_28  and  N_29
REMARK   16  A    between atoms: N_29  and  C_30
REMARK   17  A    between atoms: C_44  and  C_45
REMARK                            x       y       z     vdW  Elec       q    Type
REMARK                         _______ _______ _______ _____ _____    ______ ____
ROOT
ATOM      1  C   UNL A   1      40.944 -14.124 -37.632  0.00  0.00    +0.215 C 
ATOM      2  O   UNL A   1      41.290 -12.972 -37.390  0.00  0.00    -0.276 OA
ATOM      3  N   UNL A   1      41.828 -15.164 -37.811  0.00  0.00    -0.315 N 
ATOM      4  H   UNL A   1      41.480 -16.075 -37.944  0.00  0.00    +0.000 HD
ENDROOT
BRANCH   1   5
ATOM      5  C   UNL A   1      39.490 -14.510 -37.724  0.00  0.00    +0.039 C 
BRANCH   5   6
ATOM      6  C   UNL A   1      39.363 -15.935 -38.231  0.00  0.00    +0.020 C 
BRANCH   6   9
ATOM      7  C   UNL A   1      39.660 -17.484 -36.342  0.00  0.00    +0.246 C 
ATOM      8  O   UNL A   1      40.879 -17.518 -36.471  0.00  0.00    -0.270 OA
ATOM      9  N   UNL A   1      38.818 -16.813 -37.210  0.00  0.00    -0.311 N 
ATOM     10  H   UNL A   1      37.843 -16.931 -37.135  0.00  0.00    +0.000 HD
BRANCH   7  16
ATOM     11  C   UNL A   1      39.220 -17.612 -33.866  0.00  0.00    +0.044 A 
ATOM     12  C   UNL A   1      38.491 -18.181 -32.809  0.00  0.00    -0.040 A 
ATOM     13  C   UNL A   1      37.659 -19.287 -33.011  0.00  0.00    -0.060 A 
ATOM     14  C   UNL A   1      37.518 -19.831 -34.283  0.00  0.00    -0.061 A 
ATOM     15  C   UNL A   1      38.183 -19.251 -35.361  0.00  0.00    -0.048 A 
ATOM     16  C   UNL A   1      39.007 -18.127 -35.164  0.00  0.00    +0.058 A 
BRANCH  11  17
ATOM     17  N   UNL A   1      40.014 -16.451 -33.656  0.00  0.00    -0.314 N 
ATOM     18  H   UNL A   1      39.546 -15.591 -33.763  0.00  0.00    +0.000 HD
BRANCH  17  24
ATOM     19  C   UNL A   1      44.201 -13.741 -33.307  0.00  0.00    -0.039 C 
ATOM     20  C   UNL A   1      43.446 -15.038 -33.192  0.00  0.00    -0.046 A 
ATOM     21  C   UNL A   1      44.152 -16.198 -32.840  0.00  0.00    -0.058 A 
ATOM     22  C   UNL A   1      43.503 -17.426 -32.752  0.00  0.00    -0.060 A 
ATOM     23  C   UNL A   1      42.136 -17.508 -33.007  0.00  0.00    -0.040 A 
ATOM     24  C   UNL A   1      41.389 -16.362 -33.314  0.00  0.00    +0.035 A 
ATOM     25  C   UNL A   1      42.050 -15.113 -33.417  0.00  0.00    -0.026 A 
ATOM     26  C   UNL A   1      41.270 -13.885 -33.821  0.00  0.00    -0.038 C 
ENDBRANCH  17  24
ENDBRANCH  11  17
ENDBRANCH   7  16
ENDBRANCH   6   9
ENDBRANCH   5   6
ENDBRANCH   1   5
BRANCH   3  27
ATOM     27  C   UNL A   1      43.261 -14.942 -37.806  0.00  0.00    +0.012 C 
BRANCH  27  28
ATOM     28  C   UNL A   1      43.928 -15.626 -36.614  0.00  0.00    -0.037 C 
BRANCH  28  29
ATOM     29  C   UNL A   1      45.022 -16.601 -37.056  0.00  0.00    -0.052 C 
BRANCH  29  30
ATOM     30  C   UNL A   1      46.080 -16.761 -35.961  0.00  0.00    -0.053 C 
BRANCH  30  31
ATOM     31  C   UNL A   1      46.179 -18.189 -35.414  0.00  0.00    -0.052 C 
BRANCH  31  32
ATOM     32  C   UNL A   1      45.380 -19.231 -36.202  0.00  0.00    -0.037 C 
BRANCH  32  33
ATOM     33  C   UNL A   1      44.315 -19.952 -35.376  0.00  0.00    +0.009 C 
BRANCH  33  34
ATOM     34  N   UNL A   1      42.953 -19.494 -35.704  0.00  0.00    -0.343 N 
ATOM     35  H   UNL A   1      42.698 -18.544 -35.678  0.00  0.00    +0.000 HD
BRANCH  34  36
ATOM     36  C   UNL A   1      42.034 -20.518 -36.060  0.00  0.00    +0.041 A 
ATOM     37  C   UNL A   1      41.911 -20.931 -37.405  0.00  0.00    -0.005 A 
ATOM     38  C   UNL A   1      41.054 -22.001 -37.681  0.00  0.00    +0.047 A 
ATOM     39  N   UNL A   1      40.374 -22.675 -36.726  0.00  0.00    -0.251 NA
ATOM     40  C   UNL A   1      40.470 -22.271 -35.454  0.00  0.00    +0.073 A 
ATOM     41  C   UNL A   1      39.728 -22.952 -34.497  0.00  0.00    -0.036 A 
ATOM     42  C   UNL A   1      39.735 -22.580 -33.151  0.00  0.00    -0.060 A 
ATOM     43  C   UNL A   1      40.494 -21.494 -32.748  0.00  0.00    -0.061 A 
ATOM     44  C   UNL A   1      41.251 -20.801 -33.692  0.00  0.00    -0.051 A 
ATOM     45  C   UNL A   1      41.275 -21.186 -35.055  0.00  0.00    +0.021 A 
ATOM     46  C   UNL A   1      40.869 -22.536 -39.079  0.00  0.00    -0.010 C 
ATOM     47  C   UNL A   1      41.248 -21.536 -40.163  0.00  0.00    -0.047 C 
ATOM     48  C   UNL A   1      42.619 -20.955 -39.863  0.00  0.00    -0.049 C 
ATOM     49  C   UNL A   1      42.602 -20.200 -38.535  0.00  0.00    -0.024 C 
ENDBRANCH  34  36
ENDBRANCH  33  34
ENDBRANCH  32  33
ENDBRANCH  31  32
ENDBRANCH  30  31
ENDBRANCH  29  30
ENDBRANCH  28  29
ENDBRANCH  27  28
ENDBRANCH   3  27
TORSDOF 15
ENDMDL
