MODEL 1
REMARK VINA RESULT:    -6.528      0.000      0.000
REMARK INTER + INTRA:         -13.125
REMARK INTER:                 -11.299
REMARK INTRA:                  -1.827
REMARK UNBOUND:                -1.827
REMARK  Name = cpd289.pdb
REMARK  17 active torsions:
REMARK  status: ('A' for Active; 'I' for Inactive)
REMARK    1  A    between atoms: C_1  and  C_2
REMARK    2  A    between atoms: C_2  and  C_3
REMARK    3  A    between atoms: C_2  and  C_20
REMARK    4  A    between atoms: C_3  and  C_4
REMARK    5  A    between atoms: C_4  and  C_5
REMARK    6  A    between atoms: C_6  and  C_7
REMARK    7  A    between atoms: C_7  and  O_8
REMARK    8  A    between atoms: C_12  and  C_13
REMARK    9  A    between atoms: C_12  and  C_14
REMARK   10  A    between atoms: C_18  and  C_19
REMARK   11  A    between atoms: C_20  and  C_21
REMARK   12  A    between atoms: C_21  and  O_23
REMARK   13  A    between atoms: O_23  and  C_24
REMARK   14  A    between atoms: C_24  and  C_25
REMARK   15  A    between atoms: C_25  and  C_26
REMARK   16  A    between atoms: C_26  and  C_27
REMARK   17  A    between atoms: C_27  and  N_28
REMARK                            x       y       z     vdW  Elec       q    Type
REMARK                         _______ _______ _______ _____ _____    ______ ____
ROOT
ATOM      1  C   UNL     1      43.855 -19.147 -37.117  0.00  0.00    -0.049 C 
ENDROOT
BRANCH   1   3
ATOM      2  C   UNL     1      45.271 -17.071 -37.494  0.00  0.00    -0.062 C 
ATOM      3  C   UNL     1      44.711 -18.046 -36.447  0.00  0.00    -0.034 C 
BRANCH   3   4
ATOM      4  C   UNL     1      45.885 -18.665 -35.666  0.00  0.00    +0.048 C 
BRANCH   4   5
ATOM      5  C   UNL     1      45.416 -19.524 -34.513  0.00  0.00    +0.307 C 
ATOM      6  O   UNL     1      45.304 -20.741 -34.635  0.00  0.00    -0.251 OA
BRANCH   5   7
ATOM      7  O   UNL     1      45.130 -18.921 -33.332  0.00  0.00    -0.465 OA
BRANCH   7   8
ATOM      8  C   UNL     1      43.855 -18.328 -33.013  0.00  0.00    +0.092 C 
BRANCH   8   9
ATOM      9  C   UNL     1      42.706 -19.175 -33.554  0.00  0.00    -0.017 C 
BRANCH   9  10
ATOM     10  C   UNL     1      41.748 -19.687 -32.474  0.00  0.00    -0.037 C 
BRANCH  10  11
ATOM     11  C   UNL     1      40.271 -19.657 -32.887  0.00  0.00    -0.001 C 
BRANCH  11  12
ATOM     12  N   UNL     1      39.687 -21.006 -32.958  0.00  0.00    -0.298 N 
ATOM     13  C   UNL     1      40.588 -22.045 -32.413  0.00  0.00    +0.022 C 
ATOM     14  C   UNL     1      40.282 -23.436 -32.987  0.00  0.00    +0.060 C 
ATOM     15  O   UNL     1      40.500 -23.510 -34.401  0.00  0.00    -0.377 OA
ATOM     16  C   UNL     1      40.278 -22.259 -35.068  0.00  0.00    +0.060 C 
ATOM     17  C   UNL     1      39.276 -21.351 -34.338  0.00  0.00    +0.022 C 
ATOM     18  H   UNL     1      38.855 -20.985 -32.369  0.00  0.00    +0.000 HD
ENDBRANCH  11  12
ENDBRANCH  10  11
ENDBRANCH   9  10
ENDBRANCH   8   9
ENDBRANCH   7   8
ENDBRANCH   5   7
ENDBRANCH   4   5
ENDBRANCH   3   4
ENDBRANCH   1   3
BRANCH   1  19
ATOM     19  C   UNL     1      43.954 -19.129 -38.654  0.00  0.00    -0.046 C 
BRANCH  19  20
ATOM     20  C   UNL     1      44.149 -20.547 -39.287  0.00  0.00    -0.012 C 
ATOM     21  C   UNL     1      43.013 -20.931 -40.239  0.00  0.00    -0.045 C 
ATOM     22  C   UNL     1      43.269 -21.561 -41.399  0.00  0.00    -0.082 C 
ATOM     23  C   UNL     1      44.620 -21.979 -41.870  0.00  0.00    -0.031 C 
ATOM     24  C   UNL     1      45.718 -22.009 -40.779  0.00  0.00    -0.027 C 
ATOM     25  C   UNL     1      47.162 -22.277 -41.387  0.00  0.00    -0.031 C 
ATOM     26  C   UNL     1      47.967 -23.220 -40.457  0.00  0.00    -0.060 C 
ATOM     27  C   UNL     1      47.113 -23.016 -42.750  0.00  0.00    -0.060 C 
ATOM     28  C   UNL     1      47.963 -20.963 -41.582  0.00  0.00    -0.048 C 
ATOM     29  C   UNL     1      47.078 -19.755 -41.845  0.00  0.00    -0.052 C 
ATOM     30  C   UNL     1      46.046 -19.483 -40.744  0.00  0.00    -0.047 C 
ATOM     31  C   UNL     1      45.623 -20.716 -39.890  0.00  0.00    -0.022 C 
ATOM     32  C   UNL     1      46.561 -20.832 -38.653  0.00  0.00    -0.059 C 
BRANCH  21  33
ATOM     33  C   UNL     1      41.597 -20.670 -39.764  0.00  0.00    +0.066 C 
BRANCH  33  34
ATOM     34  O   UNL     1      41.190 -21.577 -38.746  0.00  0.00    -0.391 OA
ATOM     35  H   UNL     1      40.286 -21.364 -38.466  0.00  0.00    +0.000 HD
ENDBRANCH  33  34
ENDBRANCH  21  33
ENDBRANCH  19  20
ENDBRANCH   1  19
TORSDOF 13
ENDMDL
MODEL 2
REMARK VINA RESULT:    -6.514      2.991      8.560
REMARK INTER + INTRA:         -13.100
REMARK INTER:                 -11.064
REMARK INTRA:                  -2.036
REMARK UNBOUND:                -1.827
REMARK  Name = cpd289.pdb
REMARK  17 active torsions:
REMARK  status: ('A' for Active; 'I' for Inactive)
REMARK    1  A    between atoms: C_1  and  C_2
REMARK    2  A    between atoms: C_2  and  C_3
REMARK    3  A    between atoms: C_2  and  C_20
REMARK    4  A    between atoms: C_3  and  C_4
REMARK    5  A    between atoms: C_4  and  C_5
REMARK    6  A    between atoms: C_6  and  C_7
REMARK    7  A    between atoms: C_7  and  O_8
REMARK    8  A    between atoms: C_12  and  C_13
REMARK    9  A    between atoms: C_12  and  C_14
REMARK   10  A    between atoms: C_18  and  C_19
REMARK   11  A    between atoms: C_20  and  C_21
REMARK   12  A    between atoms: C_21  and  O_23
REMARK   13  A    between atoms: O_23  and  C_24
REMARK   14  A    between atoms: C_24  and  C_25
REMARK   15  A    between atoms: C_25  and  C_26
REMARK   16  A    between atoms: C_26  and  C_27
REMARK   17  A    between atoms: C_27  and  N_28
REMARK                            x       y       z     vdW  Elec       q    Type
REMARK                         _______ _______ _______ _____ _____    ______ ____
ROOT
ATOM      1  C   UNL     1      42.174 -19.111 -37.635  0.00  0.00    -0.049 C 
ENDROOT
BRANCH   1   3
ATOM      2  C   UNL     1      42.839 -19.835 -39.978  0.00  0.00    -0.062 C 
ATOM      3  C   UNL     1      43.343 -19.293 -38.633  0.00  0.00    -0.034 C 
BRANCH   3   4
ATOM      4  C   UNL     1      44.398 -20.262 -38.069  0.00  0.00    +0.048 C 
BRANCH   4   5
ATOM      5  C   UNL     1      45.786 -19.663 -38.071  0.00  0.00    +0.307 C 
ATOM      6  O   UNL     1      46.784 -20.377 -38.022  0.00  0.00    -0.251 OA
BRANCH   5   7
ATOM      7  O   UNL     1      45.907 -18.314 -38.141  0.00  0.00    -0.465 OA
BRANCH   7   8
ATOM      8  C   UNL     1      46.843 -17.628 -38.998  0.00  0.00    +0.092 C 
BRANCH   8   9
ATOM      9  C   UNL     1      46.347 -17.601 -40.441  0.00  0.00    -0.017 C 
BRANCH   9  10
ATOM     10  C   UNL     1      47.015 -18.639 -41.349  0.00  0.00    -0.037 C 
BRANCH  10  11
ATOM     11  C   UNL     1      46.136 -19.861 -41.648  0.00  0.00    -0.001 C 
BRANCH  11  12
ATOM     12  N   UNL     1      46.694 -21.098 -41.078  0.00  0.00    -0.298 N 
ATOM     13  C   UNL     1      48.133 -21.265 -41.381  0.00  0.00    +0.022 C 
ATOM     14  C   UNL     1      48.570 -22.737 -41.322  0.00  0.00    +0.060 C 
ATOM     15  O   UNL     1      47.921 -23.544 -42.313  0.00  0.00    -0.377 OA
ATOM     16  C   UNL     1      46.610 -23.070 -42.652  0.00  0.00    +0.060 C 
ATOM     17  C   UNL     1      45.933 -22.292 -41.513  0.00  0.00    +0.022 C 
ATOM     18  H   UNL     1      46.604 -21.008 -40.066  0.00  0.00    +0.000 HD
ENDBRANCH  11  12
ENDBRANCH  10  11
ENDBRANCH   9  10
ENDBRANCH   8   9
ENDBRANCH   7   8
ENDBRANCH   5   7
ENDBRANCH   4   5
ENDBRANCH   3   4
ENDBRANCH   1   3
BRANCH   1  19
ATOM     19  C   UNL     1      41.943 -20.352 -36.752  0.00  0.00    -0.046 C 
BRANCH  19  20
ATOM     20  C   UNL     1      40.432 -20.692 -36.531  0.00  0.00    -0.012 C 
ATOM     21  C   UNL     1      40.040 -22.052 -37.116  0.00  0.00    -0.045 C 
ATOM     22  C   UNL     1      39.214 -22.877 -36.449  0.00  0.00    -0.082 C 
ATOM     23  C   UNL     1      38.575 -22.578 -35.137  0.00  0.00    -0.031 C 
ATOM     24  C   UNL     1      38.587 -21.085 -34.723  0.00  0.00    -0.027 C 
ATOM     25  C   UNL     1      38.064 -20.870 -33.238  0.00  0.00    -0.031 C 
ATOM     26  C   UNL     1      37.189 -19.593 -33.159  0.00  0.00    -0.060 C 
ATOM     27  C   UNL     1      37.135 -22.014 -32.755  0.00  0.00    -0.060 C 
ATOM     28  C   UNL     1      39.231 -20.739 -32.224  0.00  0.00    -0.048 C 
ATOM     29  C   UNL     1      40.478 -21.500 -32.645  0.00  0.00    -0.052 C 
ATOM     30  C   UNL     1      41.034 -21.086 -34.013  0.00  0.00    -0.047 C 
ATOM     31  C   UNL     1      40.004 -20.465 -35.004  0.00  0.00    -0.022 C 
ATOM     32  C   UNL     1      39.972 -18.920 -34.814  0.00  0.00    -0.059 C 
BRANCH  21  33
ATOM     33  C   UNL     1      40.533 -22.368 -38.515  0.00  0.00    +0.066 C 
BRANCH  33  34
ATOM     34  O   UNL     1      40.102 -23.647 -38.965  0.00  0.00    -0.391 OA
ATOM     35  H   UNL     1      40.622 -23.909 -39.741  0.00  0.00    +0.000 HD
ENDBRANCH  33  34
ENDBRANCH  21  33
ENDBRANCH  19  20
ENDBRANCH   1  19
TORSDOF 13
ENDMDL
MODEL 3
REMARK VINA RESULT:    -6.415     17.358     21.968
REMARK INTER + INTRA:         -12.930
REMARK INTER:                 -11.117
REMARK INTRA:                  -1.812
REMARK UNBOUND:                -1.827
REMARK  Name = cpd289.pdb
REMARK  17 active torsions:
REMARK  status: ('A' for Active; 'I' for Inactive)
REMARK    1  A    between atoms: C_1  and  C_2
REMARK    2  A    between atoms: C_2  and  C_3
REMARK    3  A    between atoms: C_2  and  C_20
REMARK    4  A    between atoms: C_3  and  C_4
REMARK    5  A    between atoms: C_4  and  C_5
REMARK    6  A    between atoms: C_6  and  C_7
REMARK    7  A    between atoms: C_7  and  O_8
REMARK    8  A    between atoms: C_12  and  C_13
REMARK    9  A    between atoms: C_12  and  C_14
REMARK   10  A    between atoms: C_18  and  C_19
REMARK   11  A    between atoms: C_20  and  C_21
REMARK   12  A    between atoms: C_21  and  O_23
REMARK   13  A    between atoms: O_23  and  C_24
REMARK   14  A    between atoms: C_24  and  C_25
REMARK   15  A    between atoms: C_25  and  C_26
REMARK   16  A    between atoms: C_26  and  C_27
REMARK   17  A    between atoms: C_27  and  N_28
REMARK                            x       y       z     vdW  Elec       q    Type
REMARK                         _______ _______ _______ _____ _____    ______ ____
ROOT
ATOM      1  C   UNL     1      36.359 -39.517 -29.571  0.00  0.00    -0.049 C 
ENDROOT
BRANCH   1   3
ATOM      2  C   UNL     1      35.350 -40.901 -31.448  0.00  0.00    -0.062 C 
ATOM      3  C   UNL     1      35.783 -40.895 -29.975  0.00  0.00    -0.034 C 
BRANCH   3   4
ATOM      4  C   UNL     1      34.571 -41.259 -29.098  0.00  0.00    +0.048 C 
BRANCH   4   5
ATOM      5  C   UNL     1      34.982 -41.732 -27.721  0.00  0.00    +0.307 C 
ATOM      6  O   UNL     1      35.664 -42.743 -27.576  0.00  0.00    -0.251 OA
BRANCH   5   7
ATOM      7  O   UNL     1      34.590 -41.006 -26.645  0.00  0.00    -0.465 OA
BRANCH   7   8
ATOM      8  C   UNL     1      33.681 -39.888 -26.710  0.00  0.00    +0.092 C 
BRANCH   8   9
ATOM      9  C   UNL     1      34.419 -38.568 -26.505  0.00  0.00    -0.017 C 
BRANCH   9  10
ATOM     10  C   UNL     1      34.073 -37.858 -25.192  0.00  0.00    -0.037 C 
BRANCH  10  11
ATOM     11  C   UNL     1      32.632 -38.091 -24.720  0.00  0.00    -0.001 C 
BRANCH  11  12
ATOM     12  N   UNL     1      32.556 -38.343 -23.273  0.00  0.00    -0.298 N 
ATOM     13  C   UNL     1      33.652 -37.690 -22.523  0.00  0.00    +0.022 C 
ATOM     14  C   UNL     1      33.930 -38.383 -21.181  0.00  0.00    +0.060 C 
ATOM     15  O   UNL     1      34.389 -39.731 -21.342  0.00  0.00    -0.377 OA
ATOM     16  C   UNL     1      33.872 -40.362 -22.523  0.00  0.00    +0.060 C 
ATOM     17  C   UNL     1      32.517 -39.793 -22.972  0.00  0.00    +0.022 C 
ATOM     18  H   UNL     1      31.680 -37.924 -22.959  0.00  0.00    +0.000 HD
ENDBRANCH  11  12
ENDBRANCH  10  11
ENDBRANCH   9  10
ENDBRANCH   8   9
ENDBRANCH   7   8
ENDBRANCH   5   7
ENDBRANCH   4   5
ENDBRANCH   3   4
ENDBRANCH   1   3
BRANCH   1  19
ATOM     19  C   UNL     1      36.208 -38.458 -30.680  0.00  0.00    -0.046 C 
BRANCH  19  20
ATOM     20  C   UNL     1      36.333 -36.986 -30.164  0.00  0.00    -0.012 C 
ATOM     21  C   UNL     1      37.604 -36.291 -30.660  0.00  0.00    -0.045 C 
ATOM     22  C   UNL     1      37.577 -35.008 -31.062  0.00  0.00    -0.082 C 
ATOM     23  C   UNL     1      36.375 -34.128 -31.045  0.00  0.00    -0.031 C 
ATOM     24  C   UNL     1      35.202 -34.631 -30.168  0.00  0.00    -0.027 C 
ATOM     25  C   UNL     1      33.895 -33.746 -30.348  0.00  0.00    -0.031 C 
ATOM     26  C   UNL     1      33.189 -33.550 -28.982  0.00  0.00    -0.060 C 
ATOM     27  C   UNL     1      34.205 -32.308 -30.840  0.00  0.00    -0.060 C 
ATOM     28  C   UNL     1      32.891 -34.387 -31.341  0.00  0.00    -0.048 C 
ATOM     29  C   UNL     1      33.564 -35.239 -32.406  0.00  0.00    -0.052 C 
ATOM     30  C   UNL     1      34.421 -36.380 -31.846  0.00  0.00    -0.047 C 
ATOM     31  C   UNL     1      34.978 -36.168 -30.407  0.00  0.00    -0.022 C 
ATOM     32  C   UNL     1      33.964 -36.740 -29.373  0.00  0.00    -0.059 C 
BRANCH  21  33
ATOM     33  C   UNL     1      38.899 -37.076 -30.571  0.00  0.00    +0.066 C 
BRANCH  33  34
ATOM     34  O   UNL     1      40.043 -36.263 -30.800  0.00  0.00    -0.391 OA
ATOM     35  H   UNL     1      39.910 -35.393 -30.390  0.00  0.00    +0.000 HD
ENDBRANCH  33  34
ENDBRANCH  21  33
ENDBRANCH  19  20
ENDBRANCH   1  19
TORSDOF 13
ENDMDL
MODEL 4
REMARK VINA RESULT:    -6.350      1.576      2.226
REMARK INTER + INTRA:         -12.817
REMARK INTER:                 -10.838
REMARK INTRA:                  -1.979
REMARK UNBOUND:                -1.827
REMARK  Name = cpd289.pdb
REMARK  17 active torsions:
REMARK  status: ('A' for Active; 'I' for Inactive)
REMARK    1  A    between atoms: C_1  and  C_2
REMARK    2  A    between atoms: C_2  and  C_3
REMARK    3  A    between atoms: C_2  and  C_20
REMARK    4  A    between atoms: C_3  and  C_4
REMARK    5  A    between atoms: C_4  and  C_5
REMARK    6  A    between atoms: C_6  and  C_7
REMARK    7  A    between atoms: C_7  and  O_8
REMARK    8  A    between atoms: C_12  and  C_13
REMARK    9  A    between atoms: C_12  and  C_14
REMARK   10  A    between atoms: C_18  and  C_19
REMARK   11  A    between atoms: C_20  and  C_21
REMARK   12  A    between atoms: C_21  and  O_23
REMARK   13  A    between atoms: O_23  and  C_24
REMARK   14  A    between atoms: C_24  and  C_25
REMARK   15  A    between atoms: C_25  and  C_26
REMARK   16  A    between atoms: C_26  and  C_27
REMARK   17  A    between atoms: C_27  and  N_28
REMARK                            x       y       z     vdW  Elec       q    Type
REMARK                         _______ _______ _______ _____ _____    ______ ____
ROOT
ATOM      1  C   UNL     1      43.721 -19.984 -35.628  0.00  0.00    -0.049 C 
ENDROOT
BRANCH   1   3
ATOM      2  C   UNL     1      46.017 -19.131 -34.952  0.00  0.00    -0.062 C 
ATOM      3  C   UNL     1      44.501 -18.936 -34.799  0.00  0.00    -0.034 C 
BRANCH   3   4
ATOM      4  C   UNL     1      44.134 -19.035 -33.307  0.00  0.00    +0.048 C 
BRANCH   4   5
ATOM      5  C   UNL     1      43.767 -17.692 -32.717  0.00  0.00    +0.307 C 
ATOM      6  O   UNL     1      44.532 -17.104 -31.957  0.00  0.00    -0.251 OA
BRANCH   5   7
ATOM      7  O   UNL     1      42.575 -17.141 -33.056  0.00  0.00    -0.465 OA
BRANCH   7   8
ATOM      8  C   UNL     1      41.295 -17.729 -32.748  0.00  0.00    +0.092 C 
BRANCH   8   9
ATOM      9  C   UNL     1      40.588 -18.198 -34.016  0.00  0.00    -0.017 C 
BRANCH   9  10
ATOM     10  C   UNL     1      40.522 -19.722 -34.165  0.00  0.00    -0.037 C 
BRANCH  10  11
ATOM     11  C   UNL     1      39.111 -20.303 -34.007  0.00  0.00    -0.001 C 
BRANCH  11  12
ATOM     12  N   UNL     1      39.051 -21.724 -34.382  0.00  0.00    -0.298 N 
ATOM     13  C   UNL     1      37.930 -22.438 -33.731  0.00  0.00    +0.022 C 
ATOM     14  C   UNL     1      38.185 -23.949 -33.632  0.00  0.00    +0.060 C 
ATOM     15  O   UNL     1      39.312 -24.265 -32.804  0.00  0.00    -0.377 OA
ATOM     16  C   UNL     1      40.318 -23.243 -32.813  0.00  0.00    +0.060 C 
ATOM     17  C   UNL     1      40.332 -22.416 -34.108  0.00  0.00    +0.022 C 
ATOM     18  H   UNL     1      38.882 -21.744 -35.388  0.00  0.00    +0.000 HD
ENDBRANCH  11  12
ENDBRANCH  10  11
ENDBRANCH   9  10
ENDBRANCH   8   9
ENDBRANCH   7   8
ENDBRANCH   5   7
ENDBRANCH   4   5
ENDBRANCH   3   4
ENDBRANCH   1   3
BRANCH   1  19
ATOM     19  C   UNL     1      43.475 -19.534 -37.082  0.00  0.00    -0.046 C 
BRANCH  19  20
ATOM     20  C   UNL     1      43.461 -20.713 -38.110  0.00  0.00    -0.012 C 
ATOM     21  C   UNL     1      42.076 -20.953 -38.717  0.00  0.00    -0.045 C 
ATOM     22  C   UNL     1      41.935 -21.233 -40.024  0.00  0.00    -0.082 C 
ATOM     23  C   UNL     1      43.053 -21.376 -40.998  0.00  0.00    -0.031 C 
ATOM     24  C   UNL     1      44.454 -21.573 -40.368  0.00  0.00    -0.027 C 
ATOM     25  C   UNL     1      45.613 -21.526 -41.454  0.00  0.00    -0.031 C 
ATOM     26  C   UNL     1      46.693 -22.590 -41.130  0.00  0.00    -0.060 C 
ATOM     27  C   UNL     1      45.118 -21.890 -42.878  0.00  0.00    -0.060 C 
ATOM     28  C   UNL     1      46.289 -20.132 -41.523  0.00  0.00    -0.048 C 
ATOM     29  C   UNL     1      45.355 -18.994 -41.144  0.00  0.00    -0.052 C 
ATOM     30  C   UNL     1      44.749 -19.122 -39.741  0.00  0.00    -0.047 C 
ATOM     31  C   UNL     1      44.649 -20.569 -39.174  0.00  0.00    -0.022 C 
ATOM     32  C   UNL     1      45.949 -20.904 -38.385  0.00  0.00    -0.059 C 
BRANCH  21  33
ATOM     33  C   UNL     1      40.898 -20.969 -37.761  0.00  0.00    +0.066 C 
BRANCH  33  34
ATOM     34  O   UNL     1      39.759 -21.617 -38.315  0.00  0.00    -0.391 OA
ATOM     35  H   UNL     1      39.235 -20.974 -38.821  0.00  0.00    +0.000 HD
ENDBRANCH  33  34
ENDBRANCH  21  33
ENDBRANCH  19  20
ENDBRANCH   1  19
TORSDOF 13
ENDMDL
MODEL 5
REMARK VINA RESULT:    -6.257      1.879      4.787
REMARK INTER + INTRA:         -12.656
REMARK INTER:                 -10.700
REMARK INTRA:                  -1.956
REMARK UNBOUND:                -1.827
REMARK  Name = cpd289.pdb
REMARK  17 active torsions:
REMARK  status: ('A' for Active; 'I' for Inactive)
REMARK    1  A    between atoms: C_1  and  C_2
REMARK    2  A    between atoms: C_2  and  C_3
REMARK    3  A    between atoms: C_2  and  C_20
REMARK    4  A    between atoms: C_3  and  C_4
REMARK    5  A    between atoms: C_4  and  C_5
REMARK    6  A    between atoms: C_6  and  C_7
REMARK    7  A    between atoms: C_7  and  O_8
REMARK    8  A    between atoms: C_12  and  C_13
REMARK    9  A    between atoms: C_12  and  C_14
REMARK   10  A    between atoms: C_18  and  C_19
REMARK   11  A    between atoms: C_20  and  C_21
REMARK   12  A    between atoms: C_21  and  O_23
REMARK   13  A    between atoms: O_23  and  C_24
REMARK   14  A    between atoms: C_24  and  C_25
REMARK   15  A    between atoms: C_25  and  C_26
REMARK   16  A    between atoms: C_26  and  C_27
REMARK   17  A    between atoms: C_27  and  N_28
REMARK                            x       y       z     vdW  Elec       q    Type
REMARK                         _______ _______ _______ _____ _____    ______ ____
ROOT
ATOM      1  C   UNL     1      40.612 -19.896 -37.491  0.00  0.00    -0.049 C 
ENDROOT
BRANCH   1   3
ATOM      2  C   UNL     1      39.600 -21.892 -38.694  0.00  0.00    -0.062 C 
ATOM      3  C   UNL     1      40.197 -21.382 -37.374  0.00  0.00    -0.034 C 
BRANCH   3   4
ATOM      4  C   UNL     1      39.160 -21.575 -36.252  0.00  0.00    +0.048 C 
BRANCH   4   5
ATOM      5  C   UNL     1      39.265 -22.936 -35.603  0.00  0.00    +0.307 C 
ATOM      6  O   UNL     1      39.115 -23.964 -36.259  0.00  0.00    -0.251 OA
BRANCH   5   7
ATOM      7  O   UNL     1      39.542 -23.001 -34.277  0.00  0.00    -0.465 OA
BRANCH   7   8
ATOM      8  C   UNL     1      40.740 -22.473 -33.672  0.00  0.00    +0.092 C 
BRANCH   8   9
ATOM      9  C   UNL     1      40.427 -21.254 -32.809  0.00  0.00    -0.017 C 
BRANCH   9  10
ATOM     10  C   UNL     1      41.374 -20.071 -33.037  0.00  0.00    -0.037 C 
BRANCH  10  11
ATOM     11  C   UNL     1      42.583 -20.403 -33.921  0.00  0.00    -0.001 C 
BRANCH  11  12
ATOM     12  N   UNL     1      43.836 -19.857 -33.375  0.00  0.00    -0.298 N 
ATOM     13  C   UNL     1      43.660 -18.513 -32.781  0.00  0.00    +0.022 C 
ATOM     14  C   UNL     1      44.973 -17.718 -32.749  0.00  0.00    +0.060 C 
ATOM     15  O   UNL     1      45.482 -17.442 -34.061  0.00  0.00    -0.377 OA
ATOM     16  C   UNL     1      45.133 -18.449 -35.021  0.00  0.00    +0.060 C 
ATOM     17  C   UNL     1      44.911 -19.835 -34.394  0.00  0.00    +0.022 C 
ATOM     18  H   UNL     1      44.115 -20.489 -32.625  0.00  0.00    +0.000 HD
ENDBRANCH  11  12
ENDBRANCH  10  11
ENDBRANCH   9  10
ENDBRANCH   8   9
ENDBRANCH   7   8
ENDBRANCH   5   7
ENDBRANCH   4   5
ENDBRANCH   3   4
ENDBRANCH   1   3
BRANCH   1  19
ATOM     19  C   UNL     1      42.140 -19.703 -37.526  0.00  0.00    -0.046 C 
BRANCH  19  20
ATOM     20  C   UNL     1      42.691 -19.318 -38.939  0.00  0.00    -0.012 C 
ATOM     21  C   UNL     1      43.100 -17.846 -39.033  0.00  0.00    -0.045 C 
ATOM     22  C   UNL     1      44.219 -17.481 -39.684  0.00  0.00    -0.082 C 
ATOM     23  C   UNL     1      45.142 -18.410 -40.394  0.00  0.00    -0.031 C 
ATOM     24  C   UNL     1      44.560 -19.814 -40.696  0.00  0.00    -0.027 C 
ATOM     25  C   UNL     1      45.657 -20.806 -41.279  0.00  0.00    -0.031 C 
ATOM     26  C   UNL     1      45.043 -21.683 -42.399  0.00  0.00    -0.060 C 
ATOM     27  C   UNL     1      46.836 -20.065 -41.962  0.00  0.00    -0.060 C 
ATOM     28  C   UNL     1      46.243 -21.732 -40.182  0.00  0.00    -0.048 C 
ATOM     29  C   UNL     1      46.233 -21.103 -38.798  0.00  0.00    -0.052 C 
ATOM     30  C   UNL     1      44.843 -20.673 -38.315  0.00  0.00    -0.047 C 
ATOM     31  C   UNL     1      43.803 -20.361 -39.432  0.00  0.00    -0.022 C 
ATOM     32  C   UNL     1      43.018 -21.659 -39.784  0.00  0.00    -0.059 C 
BRANCH  21  33
ATOM     33  C   UNL     1      42.136 -16.824 -38.461  0.00  0.00    +0.066 C 
BRANCH  33  34
ATOM     34  O   UNL     1      41.058 -16.542 -39.345  0.00  0.00    -0.391 OA
ATOM     35  H   UNL     1      41.289 -16.833 -40.241  0.00  0.00    +0.000 HD
ENDBRANCH  33  34
ENDBRANCH  21  33
ENDBRANCH  19  20
ENDBRANCH   1  19
TORSDOF 13
ENDMDL
MODEL 6
REMARK VINA RESULT:    -6.165      3.193      8.651
REMARK INTER + INTRA:         -12.497
REMARK INTER:                 -10.606
REMARK INTRA:                  -1.891
REMARK UNBOUND:                -1.827
REMARK  Name = cpd289.pdb
REMARK  17 active torsions:
REMARK  status: ('A' for Active; 'I' for Inactive)
REMARK    1  A    between atoms: C_1  and  C_2
REMARK    2  A    between atoms: C_2  and  C_3
REMARK    3  A    between atoms: C_2  and  C_20
REMARK    4  A    between atoms: C_3  and  C_4
REMARK    5  A    between atoms: C_4  and  C_5
REMARK    6  A    between atoms: C_6  and  C_7
REMARK    7  A    between atoms: C_7  and  O_8
REMARK    8  A    between atoms: C_12  and  C_13
REMARK    9  A    between atoms: C_12  and  C_14
REMARK   10  A    between atoms: C_18  and  C_19
REMARK   11  A    between atoms: C_20  and  C_21
REMARK   12  A    between atoms: C_21  and  O_23
REMARK   13  A    between atoms: O_23  and  C_24
REMARK   14  A    between atoms: C_24  and  C_25
REMARK   15  A    between atoms: C_25  and  C_26
REMARK   16  A    between atoms: C_26  and  C_27
REMARK   17  A    between atoms: C_27  and  N_28
REMARK                            x       y       z     vdW  Elec       q    Type
REMARK                         _______ _______ _______ _____ _____    ______ ____
ROOT
ATOM      1  C   UNL     1      40.494 -22.238 -38.779  0.00  0.00    -0.049 C 
ENDROOT
BRANCH   1   3
ATOM      2  C   UNL     1      41.461 -22.030 -41.120  0.00  0.00    -0.062 C 
ATOM      3  C   UNL     1      41.352 -21.375 -39.736  0.00  0.00    -0.034 C 
BRANCH   3   4
ATOM      4  C   UNL     1      42.769 -21.172 -39.168  0.00  0.00    +0.048 C 
BRANCH   4   5
ATOM      5  C   UNL     1      43.154 -19.711 -39.099  0.00  0.00    +0.307 C 
ATOM      6  O   UNL     1      42.423 -18.841 -39.565  0.00  0.00    -0.251 OA
BRANCH   5   7
ATOM      7  O   UNL     1      44.323 -19.379 -38.497  0.00  0.00    -0.465 OA
BRANCH   7   8
ATOM      8  C   UNL     1      45.601 -19.952 -38.840  0.00  0.00    +0.092 C 
BRANCH   8   9
ATOM      9  C   UNL     1      46.551 -18.887 -39.383  0.00  0.00    -0.017 C 
BRANCH   9  10
ATOM     10  C   UNL     1      46.939 -19.088 -40.851  0.00  0.00    -0.037 C 
BRANCH  10  11
ATOM     11  C   UNL     1      46.017 -20.051 -41.612  0.00  0.00    -0.001 C 
BRANCH  11  12
ATOM     12  N   UNL     1      46.769 -21.125 -42.281  0.00  0.00    -0.298 N 
ATOM     13  C   UNL     1      46.039 -22.413 -42.284  0.00  0.00    +0.022 C 
ATOM     14  C   UNL     1      46.986 -23.614 -42.427  0.00  0.00    +0.060 C 
ATOM     15  O   UNL     1      47.887 -23.740 -41.321  0.00  0.00    -0.377 OA
ATOM     16  C   UNL     1      48.215 -22.480 -40.718  0.00  0.00    +0.060 C 
ATOM     17  C   UNL     1      48.117 -21.297 -41.693  0.00  0.00    +0.022 C 
ATOM     18  H   UNL     1      46.874 -20.832 -43.252  0.00  0.00    +0.000 HD
ENDBRANCH  11  12
ENDBRANCH  10  11
ENDBRANCH   9  10
ENDBRANCH   8   9
ENDBRANCH   7   8
ENDBRANCH   5   7
ENDBRANCH   4   5
ENDBRANCH   3   4
ENDBRANCH   1   3
BRANCH   1  19
ATOM     19  C   UNL     1      39.376 -21.433 -38.089  0.00  0.00    -0.046 C 
BRANCH  19  20
ATOM     20  C   UNL     1      39.906 -20.328 -37.118  0.00  0.00    -0.012 C 
ATOM     21  C   UNL     1      39.207 -18.980 -37.317  0.00  0.00    -0.045 C 
ATOM     22  C   UNL     1      38.857 -18.221 -36.264  0.00  0.00    -0.082 C 
ATOM     23  C   UNL     1      39.121 -18.558 -34.837  0.00  0.00    -0.031 C 
ATOM     24  C   UNL     1      40.182 -19.662 -34.606  0.00  0.00    -0.027 C 
ATOM     25  C   UNL     1      40.272 -20.100 -33.081  0.00  0.00    -0.031 C 
ATOM     26  C   UNL     1      41.750 -20.341 -32.680  0.00  0.00    -0.060 C 
ATOM     27  C   UNL     1      39.776 -18.998 -32.109  0.00  0.00    -0.060 C 
ATOM     28  C   UNL     1      39.460 -21.390 -32.798  0.00  0.00    -0.048 C 
ATOM     29  C   UNL     1      38.264 -21.560 -33.721  0.00  0.00    -0.052 C 
ATOM     30  C   UNL     1      38.622 -21.582 -35.212  0.00  0.00    -0.047 C 
ATOM     31  C   UNL     1      39.941 -20.852 -35.605  0.00  0.00    -0.022 C 
ATOM     32  C   UNL     1      41.125 -21.861 -35.549  0.00  0.00    -0.059 C 
BRANCH  21  33
ATOM     33  C   UNL     1      39.033 -18.498 -38.745  0.00  0.00    +0.066 C 
BRANCH  33  34
ATOM     34  O   UNL     1      39.943 -17.457 -39.081  0.00  0.00    -0.391 OA
ATOM     35  H   UNL     1      40.156 -17.506 -40.027  0.00  0.00    +0.000 HD
ENDBRANCH  33  34
ENDBRANCH  21  33
ENDBRANCH  19  20
ENDBRANCH   1  19
TORSDOF 13
ENDMDL
MODEL 7
REMARK VINA RESULT:    -6.101      2.063      4.419
REMARK INTER + INTRA:         -12.386
REMARK INTER:                 -10.054
REMARK INTRA:                  -2.332
REMARK UNBOUND:                -1.827
REMARK  Name = cpd289.pdb
REMARK  17 active torsions:
REMARK  status: ('A' for Active; 'I' for Inactive)
REMARK    1  A    between atoms: C_1  and  C_2
REMARK    2  A    between atoms: C_2  and  C_3
REMARK    3  A    between atoms: C_2  and  C_20
REMARK    4  A    between atoms: C_3  and  C_4
REMARK    5  A    between atoms: C_4  and  C_5
REMARK    6  A    between atoms: C_6  and  C_7
REMARK    7  A    between atoms: C_7  and  O_8
REMARK    8  A    between atoms: C_12  and  C_13
REMARK    9  A    between atoms: C_12  and  C_14
REMARK   10  A    between atoms: C_18  and  C_19
REMARK   11  A    between atoms: C_20  and  C_21
REMARK   12  A    between atoms: C_21  and  O_23
REMARK   13  A    between atoms: O_23  and  C_24
REMARK   14  A    between atoms: C_24  and  C_25
REMARK   15  A    between atoms: C_25  and  C_26
REMARK   16  A    between atoms: C_26  and  C_27
REMARK   17  A    between atoms: C_27  and  N_28
REMARK                            x       y       z     vdW  Elec       q    Type
REMARK                         _______ _______ _______ _____ _____    ______ ____
ROOT
ATOM      1  C   UNL     1      40.813 -19.524 -37.272  0.00  0.00    -0.049 C 
ENDROOT
BRANCH   1   3
ATOM      2  C   UNL     1      38.669 -20.246 -36.117  0.00  0.00    -0.062 C 
ATOM      3  C   UNL     1      39.920 -20.721 -36.870  0.00  0.00    -0.034 C 
BRANCH   3   4
ATOM      4  C   UNL     1      40.695 -21.706 -35.975  0.00  0.00    +0.048 C 
BRANCH   4   5
ATOM      5  C   UNL     1      39.923 -22.982 -35.725  0.00  0.00    +0.307 C 
ATOM      6  O   UNL     1      39.482 -23.648 -36.657  0.00  0.00    -0.251 OA
BRANCH   5   7
ATOM      7  O   UNL     1      39.738 -23.384 -34.443  0.00  0.00    -0.465 OA
BRANCH   7   8
ATOM      8  C   UNL     1      38.887 -22.706 -33.496  0.00  0.00    +0.092 C 
BRANCH   8   9
ATOM      9  C   UNL     1      39.706 -22.098 -32.361  0.00  0.00    -0.017 C 
BRANCH   9  10
ATOM     10  C   UNL     1      40.068 -20.624 -32.574  0.00  0.00    -0.037 C 
BRANCH  10  11
ATOM     11  C   UNL     1      41.575 -20.341 -32.537  0.00  0.00    -0.001 C 
BRANCH  11  12
ATOM     12  N   UNL     1      41.970 -19.309 -33.508  0.00  0.00    -0.298 N 
ATOM     13  C   UNL     1      43.276 -18.693 -33.185  0.00  0.00    +0.022 C 
ATOM     14  C   UNL     1      43.421 -17.290 -33.793  0.00  0.00    +0.060 C 
ATOM     15  O   UNL     1      42.470 -16.359 -33.264  0.00  0.00    -0.377 OA
ATOM     16  C   UNL     1      41.238 -16.979 -32.868  0.00  0.00    +0.060 C 
ATOM     17  C   UNL     1      40.928 -18.265 -33.650  0.00  0.00    +0.022 C 
ATOM     18  H   UNL     1      42.072 -19.788 -34.403  0.00  0.00    +0.000 HD
ENDBRANCH  11  12
ENDBRANCH  10  11
ENDBRANCH   9  10
ENDBRANCH   8   9
ENDBRANCH   7   8
ENDBRANCH   5   7
ENDBRANCH   4   5
ENDBRANCH   3   4
ENDBRANCH   1   3
BRANCH   1  19
ATOM     19  C   UNL     1      41.161 -19.515 -38.774  0.00  0.00    -0.046 C 
BRANCH  19  20
ATOM     20  C   UNL     1      42.473 -20.294 -39.119  0.00  0.00    -0.012 C 
ATOM     21  C   UNL     1      42.271 -21.331 -40.227  0.00  0.00    -0.045 C 
ATOM     22  C   UNL     1      43.194 -21.502 -41.189  0.00  0.00    -0.082 C 
ATOM     23  C   UNL     1      44.487 -20.766 -41.279  0.00  0.00    -0.031 C 
ATOM     24  C   UNL     1      44.926 -20.044 -39.981  0.00  0.00    -0.027 C 
ATOM     25  C   UNL     1      46.207 -19.130 -40.206  0.00  0.00    -0.031 C 
ATOM     26  C   UNL     1      47.158 -19.233 -38.987  0.00  0.00    -0.060 C 
ATOM     27  C   UNL     1      47.066 -19.587 -41.414  0.00  0.00    -0.060 C 
ATOM     28  C   UNL     1      45.828 -17.642 -40.422  0.00  0.00    -0.048 C 
ATOM     29  C   UNL     1      44.460 -17.458 -41.058  0.00  0.00    -0.052 C 
ATOM     30  C   UNL     1      43.310 -18.096 -40.269  0.00  0.00    -0.047 C 
ATOM     31  C   UNL     1      43.700 -19.291 -39.348  0.00  0.00    -0.022 C 
ATOM     32  C   UNL     1      44.060 -18.755 -37.931  0.00  0.00    -0.059 C 
BRANCH  21  33
ATOM     33  C   UNL     1      41.047 -22.222 -40.123  0.00  0.00    +0.066 C 
BRANCH  33  34
ATOM     34  O   UNL     1      41.191 -23.226 -39.126  0.00  0.00    -0.391 OA
ATOM     35  H   UNL     1      42.090 -23.590 -39.160  0.00  0.00    +0.000 HD
ENDBRANCH  33  34
ENDBRANCH  21  33
ENDBRANCH  19  20
ENDBRANCH   1  19
TORSDOF 13
ENDMDL
MODEL 8
REMARK VINA RESULT:    -6.061      3.004      8.302
REMARK INTER + INTRA:         -12.317
REMARK INTER:                 -10.524
REMARK INTRA:                  -1.792
REMARK UNBOUND:                -1.827
REMARK  Name = cpd289.pdb
REMARK  17 active torsions:
REMARK  status: ('A' for Active; 'I' for Inactive)
REMARK    1  A    between atoms: C_1  and  C_2
REMARK    2  A    between atoms: C_2  and  C_3
REMARK    3  A    between atoms: C_2  and  C_20
REMARK    4  A    between atoms: C_3  and  C_4
REMARK    5  A    between atoms: C_4  and  C_5
REMARK    6  A    between atoms: C_6  and  C_7
REMARK    7  A    between atoms: C_7  and  O_8
REMARK    8  A    between atoms: C_12  and  C_13
REMARK    9  A    between atoms: C_12  and  C_14
REMARK   10  A    between atoms: C_18  and  C_19
REMARK   11  A    between atoms: C_20  and  C_21
REMARK   12  A    between atoms: C_21  and  O_23
REMARK   13  A    between atoms: O_23  and  C_24
REMARK   14  A    between atoms: C_24  and  C_25
REMARK   15  A    between atoms: C_25  and  C_26
REMARK   16  A    between atoms: C_26  and  C_27
REMARK   17  A    between atoms: C_27  and  N_28
REMARK                            x       y       z     vdW  Elec       q    Type
REMARK                         _______ _______ _______ _____ _____    ______ ____
ROOT
ATOM      1  C   UNL     1      43.039 -19.268 -36.762  0.00  0.00    -0.049 C 
ENDROOT
BRANCH   1   3
ATOM      2  C   UNL     1      44.784 -19.561 -34.939  0.00  0.00    -0.062 C 
ATOM      3  C   UNL     1      44.524 -19.075 -36.373  0.00  0.00    -0.034 C 
BRANCH   3   4
ATOM      4  C   UNL     1      44.929 -17.593 -36.477  0.00  0.00    +0.048 C 
BRANCH   4   5
ATOM      5  C   UNL     1      44.829 -17.071 -37.893  0.00  0.00    +0.307 C 
ATOM      6  O   UNL     1      44.271 -16.005 -38.137  0.00  0.00    -0.251 OA
BRANCH   5   7
ATOM      7  O   UNL     1      45.382 -17.802 -38.892  0.00  0.00    -0.465 OA
BRANCH   7   8
ATOM      8  C   UNL     1      44.838 -17.896 -40.224  0.00  0.00    +0.092 C 
BRANCH   8   9
ATOM      9  C   UNL     1      43.828 -19.036 -40.325  0.00  0.00    -0.017 C 
BRANCH   9  10
ATOM     10  C   UNL     1      44.431 -20.425 -40.089  0.00  0.00    -0.037 C 
BRANCH  10  11
ATOM     11  C   UNL     1      44.629 -21.243 -41.372  0.00  0.00    -0.001 C 
BRANCH  11  12
ATOM     12  N   UNL     1      46.050 -21.382 -41.728  0.00  0.00    -0.298 N 
ATOM     13  C   UNL     1      46.393 -22.750 -42.178  0.00  0.00    +0.022 C 
ATOM     14  C   UNL     1      47.884 -23.064 -41.991  0.00  0.00    +0.060 C 
ATOM     15  O   UNL     1      48.281 -23.054 -40.614  0.00  0.00    -0.377 OA
ATOM     16  C   UNL     1      47.507 -22.148 -39.814  0.00  0.00    +0.060 C 
ATOM     17  C   UNL     1      46.935 -20.968 -40.615  0.00  0.00    +0.022 C 
ATOM     18  H   UNL     1      46.206 -20.754 -42.516  0.00  0.00    +0.000 HD
ENDBRANCH  11  12
ENDBRANCH  10  11
ENDBRANCH   9  10
ENDBRANCH   8   9
ENDBRANCH   7   8
ENDBRANCH   5   7
ENDBRANCH   4   5
ENDBRANCH   3   4
ENDBRANCH   1   3
BRANCH   1  19
ATOM     19  C   UNL     1      42.512 -20.678 -36.432  0.00  0.00    -0.046 C 
BRANCH  19  20
ATOM     20  C   UNL     1      40.953 -20.758 -36.331  0.00  0.00    -0.012 C 
ATOM     21  C   UNL     1      40.373 -21.962 -37.076  0.00  0.00    -0.045 C 
ATOM     22  C   UNL     1      39.369 -22.683 -36.547  0.00  0.00    -0.082 C 
ATOM     23  C   UNL     1      38.698 -22.397 -35.247  0.00  0.00    -0.031 C 
ATOM     24  C   UNL     1      38.941 -20.977 -34.679  0.00  0.00    -0.027 C 
ATOM     25  C   UNL     1      38.357 -20.811 -33.210  0.00  0.00    -0.031 C 
ATOM     26  C   UNL     1      37.715 -19.410 -33.046  0.00  0.00    -0.060 C 
ATOM     27  C   UNL     1      37.210 -21.808 -32.902  0.00  0.00    -0.060 C 
ATOM     28  C   UNL     1      39.452 -20.989 -32.126  0.00  0.00    -0.048 C 
ATOM     29  C   UNL     1      40.574 -21.921 -32.555  0.00  0.00    -0.052 C 
ATOM     30  C   UNL     1      41.291 -21.488 -33.840  0.00  0.00    -0.047 C 
ATOM     31  C   UNL     1      40.461 -20.601 -34.814  0.00  0.00    -0.022 C 
ATOM     32  C   UNL     1      40.686 -19.100 -34.465  0.00  0.00    -0.059 C 
BRANCH  21  33
ATOM     33  C   UNL     1      40.903 -22.230 -38.472  0.00  0.00    +0.066 C 
BRANCH  33  34
ATOM     34  O   UNL     1      40.300 -23.371 -39.071  0.00  0.00    -0.391 OA
ATOM     35  H   UNL     1      40.206 -24.073 -38.408  0.00  0.00    +0.000 HD
ENDBRANCH  33  34
ENDBRANCH  21  33
ENDBRANCH  19  20
ENDBRANCH   1  19
TORSDOF 13
ENDMDL
MODEL 9
REMARK VINA RESULT:    -6.022      2.695      6.387
REMARK INTER + INTRA:         -12.248
REMARK INTER:                 -10.009
REMARK INTRA:                  -2.239
REMARK UNBOUND:                -1.827
REMARK  Name = cpd289.pdb
REMARK  17 active torsions:
REMARK  status: ('A' for Active; 'I' for Inactive)
REMARK    1  A    between atoms: C_1  and  C_2
REMARK    2  A    between atoms: C_2  and  C_3
REMARK    3  A    between atoms: C_2  and  C_20
REMARK    4  A    between atoms: C_3  and  C_4
REMARK    5  A    between atoms: C_4  and  C_5
REMARK    6  A    between atoms: C_6  and  C_7
REMARK    7  A    between atoms: C_7  and  O_8
REMARK    8  A    between atoms: C_12  and  C_13
REMARK    9  A    between atoms: C_12  and  C_14
REMARK   10  A    between atoms: C_18  and  C_19
REMARK   11  A    between atoms: C_20  and  C_21
REMARK   12  A    between atoms: C_21  and  O_23
REMARK   13  A    between atoms: O_23  and  C_24
REMARK   14  A    between atoms: C_24  and  C_25
REMARK   15  A    between atoms: C_25  and  C_26
REMARK   16  A    between atoms: C_26  and  C_27
REMARK   17  A    between atoms: C_27  and  N_28
REMARK                            x       y       z     vdW  Elec       q    Type
REMARK                         _______ _______ _______ _____ _____    ______ ____
ROOT
ATOM      1  C   UNL     1      46.509 -21.041 -38.681  0.00  0.00    -0.049 C 
ENDROOT
BRANCH   1   3
ATOM      2  C   UNL     1      48.078 -22.575 -39.962  0.00  0.00    -0.062 C 
ATOM      3  C   UNL     1      46.657 -21.998 -39.887  0.00  0.00    -0.034 C 
BRANCH   3   4
ATOM      4  C   UNL     1      46.347 -21.266 -41.207  0.00  0.00    +0.048 C 
BRANCH   4   5
ATOM      5  C   UNL     1      45.595 -22.142 -42.184  0.00  0.00    +0.307 C 
ATOM      6  O   UNL     1      46.150 -23.081 -42.749  0.00  0.00    -0.251 OA
BRANCH   5   7
ATOM      7  O   UNL     1      44.286 -21.875 -42.417  0.00  0.00    -0.465 OA
BRANCH   7   8
ATOM      8  C   UNL     1      43.526 -20.874 -41.710  0.00  0.00    +0.092 C 
BRANCH   8   9
ATOM      9  C   UNL     1      42.614 -21.513 -40.667  0.00  0.00    -0.017 C 
BRANCH   9  10
ATOM     10  C   UNL     1      42.867 -21.026 -39.236  0.00  0.00    -0.037 C 
BRANCH  10  11
ATOM     11  C   UNL     1      41.747 -20.142 -38.673  0.00  0.00    -0.001 C 
BRANCH  11  12
ATOM     12  N   UNL     1      40.670 -20.935 -38.059  0.00  0.00    -0.298 N 
ATOM     13  C   UNL     1      39.747 -20.110 -37.248  0.00  0.00    +0.022 C 
ATOM     14  C   UNL     1      39.019 -20.937 -36.178  0.00  0.00    +0.060 C 
ATOM     15  O   UNL     1      39.915 -21.492 -35.207  0.00  0.00    -0.377 OA
ATOM     16  C   UNL     1      41.218 -21.769 -35.740  0.00  0.00    +0.060 C 
ATOM     17  C   UNL     1      41.208 -22.054 -37.250  0.00  0.00    +0.022 C 
ATOM     18  H   UNL     1      40.131 -21.325 -38.832  0.00  0.00    +0.000 HD
ENDBRANCH  11  12
ENDBRANCH  10  11
ENDBRANCH   9  10
ENDBRANCH   8   9
ENDBRANCH   7   8
ENDBRANCH   5   7
ENDBRANCH   4   5
ENDBRANCH   3   4
ENDBRANCH   1   3
BRANCH   1  19
ATOM     19  C   UNL     1      47.203 -19.683 -38.905  0.00  0.00    -0.046 C 
BRANCH  19  20
ATOM     20  C   UNL     1      46.477 -18.484 -38.210  0.00  0.00    -0.012 C 
ATOM     21  C   UNL     1      47.265 -17.924 -37.022  0.00  0.00    -0.045 C 
ATOM     22  C   UNL     1      47.346 -16.598 -36.812  0.00  0.00    -0.082 C 
ATOM     23  C   UNL     1      46.684 -15.554 -37.644  0.00  0.00    -0.031 C 
ATOM     24  C   UNL     1      45.551 -16.068 -38.567  0.00  0.00    -0.027 C 
ATOM     25  C   UNL     1      45.025 -14.940 -39.556  0.00  0.00    -0.031 C 
ATOM     26  C   UNL     1      43.484 -15.033 -39.701  0.00  0.00    -0.060 C 
ATOM     27  C   UNL     1      45.284 -13.506 -39.025  0.00  0.00    -0.060 C 
ATOM     28  C   UNL     1      45.668 -15.055 -40.962  0.00  0.00    -0.048 C 
ATOM     29  C   UNL     1      47.063 -15.660 -40.936  0.00  0.00    -0.052 C 
ATOM     30  C   UNL     1      47.129 -17.056 -40.305  0.00  0.00    -0.047 C 
ATOM     31  C   UNL     1      46.003 -17.392 -39.282  0.00  0.00    -0.022 C 
ATOM     32  C   UNL     1      44.805 -18.047 -40.030  0.00  0.00    -0.059 C 
BRANCH  21  33
ATOM     33  C   UNL     1      47.846 -18.928 -36.046  0.00  0.00    +0.066 C 
BRANCH  33  34
ATOM     34  O   UNL     1      46.840 -19.637 -35.333  0.00  0.00    -0.391 OA
ATOM     35  H   UNL     1      46.848 -19.362 -34.402  0.00  0.00    +0.000 HD
ENDBRANCH  33  34
ENDBRANCH  21  33
ENDBRANCH  19  20
ENDBRANCH   1  19
TORSDOF 13
ENDMDL
MODEL 10
REMARK VINA RESULT:    -6.012      2.174      3.756
REMARK INTER + INTRA:         -12.232
REMARK INTER:                 -10.318
REMARK INTRA:                  -1.914
REMARK UNBOUND:                -1.827
REMARK  Name = cpd289.pdb
REMARK  17 active torsions:
REMARK  status: ('A' for Active; 'I' for Inactive)
REMARK    1  A    between atoms: C_1  and  C_2
REMARK    2  A    between atoms: C_2  and  C_3
REMARK    3  A    between atoms: C_2  and  C_20
REMARK    4  A    between atoms: C_3  and  C_4
REMARK    5  A    between atoms: C_4  and  C_5
REMARK    6  A    between atoms: C_6  and  C_7
REMARK    7  A    between atoms: C_7  and  O_8
REMARK    8  A    between atoms: C_12  and  C_13
REMARK    9  A    between atoms: C_12  and  C_14
REMARK   10  A    between atoms: C_18  and  C_19
REMARK   11  A    between atoms: C_20  and  C_21
REMARK   12  A    between atoms: C_21  and  O_23
REMARK   13  A    between atoms: O_23  and  C_24
REMARK   14  A    between atoms: C_24  and  C_25
REMARK   15  A    between atoms: C_25  and  C_26
REMARK   16  A    between atoms: C_26  and  C_27
REMARK   17  A    between atoms: C_27  and  N_28
REMARK                            x       y       z     vdW  Elec       q    Type
REMARK                         _______ _______ _______ _____ _____    ______ ____
ROOT
ATOM      1  C   UNL     1      46.671 -17.037 -35.826  0.00  0.00    -0.049 C 
ENDROOT
BRANCH   1   3
ATOM      2  C   UNL     1      47.956 -18.983 -34.818  0.00  0.00    -0.062 C 
ATOM      3  C   UNL     1      46.832 -17.961 -34.596  0.00  0.00    -0.034 C 
BRANCH   3   4
ATOM      4  C   UNL     1      45.522 -18.717 -34.305  0.00  0.00    +0.048 C 
BRANCH   4   5
ATOM      5  C   UNL     1      44.693 -18.036 -33.238  0.00  0.00    +0.307 C 
ATOM      6  O   UNL     1      45.201 -17.664 -32.183  0.00  0.00    -0.251 OA
BRANCH   5   7
ATOM      7  O   UNL     1      43.374 -17.833 -33.477  0.00  0.00    -0.465 OA
BRANCH   7   8
ATOM      8  C   UNL     1      42.840 -17.370 -34.734  0.00  0.00    +0.092 C 
BRANCH   8   9
ATOM      9  C   UNL     1      41.526 -18.073 -35.064  0.00  0.00    -0.017 C 
BRANCH   9  10
ATOM     10  C   UNL     1      41.703 -19.472 -35.664  0.00  0.00    -0.037 C 
BRANCH  10  11
ATOM     11  C   UNL     1      41.575 -20.608 -34.641  0.00  0.00    -0.001 C 
BRANCH  11  12
ATOM     12  N   UNL     1      40.359 -21.410 -34.851  0.00  0.00    -0.298 N 
ATOM     13  C   UNL     1      39.172 -20.826 -34.189  0.00  0.00    +0.022 C 
ATOM     14  C   UNL     1      38.093 -21.880 -33.901  0.00  0.00    +0.060 C 
ATOM     15  O   UNL     1      38.535 -22.883 -32.977  0.00  0.00    -0.377 OA
ATOM     16  C   UNL     1      39.947 -23.124 -33.045  0.00  0.00    +0.060 C 
ATOM     17  C   UNL     1      40.550 -22.815 -34.424  0.00  0.00    +0.022 C 
ATOM     18  H   UNL     1      40.184 -21.398 -35.856  0.00  0.00    +0.000 HD
ENDBRANCH  11  12
ENDBRANCH  10  11
ENDBRANCH   9  10
ENDBRANCH   8   9
ENDBRANCH   7   8
ENDBRANCH   5   7
ENDBRANCH   4   5
ENDBRANCH   3   4
ENDBRANCH   1   3
BRANCH   1  19
ATOM     19  C   UNL     1      47.267 -17.644 -37.112  0.00  0.00    -0.046 C 
BRANCH  19  20
ATOM     20  C   UNL     1      46.250 -17.725 -38.297  0.00  0.00    -0.012 C 
ATOM     21  C   UNL     1      46.658 -16.853 -39.488  0.00  0.00    -0.045 C 
ATOM     22  C   UNL     1      46.516 -17.297 -40.749  0.00  0.00    -0.082 C 
ATOM     23  C   UNL     1      45.938 -18.614 -41.137  0.00  0.00    -0.031 C 
ATOM     24  C   UNL     1      45.130 -19.331 -40.027  0.00  0.00    -0.027 C 
ATOM     25  C   UNL     1      44.709 -20.805 -40.447  0.00  0.00    -0.031 C 
ATOM     26  C   UNL     1      43.271 -21.112 -39.957  0.00  0.00    -0.060 C 
ATOM     27  C   UNL     1      44.650 -20.998 -41.985  0.00  0.00    -0.060 C 
ATOM     28  C   UNL     1      45.674 -21.872 -39.867  0.00  0.00    -0.048 C 
ATOM     29  C   UNL     1      47.090 -21.355 -39.667  0.00  0.00    -0.052 C 
ATOM     30  C   UNL     1      47.185 -20.128 -38.751  0.00  0.00    -0.047 C 
ATOM     31  C   UNL     1      45.904 -19.246 -38.662  0.00  0.00    -0.022 C 
ATOM     32  C   UNL     1      45.009 -19.753 -37.493  0.00  0.00    -0.059 C 
BRANCH  21  33
ATOM     33  C   UNL     1      47.119 -15.441 -39.182  0.00  0.00    +0.066 C 
BRANCH  33  34
ATOM     34  O   UNL     1      48.463 -15.209 -39.585  0.00  0.00    -0.391 OA
ATOM     35  H   UNL     1      48.482 -14.521 -40.269  0.00  0.00    +0.000 HD
ENDBRANCH  33  34
ENDBRANCH  21  33
ENDBRANCH  19  20
ENDBRANCH   1  19
TORSDOF 13
ENDMDL
MODEL 11
REMARK VINA RESULT:    -5.995      2.180      3.073
REMARK INTER + INTRA:         -12.203
REMARK INTER:                 -10.268
REMARK INTRA:                  -1.934
REMARK UNBOUND:                -1.827
REMARK  Name = cpd289.pdb
REMARK  17 active torsions:
REMARK  status: ('A' for Active; 'I' for Inactive)
REMARK    1  A    between atoms: C_1  and  C_2
REMARK    2  A    between atoms: C_2  and  C_3
REMARK    3  A    between atoms: C_2  and  C_20
REMARK    4  A    between atoms: C_3  and  C_4
REMARK    5  A    between atoms: C_4  and  C_5
REMARK    6  A    between atoms: C_6  and  C_7
REMARK    7  A    between atoms: C_7  and  O_8
REMARK    8  A    between atoms: C_12  and  C_13
REMARK    9  A    between atoms: C_12  and  C_14
REMARK   10  A    between atoms: C_18  and  C_19
REMARK   11  A    between atoms: C_20  and  C_21
REMARK   12  A    between atoms: C_21  and  O_23
REMARK   13  A    between atoms: O_23  and  C_24
REMARK   14  A    between atoms: C_24  and  C_25
REMARK   15  A    between atoms: C_25  and  C_26
REMARK   16  A    between atoms: C_26  and  C_27
REMARK   17  A    between atoms: C_27  and  N_28
REMARK                            x       y       z     vdW  Elec       q    Type
REMARK                         _______ _______ _______ _____ _____    ______ ____
ROOT
ATOM      1  C   UNL     1      46.578 -15.995 -37.019  0.00  0.00    -0.049 C 
ENDROOT
BRANCH   1   3
ATOM      2  C   UNL     1      44.524 -16.369 -35.572  0.00  0.00    -0.062 C 
ATOM      3  C   UNL     1      45.731 -17.035 -36.247  0.00  0.00    -0.034 C 
BRANCH   3   4
ATOM      4  C   UNL     1      46.578 -17.739 -35.170  0.00  0.00    +0.048 C 
BRANCH   4   5
ATOM      5  C   UNL     1      46.031 -19.103 -34.814  0.00  0.00    +0.307 C 
ATOM      6  O   UNL     1      46.413 -20.112 -35.401  0.00  0.00    -0.251 OA
BRANCH   5   7
ATOM      7  O   UNL     1      45.114 -19.192 -33.819  0.00  0.00    -0.465 OA
BRANCH   7   8
ATOM      8  C   UNL     1      43.982 -20.085 -33.838  0.00  0.00    +0.092 C 
BRANCH   8   9
ATOM      9  C   UNL     1      43.038 -19.749 -34.989  0.00  0.00    -0.017 C 
BRANCH   9  10
ATOM     10  C   UNL     1      42.557 -20.972 -35.778  0.00  0.00    -0.037 C 
BRANCH  10  11
ATOM     11  C   UNL     1      41.043 -21.207 -35.698  0.00  0.00    -0.001 C 
BRANCH  11  12
ATOM     12  N   UNL     1      40.707 -22.381 -34.876  0.00  0.00    -0.298 N 
ATOM     13  C   UNL     1      39.368 -22.929 -35.188  0.00  0.00    +0.022 C 
ATOM     14  C   UNL     1      38.780 -23.724 -34.013  0.00  0.00    +0.060 C 
ATOM     15  O   UNL     1      38.549 -22.909 -32.857  0.00  0.00    -0.377 OA
ATOM     16  C   UNL     1      39.466 -21.811 -32.753  0.00  0.00    +0.060 C 
ATOM     17  C   UNL     1      40.819 -22.084 -33.429  0.00  0.00    +0.022 C 
ATOM     18  H   UNL     1      41.393 -23.097 -35.113  0.00  0.00    +0.000 HD
ENDBRANCH  11  12
ENDBRANCH  10  11
ENDBRANCH   9  10
ENDBRANCH   8   9
ENDBRANCH   7   8
ENDBRANCH   5   7
ENDBRANCH   4   5
ENDBRANCH   3   4
ENDBRANCH   1   3
BRANCH   1  19
ATOM     19  C   UNL     1      46.627 -16.271 -38.535  0.00  0.00    -0.046 C 
BRANCH  19  20
ATOM     20  C   UNL     1      45.561 -17.309 -39.018  0.00  0.00    -0.012 C 
ATOM     21  C   UNL     1      44.394 -16.656 -39.764  0.00  0.00    -0.045 C 
ATOM     22  C   UNL     1      43.875 -17.224 -40.866  0.00  0.00    -0.082 C 
ATOM     23  C   UNL     1      44.320 -18.517 -41.457  0.00  0.00    -0.031 C 
ATOM     24  C   UNL     1      45.173 -19.410 -40.522  0.00  0.00    -0.027 C 
ATOM     25  C   UNL     1      45.767 -20.675 -41.278  0.00  0.00    -0.031 C 
ATOM     26  C   UNL     1      45.714 -21.922 -40.358  0.00  0.00    -0.060 C 
ATOM     27  C   UNL     1      44.939 -21.073 -42.528  0.00  0.00    -0.060 C 
ATOM     28  C   UNL     1      47.234 -20.448 -41.728  0.00  0.00    -0.048 C 
ATOM     29  C   UNL     1      47.555 -18.989 -42.011  0.00  0.00    -0.052 C 
ATOM     30  C   UNL     1      47.306 -18.050 -40.824  0.00  0.00    -0.047 C 
ATOM     31  C   UNL     1      46.251 -18.535 -39.785  0.00  0.00    -0.022 C 
ATOM     32  C   UNL     1      46.962 -19.363 -38.676  0.00  0.00    -0.059 C 
BRANCH  21  33
ATOM     33  C   UNL     1      43.789 -15.412 -39.141  0.00  0.00    +0.066 C 
BRANCH  33  34
ATOM     34  O   UNL     1      44.029 -14.245 -39.918  0.00  0.00    -0.391 OA
ATOM     35  H   UNL     1      43.377 -14.193 -40.635  0.00  0.00    +0.000 HD
ENDBRANCH  33  34
ENDBRANCH  21  33
ENDBRANCH  19  20
ENDBRANCH   1  19
TORSDOF 13
ENDMDL
MODEL 12
REMARK VINA RESULT:    -5.926      2.299      5.582
REMARK INTER + INTRA:         -12.082
REMARK INTER:                  -9.914
REMARK INTRA:                  -2.169
REMARK UNBOUND:                -1.827
REMARK  Name = cpd289.pdb
REMARK  17 active torsions:
REMARK  status: ('A' for Active; 'I' for Inactive)
REMARK    1  A    between atoms: C_1  and  C_2
REMARK    2  A    between atoms: C_2  and  C_3
REMARK    3  A    between atoms: C_2  and  C_20
REMARK    4  A    between atoms: C_3  and  C_4
REMARK    5  A    between atoms: C_4  and  C_5
REMARK    6  A    between atoms: C_6  and  C_7
REMARK    7  A    between atoms: C_7  and  O_8
REMARK    8  A    between atoms: C_12  and  C_13
REMARK    9  A    between atoms: C_12  and  C_14
REMARK   10  A    between atoms: C_18  and  C_19
REMARK   11  A    between atoms: C_20  and  C_21
REMARK   12  A    between atoms: C_21  and  O_23
REMARK   13  A    between atoms: O_23  and  C_24
REMARK   14  A    between atoms: C_24  and  C_25
REMARK   15  A    between atoms: C_25  and  C_26
REMARK   16  A    between atoms: C_26  and  C_27
REMARK   17  A    between atoms: C_27  and  N_28
REMARK                            x       y       z     vdW  Elec       q    Type
REMARK                         _______ _______ _______ _____ _____    ______ ____
ROOT
ATOM      1  C   UNL     1      43.401 -21.811 -39.950  0.00  0.00    -0.049 C 
ENDROOT
BRANCH   1   3
ATOM      2  C   UNL     1      41.330 -22.183 -41.376  0.00  0.00    -0.062 C 
ATOM      3  C   UNL     1      41.854 -21.862 -39.968  0.00  0.00    -0.034 C 
BRANCH   3   4
ATOM      4  C   UNL     1      41.257 -20.520 -39.509  0.00  0.00    +0.048 C 
BRANCH   4   5
ATOM      5  C   UNL     1      39.962 -20.699 -38.749  0.00  0.00    +0.307 C 
ATOM      6  O   UNL     1      39.001 -19.962 -38.953  0.00  0.00    -0.251 OA
BRANCH   5   7
ATOM      7  O   UNL     1      39.878 -21.704 -37.842  0.00  0.00    -0.465 OA
BRANCH   7   8
ATOM      8  C   UNL     1      39.855 -21.506 -36.414  0.00  0.00    +0.092 C 
BRANCH   8   9
ATOM      9  C   UNL     1      41.264 -21.288 -35.868  0.00  0.00    -0.017 C 
BRANCH   9  10
ATOM     10  C   UNL     1      41.645 -19.814 -35.700  0.00  0.00    -0.037 C 
BRANCH  10  11
ATOM     11  C   UNL     1      42.769 -19.574 -34.683  0.00  0.00    -0.001 C 
BRANCH  11  12
ATOM     12  N   UNL     1      44.084 -19.442 -35.331  0.00  0.00    -0.298 N 
ATOM     13  C   UNL     1      45.045 -20.474 -34.882  0.00  0.00    +0.022 C 
ATOM     14  C   UNL     1      46.502 -20.028 -35.069  0.00  0.00    +0.060 C 
ATOM     15  O   UNL     1      46.837 -18.887 -34.269  0.00  0.00    -0.377 OA
ATOM     16  C   UNL     1      45.718 -18.022 -34.032  0.00  0.00    +0.060 C 
ATOM     17  C   UNL     1      44.654 -18.088 -35.139  0.00  0.00    +0.022 C 
ATOM     18  H   UNL     1      43.923 -19.587 -36.327  0.00  0.00    +0.000 HD
ENDBRANCH  11  12
ENDBRANCH  10  11
ENDBRANCH   9  10
ENDBRANCH   8   9
ENDBRANCH   7   8
ENDBRANCH   5   7
ENDBRANCH   4   5
ENDBRANCH   3   4
ENDBRANCH   1   3
BRANCH   1  19
ATOM     19  C   UNL     1      43.978 -20.825 -40.984  0.00  0.00    -0.046 C 
BRANCH  19  20
ATOM     20  C   UNL     1      45.340 -20.188 -40.552  0.00  0.00    -0.012 C 
ATOM     21  C   UNL     1      46.480 -20.514 -41.520  0.00  0.00    -0.045 C 
ATOM     22  C   UNL     1      47.383 -19.579 -41.864  0.00  0.00    -0.082 C 
ATOM     23  C   UNL     1      47.413 -18.182 -41.345  0.00  0.00    -0.031 C 
ATOM     24  C   UNL     1      46.572 -17.936 -40.068  0.00  0.00    -0.027 C 
ATOM     25  C   UNL     1      46.498 -16.395 -39.685  0.00  0.00    -0.031 C 
ATOM     26  C   UNL     1      46.593 -16.220 -38.148  0.00  0.00    -0.060 C 
ATOM     27  C   UNL     1      47.690 -15.578 -40.249  0.00  0.00    -0.060 C 
ATOM     28  C   UNL     1      45.186 -15.735 -40.184  0.00  0.00    -0.048 C 
ATOM     29  C   UNL     1      44.627 -16.386 -41.439  0.00  0.00    -0.052 C 
ATOM     30  C   UNL     1      44.339 -17.885 -41.292  0.00  0.00    -0.047 C 
ATOM     31  C   UNL     1      45.171 -18.633 -40.207  0.00  0.00    -0.022 C 
ATOM     32  C   UNL     1      44.404 -18.595 -38.853  0.00  0.00    -0.059 C 
BRANCH  21  33
ATOM     33  C   UNL     1      46.604 -21.955 -41.979  0.00  0.00    +0.066 C 
BRANCH  33  34
ATOM     34  O   UNL     1      46.845 -22.849 -40.899  0.00  0.00    -0.391 OA
ATOM     35  H   UNL     1      47.377 -22.402 -40.222  0.00  0.00    +0.000 HD
ENDBRANCH  33  34
ENDBRANCH  21  33
ENDBRANCH  19  20
ENDBRANCH   1  19
TORSDOF 13
ENDMDL
MODEL 13
REMARK VINA RESULT:    -5.868      2.938      9.348
REMARK INTER + INTRA:         -11.983
REMARK INTER:                 -10.348
REMARK INTRA:                  -1.635
REMARK UNBOUND:                -1.827
REMARK  Name = cpd289.pdb
REMARK  17 active torsions:
REMARK  status: ('A' for Active; 'I' for Inactive)
REMARK    1  A    between atoms: C_1  and  C_2
REMARK    2  A    between atoms: C_2  and  C_3
REMARK    3  A    between atoms: C_2  and  C_20
REMARK    4  A    between atoms: C_3  and  C_4
REMARK    5  A    between atoms: C_4  and  C_5
REMARK    6  A    between atoms: C_6  and  C_7
REMARK    7  A    between atoms: C_7  and  O_8
REMARK    8  A    between atoms: C_12  and  C_13
REMARK    9  A    between atoms: C_12  and  C_14
REMARK   10  A    between atoms: C_18  and  C_19
REMARK   11  A    between atoms: C_20  and  C_21
REMARK   12  A    between atoms: C_21  and  O_23
REMARK   13  A    between atoms: O_23  and  C_24
REMARK   14  A    between atoms: C_24  and  C_25
REMARK   15  A    between atoms: C_25  and  C_26
REMARK   16  A    between atoms: C_26  and  C_27
REMARK   17  A    between atoms: C_27  and  N_28
REMARK                            x       y       z     vdW  Elec       q    Type
REMARK                         _______ _______ _______ _____ _____    ______ ____
ROOT
ATOM      1  C   UNL     1      40.984 -22.243 -36.048  0.00  0.00    -0.049 C 
ENDROOT
BRANCH   1   3
ATOM      2  C   UNL     1      42.681 -20.462 -35.411  0.00  0.00    -0.062 C 
ATOM      3  C   UNL     1      42.193 -21.402 -36.523  0.00  0.00    -0.034 C 
BRANCH   3   4
ATOM      4  C   UNL     1      41.822 -20.561 -37.759  0.00  0.00    +0.048 C 
BRANCH   4   5
ATOM      5  C   UNL     1      41.768 -21.392 -39.021  0.00  0.00    +0.307 C 
ATOM      6  O   UNL     1      40.696 -21.651 -39.563  0.00  0.00    -0.251 OA
BRANCH   5   7
ATOM      7  O   UNL     1      42.933 -21.838 -39.552  0.00  0.00    -0.465 OA
BRANCH   7   8
ATOM      8  C   UNL     1      44.184 -21.125 -39.475  0.00  0.00    +0.092 C 
BRANCH   8   9
ATOM      9  C   UNL     1      45.084 -21.467 -40.659  0.00  0.00    -0.017 C 
BRANCH   9  10
ATOM     10  C   UNL     1      46.528 -20.977 -40.506  0.00  0.00    -0.037 C 
BRANCH  10  11
ATOM     11  C   UNL     1      47.012 -20.914 -39.051  0.00  0.00    -0.001 C 
BRANCH  11  12
ATOM     12  N   UNL     1      47.511 -19.577 -38.690  0.00  0.00    -0.298 N 
ATOM     13  C   UNL     1      47.359 -19.284 -37.248  0.00  0.00    +0.022 C 
ATOM     14  C   UNL     1      47.315 -17.775 -36.966  0.00  0.00    +0.060 C 
ATOM     15  O   UNL     1      46.178 -17.136 -37.560  0.00  0.00    -0.377 OA
ATOM     16  C   UNL     1      45.742 -17.778 -38.767  0.00  0.00    +0.060 C 
ATOM     17  C   UNL     1      46.870 -18.517 -39.503  0.00  0.00    +0.022 C 
ATOM     18  H   UNL     1      48.509 -19.584 -38.897  0.00  0.00    +0.000 HD
ENDBRANCH  11  12
ENDBRANCH  10  11
ENDBRANCH   9  10
ENDBRANCH   8   9
ENDBRANCH   7   8
ENDBRANCH   5   7
ENDBRANCH   4   5
ENDBRANCH   3   4
ENDBRANCH   1   3
BRANCH   1  19
ATOM     19  C   UNL     1      40.503 -21.854 -34.636  0.00  0.00    -0.046 C 
BRANCH  19  20
ATOM     20  C   UNL     1      38.976 -21.524 -34.562  0.00  0.00    -0.012 C 
ATOM     21  C   UNL     1      38.207 -22.482 -33.648  0.00  0.00    -0.045 C 
ATOM     22  C   UNL     1      37.248 -22.028 -32.823  0.00  0.00    -0.082 C 
ATOM     23  C   UNL     1      36.803 -20.609 -32.720  0.00  0.00    -0.031 C 
ATOM     24  C   UNL     1      37.228 -19.699 -33.900  0.00  0.00    -0.027 C 
ATOM     25  C   UNL     1      36.887 -18.170 -33.632  0.00  0.00    -0.031 C 
ATOM     26  C   UNL     1      36.375 -17.500 -34.932  0.00  0.00    -0.060 C 
ATOM     27  C   UNL     1      35.733 -17.981 -32.612  0.00  0.00    -0.060 C 
ATOM     28  C   UNL     1      38.118 -17.382 -33.114  0.00  0.00    -0.048 C 
ATOM     29  C   UNL     1      39.095 -18.244 -32.330  0.00  0.00    -0.052 C 
ATOM     30  C   UNL     1      39.637 -19.447 -33.113  0.00  0.00    -0.047 C 
ATOM     31  C   UNL     1      38.732 -19.968 -34.268  0.00  0.00    -0.022 C 
ATOM     32  C   UNL     1      39.110 -19.238 -35.590  0.00  0.00    -0.059 C 
BRANCH  21  33
ATOM     33  C   UNL     1      38.499 -23.963 -33.799  0.00  0.00    +0.066 C 
BRANCH  33  34
ATOM     34  O   UNL     1      37.714 -24.763 -32.923  0.00  0.00    -0.391 OA
ATOM     35  H   UNL     1      38.155 -24.826 -32.061  0.00  0.00    +0.000 HD
ENDBRANCH  33  34
ENDBRANCH  21  33
ENDBRANCH  19  20
ENDBRANCH   1  19
TORSDOF 13
ENDMDL
MODEL 14
REMARK VINA RESULT:    -5.842      2.147      4.146
REMARK INTER + INTRA:         -11.938
REMARK INTER:                  -9.725
REMARK INTRA:                  -2.213
REMARK UNBOUND:                -1.827
REMARK  Name = cpd289.pdb
REMARK  17 active torsions:
REMARK  status: ('A' for Active; 'I' for Inactive)
REMARK    1  A    between atoms: C_1  and  C_2
REMARK    2  A    between atoms: C_2  and  C_3
REMARK    3  A    between atoms: C_2  and  C_20
REMARK    4  A    between atoms: C_3  and  C_4
REMARK    5  A    between atoms: C_4  and  C_5
REMARK    6  A    between atoms: C_6  and  C_7
REMARK    7  A    between atoms: C_7  and  O_8
REMARK    8  A    between atoms: C_12  and  C_13
REMARK    9  A    between atoms: C_12  and  C_14
REMARK   10  A    between atoms: C_18  and  C_19
REMARK   11  A    between atoms: C_20  and  C_21
REMARK   12  A    between atoms: C_21  and  O_23
REMARK   13  A    between atoms: O_23  and  C_24
REMARK   14  A    between atoms: C_24  and  C_25
REMARK   15  A    between atoms: C_25  and  C_26
REMARK   16  A    between atoms: C_26  and  C_27
REMARK   17  A    between atoms: C_27  and  N_28
REMARK                            x       y       z     vdW  Elec       q    Type
REMARK                         _______ _______ _______ _____ _____    ______ ____
ROOT
ATOM      1  C   UNL     1      45.229 -17.920 -35.693  0.00  0.00    -0.049 C 
ENDROOT
BRANCH   1   3
ATOM      2  C   UNL     1      45.504 -20.261 -34.743  0.00  0.00    -0.062 C 
ATOM      3  C   UNL     1      45.266 -18.781 -34.408  0.00  0.00    -0.034 C 
BRANCH   3   4
ATOM      4  C   UNL     1      43.945 -18.655 -33.627  0.00  0.00    +0.048 C 
BRANCH   4   5
ATOM      5  C   UNL     1      42.852 -19.526 -34.205  0.00  0.00    +0.307 C 
ATOM      6  O   UNL     1      42.299 -19.231 -35.261  0.00  0.00    -0.251 OA
BRANCH   5   7
ATOM      7  O   UNL     1      42.502 -20.652 -33.536  0.00  0.00    -0.465 OA
BRANCH   7   8
ATOM      8  C   UNL     1      41.207 -20.870 -32.939  0.00  0.00    +0.092 C 
BRANCH   8   9
ATOM      9  C   UNL     1      40.750 -22.314 -33.132  0.00  0.00    -0.017 C 
BRANCH   9  10
ATOM     10  C   UNL     1      40.511 -22.700 -34.596  0.00  0.00    -0.037 C 
BRANCH  10  11
ATOM     11  C   UNL     1      39.710 -21.660 -35.390  0.00  0.00    -0.001 C 
BRANCH  11  12
ATOM     12  N   UNL     1      40.501 -21.067 -36.481  0.00  0.00    -0.298 N 
ATOM     13  C   UNL     1      39.683 -20.228 -37.385  0.00  0.00    +0.022 C 
ATOM     14  C   UNL     1      40.312 -20.096 -38.779  0.00  0.00    +0.060 C 
ATOM     15  O   UNL     1      40.395 -21.350 -39.468  0.00  0.00    -0.377 OA
ATOM     16  C   UNL     1      40.546 -22.467 -38.581  0.00  0.00    +0.060 C 
ATOM     17  C   UNL     1      41.228 -22.101 -37.254  0.00  0.00    +0.022 C 
ATOM     18  H   UNL     1      41.185 -20.457 -36.034  0.00  0.00    +0.000 HD
ENDBRANCH  11  12
ENDBRANCH  10  11
ENDBRANCH   9  10
ENDBRANCH   8   9
ENDBRANCH   7   8
ENDBRANCH   5   7
ENDBRANCH   4   5
ENDBRANCH   3   4
ENDBRANCH   1   3
BRANCH   1  19
ATOM     19  C   UNL     1      46.326 -18.307 -36.703  0.00  0.00    -0.046 C 
BRANCH  19  20
ATOM     20  C   UNL     1      45.872 -18.196 -38.196  0.00  0.00    -0.012 C 
ATOM     21  C   UNL     1      46.802 -17.315 -39.034  0.00  0.00    -0.045 C 
ATOM     22  C   UNL     1      47.142 -17.667 -40.287  0.00  0.00    -0.082 C 
ATOM     23  C   UNL     1      46.654 -18.880 -41.001  0.00  0.00    -0.031 C 
ATOM     24  C   UNL     1      45.405 -19.553 -40.379  0.00  0.00    -0.027 C 
ATOM     25  C   UNL     1      45.059 -20.938 -41.077  0.00  0.00    -0.031 C 
ATOM     26  C   UNL     1      43.524 -21.093 -41.228  0.00  0.00    -0.060 C 
ATOM     27  C   UNL     1      45.608 -21.036 -42.525  0.00  0.00    -0.060 C 
ATOM     28  C   UNL     1      45.607 -22.146 -40.274  0.00  0.00    -0.048 C 
ATOM     29  C   UNL     1      46.862 -21.819 -39.481  0.00  0.00    -0.052 C 
ATOM     30  C   UNL     1      46.690 -20.666 -38.483  0.00  0.00    -0.047 C 
ATOM     31  C   UNL     1      45.567 -19.640 -38.819  0.00  0.00    -0.022 C 
ATOM     32  C   UNL     1      44.234 -20.098 -38.156  0.00  0.00    -0.059 C 
BRANCH  21  33
ATOM     33  C   UNL     1      47.225 -15.990 -38.431  0.00  0.00    +0.066 C 
BRANCH  33  34
ATOM     34  O   UNL     1      47.097 -14.910 -39.348  0.00  0.00    -0.391 OA
ATOM     35  H   UNL     1      47.292 -15.223 -40.246  0.00  0.00    +0.000 HD
ENDBRANCH  33  34
ENDBRANCH  21  33
ENDBRANCH  19  20
ENDBRANCH   1  19
TORSDOF 13
ENDMDL
MODEL 15
REMARK VINA RESULT:    -5.837      3.308      9.763
REMARK INTER + INTRA:         -11.930
REMARK INTER:                 -10.927
REMARK INTRA:                  -1.002
REMARK UNBOUND:                -1.827
REMARK  Name = cpd289.pdb
REMARK  17 active torsions:
REMARK  status: ('A' for Active; 'I' for Inactive)
REMARK    1  A    between atoms: C_1  and  C_2
REMARK    2  A    between atoms: C_2  and  C_3
REMARK    3  A    between atoms: C_2  and  C_20
REMARK    4  A    between atoms: C_3  and  C_4
REMARK    5  A    between atoms: C_4  and  C_5
REMARK    6  A    between atoms: C_6  and  C_7
REMARK    7  A    between atoms: C_7  and  O_8
REMARK    8  A    between atoms: C_12  and  C_13
REMARK    9  A    between atoms: C_12  and  C_14
REMARK   10  A    between atoms: C_18  and  C_19
REMARK   11  A    between atoms: C_20  and  C_21
REMARK   12  A    between atoms: C_21  and  O_23
REMARK   13  A    between atoms: O_23  and  C_24
REMARK   14  A    between atoms: C_24  and  C_25
REMARK   15  A    between atoms: C_25  and  C_26
REMARK   16  A    between atoms: C_26  and  C_27
REMARK   17  A    between atoms: C_27  and  N_28
REMARK                            x       y       z     vdW  Elec       q    Type
REMARK                         _______ _______ _______ _____ _____    ______ ____
ROOT
ATOM      1  C   UNL     1      40.795 -22.130 -36.085  0.00  0.00    -0.049 C 
ENDROOT
BRANCH   1   3
ATOM      2  C   UNL     1      39.673 -21.451 -38.261  0.00  0.00    -0.062 C 
ATOM      3  C   UNL     1      40.920 -21.292 -37.379  0.00  0.00    -0.034 C 
BRANCH   3   4
ATOM      4  C   UNL     1      42.159 -21.718 -38.189  0.00  0.00    +0.048 C 
BRANCH   4   5
ATOM      5  C   UNL     1      42.183 -21.098 -39.567  0.00  0.00    +0.307 C 
ATOM      6  O   UNL     1      41.939 -21.767 -40.568  0.00  0.00    -0.251 OA
BRANCH   5   7
ATOM      7  O   UNL     1      42.470 -19.777 -39.677  0.00  0.00    -0.465 OA
BRANCH   7   8
ATOM      8  C   UNL     1      43.649 -19.156 -39.125  0.00  0.00    +0.092 C 
BRANCH   8   9
ATOM      9  C   UNL     1      44.817 -19.228 -40.105  0.00  0.00    -0.017 C 
BRANCH   9  10
ATOM     10  C   UNL     1      46.190 -19.324 -39.431  0.00  0.00    -0.037 C 
BRANCH  10  11
ATOM     11  C   UNL     1      46.886 -20.677 -39.627  0.00  0.00    -0.001 C 
BRANCH  11  12
ATOM     12  N   UNL     1      46.924 -21.081 -41.041  0.00  0.00    -0.298 N 
ATOM     13  C   UNL     1      45.960 -22.160 -41.351  0.00  0.00    +0.022 C 
ATOM     14  C   UNL     1      46.372 -22.966 -42.592  0.00  0.00    +0.060 C 
ATOM     15  O   UNL     1      47.610 -23.664 -42.409  0.00  0.00    -0.377 OA
ATOM     16  C   UNL     1      48.503 -22.995 -41.508  0.00  0.00    +0.060 C 
ATOM     17  C   UNL     1      48.290 -21.474 -41.460  0.00  0.00    +0.022 C 
ATOM     18  H   UNL     1      46.646 -20.260 -41.578  0.00  0.00    +0.000 HD
ENDBRANCH  11  12
ENDBRANCH  10  11
ENDBRANCH   9  10
ENDBRANCH   8   9
ENDBRANCH   7   8
ENDBRANCH   5   7
ENDBRANCH   4   5
ENDBRANCH   3   4
ENDBRANCH   1   3
BRANCH   1  19
ATOM     19  C   UNL     1      40.335 -21.295 -34.874  0.00  0.00    -0.046 C 
BRANCH  19  20
ATOM     20  C   UNL     1      38.780 -21.197 -34.734  0.00  0.00    -0.012 C 
ATOM     21  C   UNL     1      38.205 -22.237 -33.768  0.00  0.00    -0.045 C 
ATOM     22  C   UNL     1      37.226 -21.912 -32.907  0.00  0.00    -0.082 C 
ATOM     23  C   UNL     1      36.577 -20.574 -32.808  0.00  0.00    -0.031 C 
ATOM     24  C   UNL     1      36.807 -19.640 -34.022  0.00  0.00    -0.027 C 
ATOM     25  C   UNL     1      36.250 -18.173 -33.765  0.00  0.00    -0.031 C 
ATOM     26  C   UNL     1      35.587 -17.620 -35.052  0.00  0.00    -0.060 C 
ATOM     27  C   UNL     1      35.127 -18.135 -32.696  0.00  0.00    -0.060 C 
ATOM     28  C   UNL     1      37.369 -17.197 -33.319  0.00  0.00    -0.048 C 
ATOM     29  C   UNL     1      38.499 -17.883 -32.568  0.00  0.00    -0.052 C 
ATOM     30  C   UNL     1      39.182 -19.009 -33.354  0.00  0.00    -0.047 C 
ATOM     31  C   UNL     1      38.316 -19.689 -34.456  0.00  0.00    -0.022 C 
ATOM     32  C   UNL     1      38.521 -18.942 -35.807  0.00  0.00    -0.059 C 
BRANCH  21  33
ATOM     33  C   UNL     1      38.712 -23.660 -33.907  0.00  0.00    +0.066 C 
BRANCH  33  34
ATOM     34  O   UNL     1      39.525 -24.055 -32.809  0.00  0.00    -0.391 OA
ATOM     35  H   UNL     1      38.960 -24.345 -32.075  0.00  0.00    +0.000 HD
ENDBRANCH  33  34
ENDBRANCH  21  33
ENDBRANCH  19  20
ENDBRANCH   1  19
TORSDOF 13
ENDMDL
MODEL 16
REMARK VINA RESULT:    -5.831      2.038      5.070
REMARK INTER + INTRA:         -11.919
REMARK INTER:                  -9.581
REMARK INTRA:                  -2.338
REMARK UNBOUND:                -1.827
REMARK  Name = cpd289.pdb
REMARK  17 active torsions:
REMARK  status: ('A' for Active; 'I' for Inactive)
REMARK    1  A    between atoms: C_1  and  C_2
REMARK    2  A    between atoms: C_2  and  C_3
REMARK    3  A    between atoms: C_2  and  C_20
REMARK    4  A    between atoms: C_3  and  C_4
REMARK    5  A    between atoms: C_4  and  C_5
REMARK    6  A    between atoms: C_6  and  C_7
REMARK    7  A    between atoms: C_7  and  O_8
REMARK    8  A    between atoms: C_12  and  C_13
REMARK    9  A    between atoms: C_12  and  C_14
REMARK   10  A    between atoms: C_18  and  C_19
REMARK   11  A    between atoms: C_20  and  C_21
REMARK   12  A    between atoms: C_21  and  O_23
REMARK   13  A    between atoms: O_23  and  C_24
REMARK   14  A    between atoms: C_24  and  C_25
REMARK   15  A    between atoms: C_25  and  C_26
REMARK   16  A    between atoms: C_26  and  C_27
REMARK   17  A    between atoms: C_27  and  N_28
REMARK                            x       y       z     vdW  Elec       q    Type
REMARK                         _______ _______ _______ _____ _____    ______ ____
ROOT
ATOM      1  C   UNL     1      41.601 -20.700 -36.280  0.00  0.00    -0.049 C 
ENDROOT
BRANCH   1   3
ATOM      2  C   UNL     1      40.308 -21.643 -38.254  0.00  0.00    -0.062 C 
ATOM      3  C   UNL     1      40.620 -21.798 -36.758  0.00  0.00    -0.034 C 
BRANCH   3   4
ATOM      4  C   UNL     1      39.302 -21.737 -35.965  0.00  0.00    +0.048 C 
BRANCH   4   5
ATOM      5  C   UNL     1      39.206 -22.835 -34.930  0.00  0.00    +0.307 C 
ATOM      6  O   UNL     1      38.967 -23.995 -35.257  0.00  0.00    -0.251 OA
BRANCH   5   7
ATOM      7  O   UNL     1      39.400 -22.514 -33.627  0.00  0.00    -0.465 OA
BRANCH   7   8
ATOM      8  C   UNL     1      40.696 -22.423 -33.000  0.00  0.00    +0.092 C 
BRANCH   8   9
ATOM      9  C   UNL     1      41.021 -20.981 -32.620  0.00  0.00    -0.017 C 
BRANCH   9  10
ATOM     10  C   UNL     1      39.825 -20.028 -32.712  0.00  0.00    -0.037 C 
BRANCH  10  11
ATOM     11  C   UNL     1      40.038 -18.689 -31.993  0.00  0.00    -0.001 C 
BRANCH  11  12
ATOM     12  N   UNL     1      40.079 -17.556 -32.931  0.00  0.00    -0.298 N 
ATOM     13  C   UNL     1      39.590 -17.917 -34.281  0.00  0.00    +0.022 C 
ATOM     14  C   UNL     1      40.148 -16.986 -35.367  0.00  0.00    +0.060 C 
ATOM     15  O   UNL     1      41.573 -17.077 -35.491  0.00  0.00    -0.377 OA
ATOM     16  C   UNL     1      42.223 -17.412 -34.257  0.00  0.00    +0.060 C 
ATOM     17  C   UNL     1      41.435 -16.965 -33.015  0.00  0.00    +0.022 C 
ATOM     18  H   UNL     1      39.443 -16.854 -32.554  0.00  0.00    +0.000 HD
ENDBRANCH  11  12
ENDBRANCH  10  11
ENDBRANCH   9  10
ENDBRANCH   8   9
ENDBRANCH   7   8
ENDBRANCH   5   7
ENDBRANCH   4   5
ENDBRANCH   3   4
ENDBRANCH   1   3
BRANCH   1  19
ATOM     19  C   UNL     1      43.071 -21.030 -36.603  0.00  0.00    -0.046 C 
BRANCH  19  20
ATOM     20  C   UNL     1      43.948 -19.767 -36.895  0.00  0.00    -0.012 C 
ATOM     21  C   UNL     1      45.179 -19.680 -35.990  0.00  0.00    -0.045 C 
ATOM     22  C   UNL     1      46.370 -19.292 -36.480  0.00  0.00    -0.082 C 
ATOM     23  C   UNL     1      46.627 -18.882 -37.889  0.00  0.00    -0.031 C 
ATOM     24  C   UNL     1      45.363 -18.540 -38.716  0.00  0.00    -0.027 C 
ATOM     25  C   UNL     1      45.697 -18.298 -40.251  0.00  0.00    -0.031 C 
ATOM     26  C   UNL     1      44.853 -17.122 -40.804  0.00  0.00    -0.060 C 
ATOM     27  C   UNL     1      47.169 -17.870 -40.486  0.00  0.00    -0.060 C 
ATOM     28  C   UNL     1      45.422 -19.559 -41.111  0.00  0.00    -0.048 C 
ATOM     29  C   UNL     1      45.589 -20.859 -40.340  0.00  0.00    -0.052 C 
ATOM     30  C   UNL     1      44.698 -20.969 -39.097  0.00  0.00    -0.047 C 
ATOM     31  C   UNL     1      44.249 -19.619 -38.462  0.00  0.00    -0.022 C 
ATOM     32  C   UNL     1      42.900 -19.173 -39.097  0.00  0.00    -0.059 C 
BRANCH  21  33
ATOM     33  C   UNL     1      44.967 -19.941 -34.511  0.00  0.00    +0.066 C 
BRANCH  33  34
ATOM     34  O   UNL     1      45.651 -21.105 -34.062  0.00  0.00    -0.391 OA
ATOM     35  H   UNL     1      45.052 -21.643 -33.520  0.00  0.00    +0.000 HD
ENDBRANCH  33  34
ENDBRANCH  21  33
ENDBRANCH  19  20
ENDBRANCH   1  19
TORSDOF 13
ENDMDL
MODEL 17
REMARK VINA RESULT:    -5.830      3.035      7.993
REMARK INTER + INTRA:         -11.917
REMARK INTER:                  -9.818
REMARK INTRA:                  -2.099
REMARK UNBOUND:                -1.827
REMARK  Name = cpd289.pdb
REMARK  17 active torsions:
REMARK  status: ('A' for Active; 'I' for Inactive)
REMARK    1  A    between atoms: C_1  and  C_2
REMARK    2  A    between atoms: C_2  and  C_3
REMARK    3  A    between atoms: C_2  and  C_20
REMARK    4  A    between atoms: C_3  and  C_4
REMARK    5  A    between atoms: C_4  and  C_5
REMARK    6  A    between atoms: C_6  and  C_7
REMARK    7  A    between atoms: C_7  and  O_8
REMARK    8  A    between atoms: C_12  and  C_13
REMARK    9  A    between atoms: C_12  and  C_14
REMARK   10  A    between atoms: C_18  and  C_19
REMARK   11  A    between atoms: C_20  and  C_21
REMARK   12  A    between atoms: C_21  and  O_23
REMARK   13  A    between atoms: O_23  and  C_24
REMARK   14  A    between atoms: C_24  and  C_25
REMARK   15  A    between atoms: C_25  and  C_26
REMARK   16  A    between atoms: C_26  and  C_27
REMARK   17  A    between atoms: C_27  and  N_28
REMARK                            x       y       z     vdW  Elec       q    Type
REMARK                         _______ _______ _______ _____ _____    ______ ____
ROOT
ATOM      1  C   UNL     1      42.675 -19.184 -38.671  0.00  0.00    -0.049 C 
ENDROOT
BRANCH   1   3
ATOM      2  C   UNL     1      41.490 -16.947 -38.454  0.00  0.00    -0.062 C 
ATOM      3  C   UNL     1      42.833 -17.645 -38.715  0.00  0.00    -0.034 C 
BRANCH   3   4
ATOM      4  C   UNL     1      43.374 -17.189 -40.082  0.00  0.00    +0.048 C 
BRANCH   4   5
ATOM      5  C   UNL     1      44.857 -17.448 -40.226  0.00  0.00    +0.307 C 
ATOM      6  O   UNL     1      45.294 -18.129 -41.150  0.00  0.00    -0.251 OA
BRANCH   5   7
ATOM      7  O   UNL     1      45.700 -16.900 -39.316  0.00  0.00    -0.465 OA
BRANCH   7   8
ATOM      8  C   UNL     1      46.852 -17.575 -38.771  0.00  0.00    +0.092 C 
BRANCH   8   9
ATOM      9  C   UNL     1      46.433 -18.716 -37.847  0.00  0.00    -0.017 C 
BRANCH   9  10
ATOM     10  C   UNL     1      46.988 -20.084 -38.257  0.00  0.00    -0.037 C 
BRANCH  10  11
ATOM     11  C   UNL     1      45.956 -20.996 -38.933  0.00  0.00    -0.001 C 
BRANCH  11  12
ATOM     12  N   UNL     1      46.068 -20.968 -40.400  0.00  0.00    -0.298 N 
ATOM     13  C   UNL     1      44.920 -21.618 -41.071  0.00  0.00    +0.022 C 
ATOM     14  C   UNL     1      45.276 -22.108 -42.483  0.00  0.00    +0.060 C 
ATOM     15  O   UNL     1      46.281 -23.129 -42.474  0.00  0.00    -0.377 OA
ATOM     16  C   UNL     1      47.193 -23.009 -41.373  0.00  0.00    +0.060 C 
ATOM     17  C   UNL     1      47.342 -21.567 -40.863  0.00  0.00    +0.022 C 
ATOM     18  H   UNL     1      46.059 -19.983 -40.665  0.00  0.00    +0.000 HD
ENDBRANCH  11  12
ENDBRANCH  10  11
ENDBRANCH   9  10
ENDBRANCH   8   9
ENDBRANCH   7   8
ENDBRANCH   5   7
ENDBRANCH   4   5
ENDBRANCH   3   4
ENDBRANCH   1   3
BRANCH   1  19
ATOM     19  C   UNL     1      42.558 -19.733 -37.236  0.00  0.00    -0.046 C 
BRANCH  19  20
ATOM     20  C   UNL     1      41.098 -20.119 -36.829  0.00  0.00    -0.012 C 
ATOM     21  C   UNL     1      40.710 -21.528 -37.284  0.00  0.00    -0.045 C 
ATOM     22  C   UNL     1      40.000 -22.341 -36.482  0.00  0.00    -0.082 C 
ATOM     23  C   UNL     1      39.493 -21.983 -35.127  0.00  0.00    -0.031 C 
ATOM     24  C   UNL     1      39.479 -20.468 -34.809  0.00  0.00    -0.027 C 
ATOM     25  C   UNL     1      39.109 -20.177 -33.290  0.00  0.00    -0.031 C 
ATOM     26  C   UNL     1      38.187 -18.934 -33.193  0.00  0.00    -0.060 C 
ATOM     27  C   UNL     1      38.293 -21.324 -32.640  0.00  0.00    -0.060 C 
ATOM     28  C   UNL     1      40.370 -19.933 -32.422  0.00  0.00    -0.048 C 
ATOM     29  C   UNL     1      41.600 -20.669 -32.930  0.00  0.00    -0.052 C 
ATOM     30  C   UNL     1      41.984 -20.322 -34.374  0.00  0.00    -0.047 C 
ATOM     31  C   UNL     1      40.826 -19.810 -35.281  0.00  0.00    -0.022 C 
ATOM     32  C   UNL     1      40.741 -18.258 -35.182  0.00  0.00    -0.059 C 
BRANCH  21  33
ATOM     33  C   UNL     1      41.064 -21.915 -38.707  0.00  0.00    +0.066 C 
BRANCH  33  34
ATOM     34  O   UNL     1      41.524 -23.258 -38.806  0.00  0.00    -0.391 OA
ATOM     35  H   UNL     1      42.475 -23.289 -38.613  0.00  0.00    +0.000 HD
ENDBRANCH  33  34
ENDBRANCH  21  33
ENDBRANCH  19  20
ENDBRANCH   1  19
TORSDOF 13
ENDMDL
MODEL 18
REMARK VINA RESULT:    -5.719      2.762      8.071
REMARK INTER + INTRA:         -11.725
REMARK INTER:                  -9.836
REMARK INTRA:                  -1.889
REMARK UNBOUND:                -1.827
REMARK  Name = cpd289.pdb
REMARK  17 active torsions:
REMARK  status: ('A' for Active; 'I' for Inactive)
REMARK    1  A    between atoms: C_1  and  C_2
REMARK    2  A    between atoms: C_2  and  C_3
REMARK    3  A    between atoms: C_2  and  C_20
REMARK    4  A    between atoms: C_3  and  C_4
REMARK    5  A    between atoms: C_4  and  C_5
REMARK    6  A    between atoms: C_6  and  C_7
REMARK    7  A    between atoms: C_7  and  O_8
REMARK    8  A    between atoms: C_12  and  C_13
REMARK    9  A    between atoms: C_12  and  C_14
REMARK   10  A    between atoms: C_18  and  C_19
REMARK   11  A    between atoms: C_20  and  C_21
REMARK   12  A    between atoms: C_21  and  O_23
REMARK   13  A    between atoms: O_23  and  C_24
REMARK   14  A    between atoms: C_24  and  C_25
REMARK   15  A    between atoms: C_25  and  C_26
REMARK   16  A    between atoms: C_26  and  C_27
REMARK   17  A    between atoms: C_27  and  N_28
REMARK                            x       y       z     vdW  Elec       q    Type
REMARK                         _______ _______ _______ _____ _____    ______ ____
ROOT
ATOM      1  C   UNL     1      41.043 -17.032 -32.790  0.00  0.00    -0.049 C 
ENDROOT
BRANCH   1   3
ATOM      2  C   UNL     1      43.311 -15.890 -32.695  0.00  0.00    -0.062 C 
ATOM      3  C   UNL     1      42.551 -17.156 -33.115  0.00  0.00    -0.034 C 
BRANCH   3   4
ATOM      4  C   UNL     1      42.768 -17.389 -34.622  0.00  0.00    +0.048 C 
BRANCH   4   5
ATOM      5  C   UNL     1      43.699 -18.549 -34.893  0.00  0.00    +0.307 C 
ATOM      6  O   UNL     1      43.394 -19.432 -35.691  0.00  0.00    -0.251 OA
BRANCH   5   7
ATOM      7  O   UNL     1      44.888 -18.590 -34.243  0.00  0.00    -0.465 OA
BRANCH   7   8
ATOM      8  C   UNL     1      46.161 -18.778 -34.894  0.00  0.00    +0.092 C 
BRANCH   8   9
ATOM      9  C   UNL     1      46.487 -17.603 -35.812  0.00  0.00    -0.017 C 
BRANCH   9  10
ATOM     10  C   UNL     1      47.033 -18.017 -37.183  0.00  0.00    -0.037 C 
BRANCH  10  11
ATOM     11  C   UNL     1      46.843 -19.505 -37.505  0.00  0.00    -0.001 C 
BRANCH  11  12
ATOM     12  N   UNL     1      46.013 -19.711 -38.703  0.00  0.00    -0.298 N 
ATOM     13  C   UNL     1      44.984 -20.757 -38.508  0.00  0.00    +0.022 C 
ATOM     14  C   UNL     1      44.530 -21.377 -39.838  0.00  0.00    +0.060 C 
ATOM     15  O   UNL     1      45.589 -22.068 -40.513  0.00  0.00    -0.377 OA
ATOM     16  C   UNL     1      46.883 -21.510 -40.244  0.00  0.00    +0.060 C 
ATOM     17  C   UNL     1      46.838 -20.015 -39.894  0.00  0.00    +0.022 C 
ATOM     18  H   UNL     1      45.525 -18.830 -38.863  0.00  0.00    +0.000 HD
ENDBRANCH  11  12
ENDBRANCH  10  11
ENDBRANCH   9  10
ENDBRANCH   8   9
ENDBRANCH   7   8
ENDBRANCH   5   7
ENDBRANCH   4   5
ENDBRANCH   3   4
ENDBRANCH   1   3
BRANCH   1  19
ATOM     19  C   UNL     1      40.157 -17.868 -33.733  0.00  0.00    -0.046 C 
BRANCH  19  20
ATOM     20  C   UNL     1      39.452 -19.073 -33.028  0.00  0.00    -0.012 C 
ATOM     21  C   UNL     1      37.926 -18.941 -33.015  0.00  0.00    -0.045 C 
ATOM     22  C   UNL     1      37.140 -20.007 -33.246  0.00  0.00    -0.082 C 
ATOM     23  C   UNL     1      37.623 -21.394 -33.495  0.00  0.00    -0.031 C 
ATOM     24  C   UNL     1      39.095 -21.660 -33.094  0.00  0.00    -0.027 C 
ATOM     25  C   UNL     1      39.595 -23.095 -33.561  0.00  0.00    -0.031 C 
ATOM     26  C   UNL     1      40.491 -23.731 -32.469  0.00  0.00    -0.060 C 
ATOM     27  C   UNL     1      38.432 -24.103 -33.753  0.00  0.00    -0.060 C 
ATOM     28  C   UNL     1      40.395 -23.027 -34.888  0.00  0.00    -0.048 C 
ATOM     29  C   UNL     1      39.969 -21.878 -35.787  0.00  0.00    -0.052 C 
ATOM     30  C   UNL     1      40.082 -20.495 -35.133  0.00  0.00    -0.047 C 
ATOM     31  C   UNL     1      40.004 -20.473 -33.577  0.00  0.00    -0.022 C 
ATOM     32  C   UNL     1      41.439 -20.606 -32.987  0.00  0.00    -0.059 C 
BRANCH  21  33
ATOM     33  C   UNL     1      37.354 -17.592 -32.625  0.00  0.00    +0.066 C 
BRANCH  33  34
ATOM     34  O   UNL     1      36.134 -17.708 -31.902  0.00  0.00    -0.391 OA
ATOM     35  H   UNL     1      35.423 -17.971 -32.508  0.00  0.00    +0.000 HD
ENDBRANCH  33  34
ENDBRANCH  21  33
ENDBRANCH  19  20
ENDBRANCH   1  19
TORSDOF 13
ENDMDL
MODEL 19
REMARK VINA RESULT:    -5.569      2.645      7.400
REMARK INTER + INTRA:         -11.464
REMARK INTER:                  -8.634
REMARK INTRA:                  -2.830
REMARK UNBOUND:                -1.827
REMARK  Name = cpd289.pdb
REMARK  17 active torsions:
REMARK  status: ('A' for Active; 'I' for Inactive)
REMARK    1  A    between atoms: C_1  and  C_2
REMARK    2  A    between atoms: C_2  and  C_3
REMARK    3  A    between atoms: C_2  and  C_20
REMARK    4  A    between atoms: C_3  and  C_4
REMARK    5  A    between atoms: C_4  and  C_5
REMARK    6  A    between atoms: C_6  and  C_7
REMARK    7  A    between atoms: C_7  and  O_8
REMARK    8  A    between atoms: C_12  and  C_13
REMARK    9  A    between atoms: C_12  and  C_14
REMARK   10  A    between atoms: C_18  and  C_19
REMARK   11  A    between atoms: C_20  and  C_21
REMARK   12  A    between atoms: C_21  and  O_23
REMARK   13  A    between atoms: O_23  and  C_24
REMARK   14  A    between atoms: C_24  and  C_25
REMARK   15  A    between atoms: C_25  and  C_26
REMARK   16  A    between atoms: C_26  and  C_27
REMARK   17  A    between atoms: C_27  and  N_28
REMARK                            x       y       z     vdW  Elec       q    Type
REMARK                         _______ _______ _______ _____ _____    ______ ____
ROOT
ATOM      1  C   UNL     1      39.880 -20.307 -32.776  0.00  0.00    -0.049 C 
ENDROOT
BRANCH   1   3
ATOM      2  C   UNL     1      37.412 -20.808 -33.108  0.00  0.00    -0.062 C 
ATOM      3  C   UNL     1      38.821 -20.954 -33.700  0.00  0.00    -0.034 C 
BRANCH   3   4
ATOM      4  C   UNL     1      39.120 -22.450 -33.912  0.00  0.00    +0.048 C 
BRANCH   4   5
ATOM      5  C   UNL     1      39.243 -22.807 -35.376  0.00  0.00    +0.307 C 
ATOM      6  O   UNL     1      39.079 -23.962 -35.762  0.00  0.00    -0.251 OA
BRANCH   5   7
ATOM      7  O   UNL     1      39.527 -21.820 -36.261  0.00  0.00    -0.465 OA
BRANCH   7   8
ATOM      8  C   UNL     1      40.235 -22.022 -37.501  0.00  0.00    +0.092 C 
BRANCH   8   9
ATOM      9  C   UNL     1      41.474 -21.134 -37.576  0.00  0.00    -0.017 C 
BRANCH   9  10
ATOM     10  C   UNL     1      42.013 -20.938 -38.997  0.00  0.00    -0.037 C 
BRANCH  10  11
ATOM     11  C   UNL     1      43.520 -20.656 -39.057  0.00  0.00    -0.001 C 
BRANCH  11  12
ATOM     12  N   UNL     1      44.177 -21.382 -40.156  0.00  0.00    -0.298 N 
ATOM     13  C   UNL     1      45.602 -21.014 -40.310  0.00  0.00    +0.022 C 
ATOM     14  C   UNL     1      46.119 -21.284 -41.730  0.00  0.00    +0.060 C 
ATOM     15  O   UNL     1      45.457 -20.487 -42.719  0.00  0.00    -0.377 OA
ATOM     16  C   UNL     1      44.104 -20.164 -42.365  0.00  0.00    +0.060 C 
ATOM     17  C   UNL     1      43.456 -21.203 -41.437  0.00  0.00    +0.022 C 
ATOM     18  H   UNL     1      44.143 -22.370 -39.901  0.00  0.00    +0.000 HD
ENDBRANCH  11  12
ENDBRANCH  10  11
ENDBRANCH   9  10
ENDBRANCH   8   9
ENDBRANCH   7   8
ENDBRANCH   5   7
ENDBRANCH   4   5
ENDBRANCH   3   4
ENDBRANCH   1   3
BRANCH   1  19
ATOM     19  C   UNL     1      40.361 -18.935 -33.287  0.00  0.00    -0.046 C 
BRANCH  19  20
ATOM     20  C   UNL     1      41.104 -19.002 -34.662  0.00  0.00    -0.012 C 
ATOM     21  C   UNL     1      40.535 -18.021 -35.690  0.00  0.00    -0.045 C 
ATOM     22  C   UNL     1      41.349 -17.325 -36.504  0.00  0.00    -0.082 C 
ATOM     23  C   UNL     1      42.834 -17.438 -36.535  0.00  0.00    -0.031 C 
ATOM     24  C   UNL     1      43.413 -18.698 -35.845  0.00  0.00    -0.027 C 
ATOM     25  C   UNL     1      44.999 -18.656 -35.751  0.00  0.00    -0.031 C 
ATOM     26  C   UNL     1      45.589 -20.063 -36.023  0.00  0.00    -0.060 C 
ATOM     27  C   UNL     1      45.642 -17.745 -36.830  0.00  0.00    -0.060 C 
ATOM     28  C   UNL     1      45.486 -18.169 -34.361  0.00  0.00    -0.048 C 
ATOM     29  C   UNL     1      44.512 -17.218 -33.684  0.00  0.00    -0.052 C 
ATOM     30  C   UNL     1      43.107 -17.800 -33.481  0.00  0.00    -0.047 C 
ATOM     31  C   UNL     1      42.692 -18.932 -34.468  0.00  0.00    -0.022 C 
ATOM     32  C   UNL     1      43.093 -20.312 -33.869  0.00  0.00    -0.059 C 
BRANCH  21  33
ATOM     33  C   UNL     1      39.025 -17.956 -35.820  0.00  0.00    +0.066 C 
BRANCH  33  34
ATOM     34  O   UNL     1      38.500 -19.039 -36.579  0.00  0.00    -0.391 OA
ATOM     35  H   UNL     1      37.554 -18.892 -36.741  0.00  0.00    +0.000 HD
ENDBRANCH  33  34
ENDBRANCH  21  33
ENDBRANCH  19  20
ENDBRANCH   1  19
TORSDOF 13
ENDMDL
MODEL 20
REMARK VINA RESULT:    -5.512      2.175      5.512
REMARK INTER + INTRA:         -11.367
REMARK INTER:                  -9.337
REMARK INTRA:                  -2.030
REMARK UNBOUND:                -1.827
REMARK  Name = cpd289.pdb
REMARK  17 active torsions:
REMARK  status: ('A' for Active; 'I' for Inactive)
REMARK    1  A    between atoms: C_1  and  C_2
REMARK    2  A    between atoms: C_2  and  C_3
REMARK    3  A    between atoms: C_2  and  C_20
REMARK    4  A    between atoms: C_3  and  C_4
REMARK    5  A    between atoms: C_4  and  C_5
REMARK    6  A    between atoms: C_6  and  C_7
REMARK    7  A    between atoms: C_7  and  O_8
REMARK    8  A    between atoms: C_12  and  C_13
REMARK    9  A    between atoms: C_12  and  C_14
REMARK   10  A    between atoms: C_18  and  C_19
REMARK   11  A    between atoms: C_20  and  C_21
REMARK   12  A    between atoms: C_21  and  O_23
REMARK   13  A    between atoms: O_23  and  C_24
REMARK   14  A    between atoms: C_24  and  C_25
REMARK   15  A    between atoms: C_25  and  C_26
REMARK   16  A    between atoms: C_26  and  C_27
REMARK   17  A    between atoms: C_27  and  N_28
REMARK                            x       y       z     vdW  Elec       q    Type
REMARK                         _______ _______ _______ _____ _____    ______ ____
ROOT
ATOM      1  C   UNL     1      41.639 -20.715 -35.974  0.00  0.00    -0.049 C 
ENDROOT
BRANCH   1   3
ATOM      2  C   UNL     1      40.087 -22.001 -37.522  0.00  0.00    -0.062 C 
ATOM      3  C   UNL     1      40.697 -21.935 -36.114  0.00  0.00    -0.034 C 
BRANCH   3   4
ATOM      4  C   UNL     1      39.558 -21.867 -35.080  0.00  0.00    +0.048 C 
BRANCH   4   5
ATOM      5  C   UNL     1      39.908 -22.581 -33.794  0.00  0.00    +0.307 C 
ATOM      6  O   UNL     1      40.010 -23.805 -33.756  0.00  0.00    -0.251 OA
BRANCH   5   7
ATOM      7  O   UNL     1      40.120 -21.838 -32.680  0.00  0.00    -0.465 OA
BRANCH   7   8
ATOM      8  C   UNL     1      40.023 -20.400 -32.635  0.00  0.00    +0.092 C 
BRANCH   8   9
ATOM      9  C   UNL     1      41.408 -19.758 -32.588  0.00  0.00    -0.017 C 
BRANCH   9  10
ATOM     10  C   UNL     1      41.383 -18.226 -32.576  0.00  0.00    -0.037 C 
BRANCH  10  11
ATOM     11  C   UNL     1      41.719 -17.588 -33.930  0.00  0.00    -0.001 C 
BRANCH  11  12
ATOM     12  N   UNL     1      42.891 -16.701 -33.850  0.00  0.00    -0.298 N 
ATOM     13  C   UNL     1      43.517 -16.706 -32.509  0.00  0.00    +0.022 C 
ATOM     14  C   UNL     1      44.317 -15.423 -32.240  0.00  0.00    +0.060 C 
ATOM     15  O   UNL     1      43.491 -14.252 -32.222  0.00  0.00    -0.377 OA
ATOM     16  C   UNL     1      42.344 -14.362 -33.076  0.00  0.00    +0.060 C 
ATOM     17  C   UNL     1      42.558 -15.318 -34.260  0.00  0.00    +0.022 C 
ATOM     18  H   UNL     1      43.575 -17.077 -34.507  0.00  0.00    +0.000 HD
ENDBRANCH  11  12
ENDBRANCH  10  11
ENDBRANCH   9  10
ENDBRANCH   8   9
ENDBRANCH   7   8
ENDBRANCH   5   7
ENDBRANCH   4   5
ENDBRANCH   3   4
ENDBRANCH   1   3
BRANCH   1  19
ATOM     19  C   UNL     1      43.064 -20.998 -36.488  0.00  0.00    -0.046 C 
BRANCH  19  20
ATOM     20  C   UNL     1      43.876 -19.705 -36.829  0.00  0.00    -0.012 C 
ATOM     21  C   UNL     1      45.077 -19.499 -35.902  0.00  0.00    -0.045 C 
ATOM     22  C   UNL     1      46.257 -19.071 -36.385  0.00  0.00    -0.082 C 
ATOM     23  C   UNL     1      46.527 -18.723 -37.808  0.00  0.00    -0.031 C 
ATOM     24  C   UNL     1      45.268 -18.498 -38.681  0.00  0.00    -0.027 C 
ATOM     25  C   UNL     1      45.628 -18.320 -40.219  0.00  0.00    -0.031 C 
ATOM     26  C   UNL     1      44.734 -17.225 -40.854  0.00  0.00    -0.060 C 
ATOM     27  C   UNL     1      47.079 -17.821 -40.443  0.00  0.00    -0.060 C 
ATOM     28  C   UNL     1      45.445 -19.638 -41.015  0.00  0.00    -0.048 C 
ATOM     29  C   UNL     1      45.665 -20.884 -40.170  0.00  0.00    -0.052 C 
ATOM     30  C   UNL     1      44.749 -20.978 -38.943  0.00  0.00    -0.047 C 
ATOM     31  C   UNL     1      44.210 -19.624 -38.393  0.00  0.00    -0.022 C 
ATOM     32  C   UNL     1      42.854 -19.290 -39.083  0.00  0.00    -0.059 C 
BRANCH  21  33
ATOM     33  C   UNL     1      44.842 -19.693 -34.416  0.00  0.00    +0.066 C 
BRANCH  33  34
ATOM     34  O   UNL     1      45.379 -20.920 -33.937  0.00  0.00    -0.391 OA
ATOM     35  H   UNL     1      46.207 -20.748 -33.461  0.00  0.00    +0.000 HD
ENDBRANCH  33  34
ENDBRANCH  21  33
ENDBRANCH  19  20
ENDBRANCH   1  19
TORSDOF 13
ENDMDL
