REMARK  Name = cpd289.pdb
REMARK  17 active torsions:
REMARK  status: ('A' for Active; 'I' for Inactive)
REMARK    1  A    between atoms: C_1  and  C_2
REMARK    2  A    between atoms: C_2  and  C_3
REMARK    3  A    between atoms: C_2  and  C_20
REMARK    4  A    between atoms: C_3  and  C_4
REMARK    5  A    between atoms: C_4  and  C_5
REMARK    6  A    between atoms: C_6  and  C_7
REMARK    7  A    between atoms: C_7  and  O_8
REMARK    8  A    between atoms: C_12  and  C_13
REMARK    9  A    between atoms: C_12  and  C_14
REMARK   10  A    between atoms: C_18  and  C_19
REMARK   11  A    between atoms: C_20  and  C_21
REMARK   12  A    between atoms: C_21  and  O_23
REMARK   13  A    between atoms: O_23  and  C_24
REMARK   14  A    between atoms: C_24  and  C_25
REMARK   15  A    between atoms: C_25  and  C_26
REMARK   16  A    between atoms: C_26  and  C_27
REMARK   17  A    between atoms: C_27  and  N_28
REMARK                            x       y       z     vdW  Elec       q    Type
REMARK                         _______ _______ _______ _____ _____    ______ ____
ROOT
ATOM      1  C   UNL     1       7.569   1.360  -0.658  0.00  0.00    -0.049 C 
ENDROOT
BRANCH   1   3
ATOM      2  C   UNL     1       7.133  -1.071  -1.255  0.00  0.00    -0.062 C 
ATOM      3  C   UNL     1       6.577   0.177  -0.554  0.00  0.00    -0.034 C 
BRANCH   3   4
ATOM      4  C   UNL     1       5.222   0.542  -1.188  0.00  0.00    +0.048 C 
BRANCH   4   5
ATOM      5  C   UNL     1       4.263   1.141  -0.184  0.00  0.00    +0.307 C 
ATOM      6  O   UNL     1       4.240   2.351   0.026  0.00  0.00    -0.251 OA
BRANCH   5   7
ATOM      7  O   UNL     1       3.416   0.312   0.475  0.00  0.00    -0.465 OA
BRANCH   7   8
ATOM      8  C   UNL     1       3.525  -1.126   0.473  0.00  0.00    +0.092 C 
BRANCH   8   9
ATOM      9  C   UNL     1       2.631  -1.742  -0.600  0.00  0.00    -0.017 C 
BRANCH   9  10
ATOM     10  C   UNL     1       1.214  -2.069  -0.117  0.00  0.00    -0.037 C 
BRANCH  10  11
ATOM     11  C   UNL     1       0.376  -0.833   0.235  0.00  0.00    -0.001 C 
BRANCH  11  12
ATOM     12  N   UNL     1      -0.962  -1.193   0.731  0.00  0.00    -0.298 N 
ATOM     13  C   UNL     1      -1.767  -1.917  -0.278  0.00  0.00    +0.022 C 
ATOM     14  C   UNL     1      -3.275  -1.782  -0.021  0.00  0.00    +0.060 C 
ATOM     15  O   UNL     1      -3.734  -0.429  -0.132  0.00  0.00    -0.377 OA
ATOM     16  C   UNL     1      -2.732   0.534   0.224  0.00  0.00    +0.060 C 
ATOM     17  C   UNL     1      -1.699  -0.007   1.225  0.00  0.00    +0.022 C 
ATOM     18  H   UNL     1      -0.811  -1.829   1.514  0.00  0.00    +0.000 HD
ENDBRANCH  11  12
ENDBRANCH  10  11
ENDBRANCH   9  10
ENDBRANCH   8   9
ENDBRANCH   7   8
ENDBRANCH   5   7
ENDBRANCH   4   5
ENDBRANCH   3   4
ENDBRANCH   1   3
BRANCH   1  19
ATOM     19  C   UNL     1       8.801   1.189   0.252  0.00  0.00    -0.046 C 
BRANCH  19  20
ATOM     20  C   UNL     1      10.017   2.081  -0.164  0.00  0.00    -0.012 C 
ATOM     21  C   UNL     1      10.050   3.420   0.578  0.00  0.00    -0.045 C 
ATOM     22  C   UNL     1      11.209   3.930   1.030  0.00  0.00    -0.082 C 
ATOM     23  C   UNL     1      12.551   3.309   0.846  0.00  0.00    -0.031 C 
ATOM     24  C   UNL     1      12.625   2.212  -0.245  0.00  0.00    -0.027 C 
ATOM     25  C   UNL     1      14.029   1.467  -0.253  0.00  0.00    -0.031 C 
ATOM     26  C   UNL     1      14.479   1.190  -1.710  0.00  0.00    -0.060 C 
ATOM     27  C   UNL     1      15.169   2.326   0.354  0.00  0.00    -0.060 C 
ATOM     28  C   UNL     1      13.978   0.123   0.519  0.00  0.00    -0.048 C 
ATOM     29  C   UNL     1      12.954   0.116   1.643  0.00  0.00    -0.052 C 
ATOM     30  C   UNL     1      11.521   0.418   1.187  0.00  0.00    -0.047 C 
ATOM     31  C   UNL     1      11.387   1.252  -0.122  0.00  0.00    -0.022 C 
ATOM     32  C   UNL     1      11.319   0.288  -1.343  0.00  0.00    -0.059 C 
BRANCH  21  33
ATOM     33  C   UNL     1       8.744   4.185   0.678  0.00  0.00    +0.066 C 
BRANCH  33  34
ATOM     34  O   UNL     1       8.903   5.449   1.311  0.00  0.00    -0.391 OA
ATOM     35  H   UNL     1       9.223   5.319   2.218  0.00  0.00    +0.000 HD
ENDBRANCH  33  34
ENDBRANCH  21  33
ENDBRANCH  19  20
ENDBRANCH   1  19
TORSDOF 13
