REMARK  Name = cpd134.pdb
REMARK  5 active torsions:
REMARK  status: ('A' for Active; 'I' for Inactive)
REMARK    1  A    between atoms: C_2  and  C_3
REMARK    2  A    between atoms: C_2  and  C_20
REMARK    3  A    between atoms: C_4  and  C_5
REMARK    4  A    between atoms: N_9  and  C_10
REMARK    5  A    between atoms: C_10  and  C_11
REMARK                            x       y       z     vdW  Elec       q    Type
REMARK                         _______ _______ _______ _____ _____    ______ ____
ROOT
ATOM      1  C   UNL A   1       3.341   0.053   0.662  0.00  0.00    -0.009 A 
ATOM      2  C   UNL A   1       4.554  -0.617   0.819  0.00  0.00    -0.052 A 
ATOM      3  C   UNL A   1       5.697   0.089   1.179  0.00  0.00    -0.045 A 
ATOM      4  C   UNL A   1       5.619   1.462   1.365  0.00  0.00    +0.005 A 
ATOM      5  N   UNL A   1       4.447   2.116   1.186  0.00  0.00    -0.348 N 
ATOM      6  C   UNL A   1       3.324   1.439   0.842  0.00  0.00    +0.012 A 
ENDROOT
BRANCH   1   8
ATOM      7  C   UNL A   1       1.767  -1.863   0.692  0.00  0.00    -0.011 C 
ATOM      8  C   UNL A   1       2.104  -0.635   0.265  0.00  0.00    -0.049 C 
BRANCH   7  10
ATOM      9  O   UNL A   1       0.630  -3.843   0.299  0.00  0.00    -0.284 OA
ATOM     10  C   UNL A   1       0.536  -2.615   0.295  0.00  0.00    +0.221 C 
BRANCH  10  11
ATOM     11  C   UNL A   1      -0.692  -1.929  -0.051  0.00  0.00    +0.176 A 
ATOM     12  C   UNL A   1      -1.863  -2.430  -0.593  0.00  0.00    -0.005 A 
ATOM     13  C   UNL A   1      -2.774  -1.348  -0.695  0.00  0.00    +0.022 A 
ATOM     14  C   UNL A   1      -4.094  -1.187  -1.149  0.00  0.00    -0.037 A 
ATOM     15  C   UNL A   1      -4.671   0.088  -1.072  0.00  0.00    +0.019 A 
ATOM     16 BR   UNL A   1      -6.448   0.334  -1.677  0.00  0.00    -0.050 Br
ATOM     17  C   UNL A   1      -3.966   1.179  -0.558  0.00  0.00    -0.044 A 
ATOM     18  C   UNL A   1      -2.651   1.034  -0.102  0.00  0.00    -0.018 A 
ATOM     19  C   UNL A   1      -2.100  -0.242  -0.191  0.00  0.00    +0.136 A 
ATOM     20  O   UNL A   1      -0.842  -0.589   0.198  0.00  0.00    -0.452 OA
ENDBRANCH  10  11
ENDBRANCH   7  10
ENDBRANCH   1   8
BRANCH   5  21
ATOM     21  C   UNL A   1       4.390   3.586   1.392  0.00  0.00    +0.048 C 
BRANCH  21  22
ATOM     22  C   UNL A   1       5.153   4.319   0.315  0.00  0.00    -0.026 A 
ATOM     23  C   UNL A   1       4.764   4.241  -1.031  0.00  0.00    -0.055 A 
ATOM     24  C   UNL A   1       5.484   4.923  -2.018  0.00  0.00    -0.042 A 
ATOM     25  C   UNL A   1       6.599   5.695  -1.679  0.00  0.00    +0.059 A 
ATOM     26 CL   UNL A   1       7.440   6.499  -2.953  0.00  0.00    -0.082 Cl
ATOM     27  C   UNL A   1       6.991   5.788  -0.342  0.00  0.00    +0.060 A 
ATOM     28 CL   UNL A   1       8.354   6.716   0.165  0.00  0.00    -0.082 Cl
ATOM     29  C   UNL A   1       6.269   5.106   0.648  0.00  0.00    -0.037 A 
ENDBRANCH  21  22
ENDBRANCH   5  21
TORSDOF 5
