MODEL 1
REMARK VINA RESULT:    -8.751      0.000      0.000
REMARK INTER + INTRA:         -12.038
REMARK INTER:                 -11.310
REMARK INTRA:                  -0.729
REMARK UNBOUND:                -0.729
REMARK  Name = cpd134.pdb
REMARK  5 active torsions:
REMARK  status: ('A' for Active; 'I' for Inactive)
REMARK    1  A    between atoms: C_2  and  C_3
REMARK    2  A    between atoms: C_2  and  C_20
REMARK    3  A    between atoms: C_4  and  C_5
REMARK    4  A    between atoms: N_9  and  C_10
REMARK    5  A    between atoms: C_10  and  C_11
REMARK                            x       y       z     vdW  Elec       q    Type
REMARK                         _______ _______ _______ _____ _____    ______ ____
ROOT
ATOM      1  C   UNL A   1      35.480 -40.155 -31.120  0.00  0.00    -0.009 A 
ATOM      2  C   UNL A   1      35.828 -41.222 -30.293  0.00  0.00    -0.052 A 
ATOM      3  C   UNL A   1      36.554 -40.993 -29.129  0.00  0.00    -0.045 A 
ATOM      4  C   UNL A   1      36.938 -39.698 -28.810  0.00  0.00    +0.005 A 
ATOM      5  N   UNL A   1      36.623 -38.665 -29.627  0.00  0.00    -0.348 N 
ATOM      6  C   UNL A   1      35.909 -38.874 -30.761  0.00  0.00    +0.012 A 
ENDROOT
BRANCH   1   8
ATOM      7  C   UNL A   1      34.728 -41.479 -33.077  0.00  0.00    -0.011 C 
ATOM      8  C   UNL A   1      34.730 -40.336 -32.371  0.00  0.00    -0.049 C 
BRANCH   7  10
ATOM      9  O   UNL A   1      33.609 -40.691 -34.946  0.00  0.00    -0.284 OA
ATOM     10  C   UNL A   1      34.006 -41.703 -34.367  0.00  0.00    +0.221 C 
BRANCH  10  11
ATOM     11  C   UNL A   1      33.809 -43.034 -34.904  0.00  0.00    +0.176 A 
ATOM     12  C   UNL A   1      33.017 -43.456 -35.958  0.00  0.00    -0.005 A 
ATOM     13  C   UNL A   1      33.217 -44.852 -36.101  0.00  0.00    +0.022 A 
ATOM     14  C   UNL A   1      32.726 -45.854 -36.955  0.00  0.00    -0.037 A 
ATOM     15  C   UNL A   1      33.192 -47.164 -36.777  0.00  0.00    +0.019 A 
ATOM     16 BR   UNL A   1      32.547 -48.534 -37.913  0.00  0.00    -0.050 Br
ATOM     17  C   UNL A   1      34.122 -47.480 -35.784  0.00  0.00    -0.044 A 
ATOM     18  C   UNL A   1      34.620 -46.493 -34.926  0.00  0.00    -0.018 A 
ATOM     19  C   UNL A   1      34.139 -45.200 -35.121  0.00  0.00    +0.136 A 
ATOM     20  O   UNL A   1      34.499 -44.105 -34.396  0.00  0.00    -0.452 OA
ENDBRANCH  10  11
ENDBRANCH   7  10
ENDBRANCH   1   8
BRANCH   5  21
ATOM     21  C   UNL A   1      37.045 -37.288 -29.262  0.00  0.00    +0.048 C 
BRANCH  21  22
ATOM     22  C   UNL A   1      38.216 -36.835 -30.100  0.00  0.00    -0.026 A 
ATOM     23  C   UNL A   1      38.085 -35.790 -31.027  0.00  0.00    -0.055 A 
ATOM     24  C   UNL A   1      39.179 -35.385 -31.799  0.00  0.00    -0.042 A 
ATOM     25  C   UNL A   1      40.421 -36.011 -31.656  0.00  0.00    +0.059 A 
ATOM     26 CL   UNL A   1      41.720 -35.461 -32.650  0.00  0.00    -0.082 Cl
ATOM     27  C   UNL A   1      40.567 -37.047 -30.731  0.00  0.00    +0.060 A 
ATOM     28 CL   UNL A   1      42.061 -37.876 -30.491  0.00  0.00    -0.082 Cl
ATOM     29  C   UNL A   1      39.471 -37.452 -29.956  0.00  0.00    -0.037 A 
ENDBRANCH  21  22
ENDBRANCH   5  21
TORSDOF 5
ENDMDL
MODEL 2
REMARK VINA RESULT:    -8.566      6.842     10.039
REMARK INTER + INTRA:         -11.798
REMARK INTER:                 -11.204
REMARK INTRA:                  -0.594
REMARK UNBOUND:                -0.729
REMARK  Name = cpd134.pdb
REMARK  5 active torsions:
REMARK  status: ('A' for Active; 'I' for Inactive)
REMARK    1  A    between atoms: C_2  and  C_3
REMARK    2  A    between atoms: C_2  and  C_20
REMARK    3  A    between atoms: C_4  and  C_5
REMARK    4  A    between atoms: N_9  and  C_10
REMARK    5  A    between atoms: C_10  and  C_11
REMARK                            x       y       z     vdW  Elec       q    Type
REMARK                         _______ _______ _______ _____ _____    ______ ____
ROOT
ATOM      1  C   UNL A   1      34.794 -36.303 -30.795  0.00  0.00    -0.009 A 
ATOM      2  C   UNL A   1      34.287 -37.522 -31.243  0.00  0.00    -0.052 A 
ATOM      3  C   UNL A   1      34.849 -38.715 -30.800  0.00  0.00    -0.045 A 
ATOM      4  C   UNL A   1      35.924 -38.676 -29.923  0.00  0.00    +0.005 A 
ATOM      5  N   UNL A   1      36.434 -37.491 -29.510  0.00  0.00    -0.348 N 
ATOM      6  C   UNL A   1      35.890 -36.322 -29.928  0.00  0.00    +0.012 A 
ENDROOT
BRANCH   1   8
ATOM      7  C   UNL A   1      34.843 -33.831 -30.986  0.00  0.00    -0.011 C 
ATOM      8  C   UNL A   1      34.254 -35.011 -31.242  0.00  0.00    -0.049 C 
BRANCH   7  10
ATOM      9  O   UNL A   1      35.105 -31.768 -32.007  0.00  0.00    -0.284 OA
ATOM     10  C   UNL A   1      34.319 -32.490 -31.394  0.00  0.00    +0.221 C 
BRANCH  10  11
ATOM     11  C   UNL A   1      32.960 -32.086 -31.097  0.00  0.00    +0.176 A 
ATOM     12  C   UNL A   1      32.493 -31.147 -30.193  0.00  0.00    -0.005 A 
ATOM     13  C   UNL A   1      31.082 -31.103 -30.326  0.00  0.00    +0.022 A 
ATOM     14  C   UNL A   1      30.039 -30.383 -29.718  0.00  0.00    -0.037 A 
ATOM     15  C   UNL A   1      28.728 -30.625 -30.149  0.00  0.00    +0.019 A 
ATOM     16 BR   UNL A   1      27.303 -29.669 -29.348  0.00  0.00    -0.050 Br
ATOM     17  C   UNL A   1      28.449 -31.552 -31.156  0.00  0.00    -0.044 A 
ATOM     18  C   UNL A   1      29.477 -32.277 -31.770  0.00  0.00    -0.018 A 
ATOM     19  C   UNL A   1      30.771 -32.019 -31.323  0.00  0.00    +0.136 A 
ATOM     20  O   UNL A   1      31.902 -32.616 -31.790  0.00  0.00    -0.452 OA
ENDBRANCH  10  11
ENDBRANCH   7  10
ENDBRANCH   1   8
BRANCH   5  21
ATOM     21  C   UNL A   1      37.584 -37.477 -28.570  0.00  0.00    +0.048 C 
BRANCH  21  22
ATOM     22  C   UNL A   1      38.897 -37.530 -29.313  0.00  0.00    -0.026 A 
ATOM     23  C   UNL A   1      40.002 -38.218 -28.786  0.00  0.00    -0.055 A 
ATOM     24  C   UNL A   1      41.213 -38.254 -29.485  0.00  0.00    -0.042 A 
ATOM     25  C   UNL A   1      41.342 -37.611 -30.719  0.00  0.00    +0.059 A 
ATOM     26 CL   UNL A   1      42.870 -37.694 -31.516  0.00  0.00    -0.082 Cl
ATOM     27  C   UNL A   1      40.248 -36.931 -31.258  0.00  0.00    +0.060 A 
ATOM     28 CL   UNL A   1      40.318 -36.109 -32.773  0.00  0.00    -0.082 Cl
ATOM     29  C   UNL A   1      39.033 -36.895 -30.559  0.00  0.00    -0.037 A 
ENDBRANCH  21  22
ENDBRANCH   5  21
TORSDOF 5
ENDMDL
MODEL 3
REMARK VINA RESULT:    -8.388      7.152     10.232
REMARK INTER + INTRA:         -11.568
REMARK INTER:                 -10.874
REMARK INTRA:                  -0.694
REMARK UNBOUND:                -0.729
REMARK  Name = cpd134.pdb
REMARK  5 active torsions:
REMARK  status: ('A' for Active; 'I' for Inactive)
REMARK    1  A    between atoms: C_2  and  C_3
REMARK    2  A    between atoms: C_2  and  C_20
REMARK    3  A    between atoms: C_4  and  C_5
REMARK    4  A    between atoms: N_9  and  C_10
REMARK    5  A    between atoms: C_10  and  C_11
REMARK                            x       y       z     vdW  Elec       q    Type
REMARK                         _______ _______ _______ _____ _____    ______ ____
ROOT
ATOM      1  C   UNL A   1      34.731 -37.152 -28.217  0.00  0.00    -0.009 A 
ATOM      2  C   UNL A   1      34.295 -38.301 -28.875  0.00  0.00    -0.052 A 
ATOM      3  C   UNL A   1      34.640 -38.514 -30.206  0.00  0.00    -0.045 A 
ATOM      4  C   UNL A   1      35.407 -37.567 -30.870  0.00  0.00    +0.005 A 
ATOM      5  N   UNL A   1      35.807 -36.438 -30.238  0.00  0.00    -0.348 N 
ATOM      6  C   UNL A   1      35.483 -36.222 -28.940  0.00  0.00    +0.012 A 
ENDROOT
BRANCH   1   8
ATOM      7  C   UNL A   1      33.124 -36.682 -26.387  0.00  0.00    -0.011 C 
ATOM      8  C   UNL A   1      34.383 -36.863 -26.818  0.00  0.00    -0.049 C 
BRANCH   7  10
ATOM      9  O   UNL A   1      31.987 -35.381 -24.844  0.00  0.00    -0.284 OA
ATOM     10  C   UNL A   1      32.723 -36.359 -24.983  0.00  0.00    +0.221 C 
BRANCH  10  11
ATOM     11  C   UNL A   1      33.163 -37.166 -23.864  0.00  0.00    +0.176 A 
ATOM     12  C   UNL A   1      33.028 -38.527 -23.647  0.00  0.00    -0.005 A 
ATOM     13  C   UNL A   1      33.672 -38.822 -22.419  0.00  0.00    +0.022 A 
ATOM     14  C   UNL A   1      33.889 -39.979 -21.652  0.00  0.00    -0.037 A 
ATOM     15  C   UNL A   1      34.608 -39.856 -20.455  0.00  0.00    +0.019 A 
ATOM     16 BR   UNL A   1      34.915 -41.399 -19.401  0.00  0.00    -0.050 Br
ATOM     17  C   UNL A   1      35.106 -38.624 -20.025  0.00  0.00    -0.044 A 
ATOM     18  C   UNL A   1      34.898 -37.463 -20.778  0.00  0.00    -0.018 A 
ATOM     19  C   UNL A   1      34.179 -37.611 -21.961  0.00  0.00    +0.136 A 
ATOM     20  O   UNL A   1      33.872 -36.609 -22.831  0.00  0.00    -0.452 OA
ENDBRANCH  10  11
ENDBRANCH   7  10
ENDBRANCH   1   8
BRANCH   5  21
ATOM     21  C   UNL A   1      36.627 -35.440 -30.972  0.00  0.00    +0.048 C 
BRANCH  21  22
ATOM     22  C   UNL A   1      38.033 -35.945 -31.192  0.00  0.00    -0.026 A 
ATOM     23  C   UNL A   1      38.708 -35.707 -32.399  0.00  0.00    -0.055 A 
ATOM     24  C   UNL A   1      40.010 -36.184 -32.590  0.00  0.00    -0.042 A 
ATOM     25  C   UNL A   1      40.659 -36.902 -31.581  0.00  0.00    +0.059 A 
ATOM     26 CL   UNL A   1      42.259 -37.465 -31.894  0.00  0.00    -0.082 Cl
ATOM     27  C   UNL A   1      40.001 -37.138 -30.372  0.00  0.00    +0.060 A 
ATOM     28 CL   UNL A   1      40.725 -38.015 -29.075  0.00  0.00    -0.082 Cl
ATOM     29  C   UNL A   1      38.697 -36.658 -30.180  0.00  0.00    -0.037 A 
ENDBRANCH  21  22
ENDBRANCH   5  21
TORSDOF 5
ENDMDL
MODEL 4
REMARK VINA RESULT:    -8.197      8.102     10.841
REMARK INTER + INTRA:         -11.322
REMARK INTER:                 -10.684
REMARK INTRA:                  -0.638
REMARK UNBOUND:                -0.729
REMARK  Name = cpd134.pdb
REMARK  5 active torsions:
REMARK  status: ('A' for Active; 'I' for Inactive)
REMARK    1  A    between atoms: C_2  and  C_3
REMARK    2  A    between atoms: C_2  and  C_20
REMARK    3  A    between atoms: C_4  and  C_5
REMARK    4  A    between atoms: N_9  and  C_10
REMARK    5  A    between atoms: C_10  and  C_11
REMARK                            x       y       z     vdW  Elec       q    Type
REMARK                         _______ _______ _______ _____ _____    ______ ____
ROOT
ATOM      1  C   UNL A   1      33.354 -34.728 -28.861  0.00  0.00    -0.009 A 
ATOM      2  C   UNL A   1      32.339 -34.848 -27.913  0.00  0.00    -0.052 A 
ATOM      3  C   UNL A   1      31.373 -33.854 -27.797  0.00  0.00    -0.045 A 
ATOM      4  C   UNL A   1      31.440 -32.741 -28.623  0.00  0.00    +0.005 A 
ATOM      5  N   UNL A   1      32.441 -32.611 -29.525  0.00  0.00    -0.348 N 
ATOM      6  C   UNL A   1      33.385 -33.576 -29.653  0.00  0.00    +0.012 A 
ENDROOT
BRANCH   1   8
ATOM      7  C   UNL A   1      34.697 -36.339 -30.184  0.00  0.00    -0.011 C 
ATOM      8  C   UNL A   1      34.413 -35.736 -29.018  0.00  0.00    -0.049 C 
BRANCH   7  10
ATOM      9  O   UNL A   1      35.344 -38.554 -30.388  0.00  0.00    -0.284 OA
ATOM     10  C   UNL A   1      35.743 -37.389 -30.388  0.00  0.00    +0.221 C 
BRANCH  10  11
ATOM     11  C   UNL A   1      37.135 -37.042 -30.592  0.00  0.00    +0.176 A 
ATOM     12  C   UNL A   1      38.275 -37.586 -30.026  0.00  0.00    -0.005 A 
ATOM     13  C   UNL A   1      39.387 -36.917 -30.598  0.00  0.00    +0.022 A 
ATOM     14  C   UNL A   1      40.783 -36.992 -30.458  0.00  0.00    -0.037 A 
ATOM     15  C   UNL A   1      41.574 -36.136 -31.237  0.00  0.00    +0.019 A 
ATOM     16 BR   UNL A   1      43.458 -36.214 -31.069  0.00  0.00    -0.050 Br
ATOM     17  C   UNL A   1      41.004 -35.230 -32.134  0.00  0.00    -0.044 A 
ATOM     18  C   UNL A   1      39.615 -35.144 -32.284  0.00  0.00    -0.018 A 
ATOM     19  C   UNL A   1      38.852 -36.004 -31.498  0.00  0.00    +0.136 A 
ATOM     20  O   UNL A   1      37.492 -36.076 -31.497  0.00  0.00    -0.452 OA
ENDBRANCH  10  11
ENDBRANCH   7  10
ENDBRANCH   1   8
BRANCH   5  21
ATOM     21  C   UNL A   1      32.490 -31.410 -30.397  0.00  0.00    +0.048 C 
BRANCH  21  22
ATOM     22  C   UNL A   1      31.138 -31.118 -31.002  0.00  0.00    -0.026 A 
ATOM     23  C   UNL A   1      30.465 -32.079 -31.773  0.00  0.00    -0.055 A 
ATOM     24  C   UNL A   1      29.214 -31.792 -32.330  0.00  0.00    -0.042 A 
ATOM     25  C   UNL A   1      28.613 -30.547 -32.125  0.00  0.00    +0.059 A 
ATOM     26 CL   UNL A   1      27.074 -30.265 -32.852  0.00  0.00    -0.082 Cl
ATOM     27  C   UNL A   1      29.268 -29.585 -31.353  0.00  0.00    +0.060 A 
ATOM     28 CL   UNL A   1      28.602 -28.023 -31.051  0.00  0.00    -0.082 Cl
ATOM     29  C   UNL A   1      30.522 -29.872 -30.793  0.00  0.00    -0.037 A 
ENDBRANCH  21  22
ENDBRANCH   5  21
TORSDOF 5
ENDMDL
MODEL 5
REMARK VINA RESULT:    -8.165      4.573      5.608
REMARK INTER + INTRA:         -11.280
REMARK INTER:                 -10.577
REMARK INTRA:                  -0.703
REMARK UNBOUND:                -0.729
REMARK  Name = cpd134.pdb
REMARK  5 active torsions:
REMARK  status: ('A' for Active; 'I' for Inactive)
REMARK    1  A    between atoms: C_2  and  C_3
REMARK    2  A    between atoms: C_2  and  C_20
REMARK    3  A    between atoms: C_4  and  C_5
REMARK    4  A    between atoms: N_9  and  C_10
REMARK    5  A    between atoms: C_10  and  C_11
REMARK                            x       y       z     vdW  Elec       q    Type
REMARK                         _______ _______ _______ _____ _____    ______ ____
ROOT
ATOM      1  C   UNL A   1      35.840 -40.935 -29.260  0.00  0.00    -0.009 A 
ATOM      2  C   UNL A   1      35.362 -40.996 -30.568  0.00  0.00    -0.052 A 
ATOM      3  C   UNL A   1      35.567 -39.927 -31.434  0.00  0.00    -0.045 A 
ATOM      4  C   UNL A   1      36.238 -38.801 -30.979  0.00  0.00    +0.005 A 
ATOM      5  N   UNL A   1      36.679 -38.731 -29.700  0.00  0.00    -0.348 N 
ATOM      6  C   UNL A   1      36.491 -39.769 -28.848  0.00  0.00    +0.012 A 
ENDROOT
BRANCH   1   8
ATOM      7  C   UNL A   1      34.454 -42.623 -28.086  0.00  0.00    -0.011 C 
ATOM      8  C   UNL A   1      35.638 -42.024 -28.293  0.00  0.00    -0.049 C 
BRANCH   7  10
ATOM      9  O   UNL A   1      34.321 -43.407 -25.910  0.00  0.00    -0.284 OA
ATOM     10  C   UNL A   1      34.192 -43.714 -27.096  0.00  0.00    +0.221 C 
BRANCH  10  11
ATOM     11  C   UNL A   1      33.791 -45.040 -27.518  0.00  0.00    +0.176 A 
ATOM     12  C   UNL A   1      33.614 -45.547 -28.794  0.00  0.00    -0.005 A 
ATOM     13  C   UNL A   1      33.261 -46.913 -28.657  0.00  0.00    +0.022 A 
ATOM     14  C   UNL A   1      32.954 -47.964 -29.539  0.00  0.00    -0.037 A 
ATOM     15  C   UNL A   1      32.656 -49.221 -28.994  0.00  0.00    +0.019 A 
ATOM     16 BR   UNL A   1      32.239 -50.654 -30.159  0.00  0.00    -0.050 Br
ATOM     17  C   UNL A   1      32.663 -49.439 -27.615  0.00  0.00    -0.044 A 
ATOM     18  C   UNL A   1      32.966 -48.403 -26.725  0.00  0.00    -0.018 A 
ATOM     19  C   UNL A   1      33.256 -47.164 -27.290  0.00  0.00    +0.136 A 
ATOM     20  O   UNL A   1      33.575 -46.035 -26.599  0.00  0.00    -0.452 OA
ENDBRANCH  10  11
ENDBRANCH   7  10
ENDBRANCH   1   8
BRANCH   5  21
ATOM     21  C   UNL A   1      37.395 -37.515 -29.238  0.00  0.00    +0.048 C 
BRANCH  21  22
ATOM     22  C   UNL A   1      38.811 -37.482 -29.760  0.00  0.00    -0.026 A 
ATOM     23  C   UNL A   1      39.848 -38.147 -29.088  0.00  0.00    -0.055 A 
ATOM     24  C   UNL A   1      41.156 -38.104 -29.583  0.00  0.00    -0.042 A 
ATOM     25  C   UNL A   1      41.450 -37.402 -30.755  0.00  0.00    +0.059 A 
ATOM     26 CL   UNL A   1      43.088 -37.388 -31.297  0.00  0.00    -0.082 Cl
ATOM     27  C   UNL A   1      40.426 -36.743 -31.438  0.00  0.00    +0.060 A 
ATOM     28 CL   UNL A   1      40.699 -35.853 -32.890  0.00  0.00    -0.082 Cl
ATOM     29  C   UNL A   1      39.114 -36.787 -30.944  0.00  0.00    -0.037 A 
ENDBRANCH  21  22
ENDBRANCH   5  21
TORSDOF 5
ENDMDL
MODEL 6
REMARK VINA RESULT:    -7.981      7.323     10.944
REMARK INTER + INTRA:         -11.042
REMARK INTER:                 -10.328
REMARK INTRA:                  -0.714
REMARK UNBOUND:                -0.729
REMARK  Name = cpd134.pdb
REMARK  5 active torsions:
REMARK  status: ('A' for Active; 'I' for Inactive)
REMARK    1  A    between atoms: C_2  and  C_3
REMARK    2  A    between atoms: C_2  and  C_20
REMARK    3  A    between atoms: C_4  and  C_5
REMARK    4  A    between atoms: N_9  and  C_10
REMARK    5  A    between atoms: C_10  and  C_11
REMARK                            x       y       z     vdW  Elec       q    Type
REMARK                         _______ _______ _______ _____ _____    ______ ____
ROOT
ATOM      1  C   UNL A   1      37.123 -35.480 -30.665  0.00  0.00    -0.009 A 
ATOM      2  C   UNL A   1      38.373 -35.785 -31.202  0.00  0.00    -0.052 A 
ATOM      3  C   UNL A   1      39.155 -36.779 -30.623  0.00  0.00    -0.045 A 
ATOM      4  C   UNL A   1      38.684 -37.450 -29.503  0.00  0.00    +0.005 A 
ATOM      5  N   UNL A   1      37.482 -37.135 -28.966  0.00  0.00    -0.348 N 
ATOM      6  C   UNL A   1      36.707 -36.173 -29.524  0.00  0.00    +0.012 A 
ENDROOT
BRANCH   1   8
ATOM      7  C   UNL A   1      35.562 -33.564 -30.466  0.00  0.00    -0.011 C 
ATOM      8  C   UNL A   1      36.260 -34.428 -31.221  0.00  0.00    -0.049 C 
BRANCH   7  10
ATOM      9  O   UNL A   1      35.008 -31.937 -32.020  0.00  0.00    -0.284 OA
ATOM     10  C   UNL A   1      34.650 -32.496 -30.983  0.00  0.00    +0.221 C 
BRANCH  10  11
ATOM     11  C   UNL A   1      33.412 -32.165 -30.307  0.00  0.00    +0.176 A 
ATOM     12  C   UNL A   1      32.722 -30.966 -30.262  0.00  0.00    -0.005 A 
ATOM     13  C   UNL A   1      31.547 -31.187 -29.500  0.00  0.00    +0.022 A 
ATOM     14  C   UNL A   1      30.454 -30.404 -29.091  0.00  0.00    -0.037 A 
ATOM     15  C   UNL A   1      29.450 -31.015 -28.327  0.00  0.00    +0.019 A 
ATOM     16 BR   UNL A   1      27.966 -29.984 -27.761  0.00  0.00    -0.050 Br
ATOM     17  C   UNL A   1      29.518 -32.365 -27.976  0.00  0.00    -0.044 A 
ATOM     18  C   UNL A   1      30.600 -33.158 -28.377  0.00  0.00    -0.018 A 
ATOM     19  C   UNL A   1      31.585 -32.527 -29.133  0.00  0.00    +0.136 A 
ATOM     20  O   UNL A   1      32.711 -33.120 -29.618  0.00  0.00    -0.452 OA
ENDBRANCH  10  11
ENDBRANCH   7  10
ENDBRANCH   1   8
BRANCH   5  21
ATOM     21  C   UNL A   1      37.001 -37.869 -27.767  0.00  0.00    +0.048 C 
BRANCH  21  22
ATOM     22  C   UNL A   1      36.078 -39.000 -28.153  0.00  0.00    -0.026 A 
ATOM     23  C   UNL A   1      36.515 -40.041 -28.986  0.00  0.00    -0.055 A 
ATOM     24  C   UNL A   1      35.647 -41.081 -29.337  0.00  0.00    -0.042 A 
ATOM     25  C   UNL A   1      34.333 -41.100 -28.861  0.00  0.00    +0.059 A 
ATOM     26 CL   UNL A   1      33.320 -42.411 -29.346  0.00  0.00    -0.082 Cl
ATOM     27  C   UNL A   1      33.888 -40.075 -28.024  0.00  0.00    +0.060 A 
ATOM     28 CL   UNL A   1      32.284 -40.019 -27.393  0.00  0.00    -0.082 Cl
ATOM     29  C   UNL A   1      34.758 -39.034 -27.670  0.00  0.00    -0.037 A 
ENDBRANCH  21  22
ENDBRANCH   5  21
TORSDOF 5
ENDMDL
MODEL 7
REMARK VINA RESULT:    -7.910      5.842      8.675
REMARK INTER + INTRA:         -10.951
REMARK INTER:                 -10.227
REMARK INTRA:                  -0.724
REMARK UNBOUND:                -0.729
REMARK  Name = cpd134.pdb
REMARK  5 active torsions:
REMARK  status: ('A' for Active; 'I' for Inactive)
REMARK    1  A    between atoms: C_2  and  C_3
REMARK    2  A    between atoms: C_2  and  C_20
REMARK    3  A    between atoms: C_4  and  C_5
REMARK    4  A    between atoms: N_9  and  C_10
REMARK    5  A    between atoms: C_10  and  C_11
REMARK                            x       y       z     vdW  Elec       q    Type
REMARK                         _______ _______ _______ _____ _____    ______ ____
ROOT
ATOM      1  C   UNL A   1      34.441 -38.453 -30.812  0.00  0.00    -0.009 A 
ATOM      2  C   UNL A   1      34.409 -39.819 -31.091  0.00  0.00    -0.052 A 
ATOM      3  C   UNL A   1      35.311 -40.676 -30.469  0.00  0.00    -0.045 A 
ATOM      4  C   UNL A   1      36.246 -40.157 -29.585  0.00  0.00    +0.005 A 
ATOM      5  N   UNL A   1      36.293 -38.827 -29.336  0.00  0.00    -0.348 N 
ATOM      6  C   UNL A   1      35.416 -37.981 -29.929  0.00  0.00    +0.012 A 
ENDROOT
BRANCH   1   8
ATOM      7  C   UNL A   1      33.404 -37.359 -32.782  0.00  0.00    -0.011 C 
ATOM      8  C   UNL A   1      33.526 -37.495 -31.451  0.00  0.00    -0.049 C 
BRANCH   7  10
ATOM      9  O   UNL A   1      32.113 -36.716 -34.595  0.00  0.00    -0.284 OA
ATOM     10  C   UNL A   1      32.511 -36.381 -33.478  0.00  0.00    +0.221 C 
BRANCH  10  11
ATOM     11  C   UNL A   1      32.129 -35.129 -32.857  0.00  0.00    +0.176 A 
ATOM     12  C   UNL A   1      30.870 -34.641 -32.553  0.00  0.00    -0.005 A 
ATOM     13  C   UNL A   1      31.050 -33.388 -31.913  0.00  0.00    +0.022 A 
ATOM     14  C   UNL A   1      30.202 -32.407 -31.371  0.00  0.00    -0.037 A 
ATOM     15  C   UNL A   1      30.786 -31.271 -30.794  0.00  0.00    +0.019 A 
ATOM     16 BR   UNL A   1      29.668 -29.933 -30.057  0.00  0.00    -0.050 Br
ATOM     17  C   UNL A   1      32.173 -31.106 -30.750  0.00  0.00    -0.044 A 
ATOM     18  C   UNL A   1      33.029 -32.074 -31.285  0.00  0.00    -0.018 A 
ATOM     19  C   UNL A   1      32.424 -33.192 -31.854  0.00  0.00    +0.136 A 
ATOM     20  O   UNL A   1      33.079 -34.241 -32.424  0.00  0.00    -0.452 OA
ENDBRANCH  10  11
ENDBRANCH   7  10
ENDBRANCH   1   8
BRANCH   5  21
ATOM     21  C   UNL A   1      37.303 -38.296 -28.384  0.00  0.00    +0.048 C 
BRANCH  21  22
ATOM     22  C   UNL A   1      38.592 -37.950 -29.091  0.00  0.00    -0.026 A 
ATOM     23  C   UNL A   1      39.825 -38.440 -28.634  0.00  0.00    -0.055 A 
ATOM     24  C   UNL A   1      41.010 -38.107 -29.298  0.00  0.00    -0.042 A 
ATOM     25  C   UNL A   1      40.985 -37.284 -30.428  0.00  0.00    +0.059 A 
ATOM     26 CL   UNL A   1      42.489 -36.911 -31.187  0.00  0.00    -0.082 Cl
ATOM     27  C   UNL A   1      39.764 -36.797 -30.898  0.00  0.00    +0.060 A 
ATOM     28 CL   UNL A   1      39.641 -35.776 -32.283  0.00  0.00    -0.082 Cl
ATOM     29  C   UNL A   1      38.575 -37.132 -30.235  0.00  0.00    -0.037 A 
ENDBRANCH  21  22
ENDBRANCH   5  21
TORSDOF 5
ENDMDL
MODEL 8
REMARK VINA RESULT:    -7.868     24.422     26.612
REMARK INTER + INTRA:         -10.896
REMARK INTER:                 -10.081
REMARK INTRA:                  -0.815
REMARK UNBOUND:                -0.729
REMARK  Name = cpd134.pdb
REMARK  5 active torsions:
REMARK  status: ('A' for Active; 'I' for Inactive)
REMARK    1  A    between atoms: C_2  and  C_3
REMARK    2  A    between atoms: C_2  and  C_20
REMARK    3  A    between atoms: C_4  and  C_5
REMARK    4  A    between atoms: N_9  and  C_10
REMARK    5  A    between atoms: C_10  and  C_11
REMARK                            x       y       z     vdW  Elec       q    Type
REMARK                         _______ _______ _______ _____ _____    ______ ____
ROOT
ATOM      1  C   UNL A   1      53.392 -31.668 -53.035  0.00  0.00    -0.009 A 
ATOM      2  C   UNL A   1      54.244 -30.690 -53.546  0.00  0.00    -0.052 A 
ATOM      3  C   UNL A   1      55.601 -30.958 -53.696  0.00  0.00    -0.045 A 
ATOM      4  C   UNL A   1      56.096 -32.198 -53.319  0.00  0.00    +0.005 A 
ATOM      5  N   UNL A   1      55.273 -33.138 -52.797  0.00  0.00    -0.348 N 
ATOM      6  C   UNL A   1      53.947 -32.893 -52.653  0.00  0.00    +0.012 A 
ENDROOT
BRANCH   1   8
ATOM      7  C   UNL A   1      51.069 -31.359 -53.844  0.00  0.00    -0.011 C 
ATOM      8  C   UNL A   1      51.954 -31.438 -52.837  0.00  0.00    -0.049 C 
BRANCH   7  10
ATOM      9  O   UNL A   1      49.276 -29.919 -53.559  0.00  0.00    -0.284 OA
ATOM     10  C   UNL A   1      49.603 -31.098 -53.696  0.00  0.00    +0.221 C 
BRANCH  10  11
ATOM     11  C   UNL A   1      48.635 -32.175 -53.732  0.00  0.00    +0.176 A 
ATOM     12  C   UNL A   1      47.320 -32.169 -54.164  0.00  0.00    -0.005 A 
ATOM     13  C   UNL A   1      46.828 -33.492 -54.031  0.00  0.00    +0.022 A 
ATOM     14  C   UNL A   1      45.607 -34.140 -54.285  0.00  0.00    -0.037 A 
ATOM     15  C   UNL A   1      45.517 -35.513 -54.022  0.00  0.00    +0.019 A 
ATOM     16 BR   UNL A   1      43.884 -36.411 -54.356  0.00  0.00    -0.050 Br
ATOM     17  C   UNL A   1      46.605 -36.234 -53.522  0.00  0.00    -0.044 A 
ATOM     18  C   UNL A   1      47.827 -35.603 -53.264  0.00  0.00    -0.018 A 
ATOM     19  C   UNL A   1      47.889 -34.237 -53.532  0.00  0.00    +0.136 A 
ATOM     20  O   UNL A   1      48.982 -33.445 -53.349  0.00  0.00    -0.452 OA
ENDBRANCH  10  11
ENDBRANCH   7  10
ENDBRANCH   1   8
BRANCH   5  21
ATOM     21  C   UNL A   1      55.827 -34.459 -52.402  0.00  0.00    +0.048 C 
BRANCH  21  22
ATOM     22  C   UNL A   1      55.653 -34.704 -50.922  0.00  0.00    -0.026 A 
ATOM     23  C   UNL A   1      54.743 -35.661 -50.447  0.00  0.00    -0.055 A 
ATOM     24  C   UNL A   1      54.591 -35.873 -49.073  0.00  0.00    -0.042 A 
ATOM     25  C   UNL A   1      55.345 -35.139 -48.152  0.00  0.00    +0.059 A 
ATOM     26 CL   UNL A   1      55.094 -35.452 -46.474  0.00  0.00    -0.082 Cl
ATOM     27  C   UNL A   1      56.260 -34.191 -48.612  0.00  0.00    +0.060 A 
ATOM     28 CL   UNL A   1      57.229 -33.240 -47.547  0.00  0.00    -0.082 Cl
ATOM     29  C   UNL A   1      56.414 -33.978 -49.990  0.00  0.00    -0.037 A 
ENDBRANCH  21  22
ENDBRANCH   5  21
TORSDOF 5
ENDMDL
MODEL 9
REMARK VINA RESULT:    -7.818      6.447      9.754
REMARK INTER + INTRA:         -10.832
REMARK INTER:                 -10.082
REMARK INTRA:                  -0.750
REMARK UNBOUND:                -0.729
REMARK  Name = cpd134.pdb
REMARK  5 active torsions:
REMARK  status: ('A' for Active; 'I' for Inactive)
REMARK    1  A    between atoms: C_2  and  C_3
REMARK    2  A    between atoms: C_2  and  C_20
REMARK    3  A    between atoms: C_4  and  C_5
REMARK    4  A    between atoms: N_9  and  C_10
REMARK    5  A    between atoms: C_10  and  C_11
REMARK                            x       y       z     vdW  Elec       q    Type
REMARK                         _______ _______ _______ _____ _____    ______ ____
ROOT
ATOM      1  C   UNL A   1      34.999 -39.911 -28.513  0.00  0.00    -0.009 A 
ATOM      2  C   UNL A   1      34.943 -40.520 -29.766  0.00  0.00    -0.052 A 
ATOM      3  C   UNL A   1      35.604 -39.949 -30.848  0.00  0.00    -0.045 A 
ATOM      4  C   UNL A   1      36.305 -38.764 -30.669  0.00  0.00    +0.005 A 
ATOM      5  N   UNL A   1      36.337 -38.159 -29.458  0.00  0.00    -0.348 N 
ATOM      6  C   UNL A   1      35.702 -38.709 -28.394  0.00  0.00    +0.012 A 
ENDROOT
BRANCH   1   8
ATOM      7  C   UNL A   1      33.209 -39.900 -26.796  0.00  0.00    -0.011 C 
ATOM      8  C   UNL A   1      34.305 -40.456 -27.337  0.00  0.00    -0.049 C 
BRANCH   7  10
ATOM      9  O   UNL A   1      31.376 -40.894 -25.787  0.00  0.00    -0.284 OA
ATOM     10  C   UNL A   1      32.486 -40.400 -25.586  0.00  0.00    +0.221 C 
BRANCH  10  11
ATOM     11  C   UNL A   1      33.076 -40.322 -24.265  0.00  0.00    +0.176 A 
ATOM     12  C   UNL A   1      33.763 -41.284 -23.545  0.00  0.00    -0.005 A 
ATOM     13  C   UNL A   1      34.168 -40.683 -22.325  0.00  0.00    +0.022 A 
ATOM     14  C   UNL A   1      34.879 -41.103 -21.188  0.00  0.00    -0.037 A 
ATOM     15  C   UNL A   1      35.091 -40.175 -20.159  0.00  0.00    +0.019 A 
ATOM     16 BR   UNL A   1      36.045 -40.713 -18.615  0.00  0.00    -0.050 Br
ATOM     17  C   UNL A   1      34.617 -38.864 -20.249  0.00  0.00    -0.044 A 
ATOM     18  C   UNL A   1      33.908 -38.432 -21.375  0.00  0.00    -0.018 A 
ATOM     19  C   UNL A   1      33.709 -39.373 -22.382  0.00  0.00    +0.136 A 
ATOM     20  O   UNL A   1      33.048 -39.152 -23.552  0.00  0.00    -0.452 OA
ENDBRANCH  10  11
ENDBRANCH   7  10
ENDBRANCH   1   8
BRANCH   5  21
ATOM     21  C   UNL A   1      37.095 -36.892 -29.293  0.00  0.00    +0.048 C 
BRANCH  21  22
ATOM     22  C   UNL A   1      38.519 -37.040 -29.771  0.00  0.00    -0.026 A 
ATOM     23  C   UNL A   1      39.447 -37.815 -29.058  0.00  0.00    -0.055 A 
ATOM     24  C   UNL A   1      40.764 -37.940 -29.512  0.00  0.00    -0.042 A 
ATOM     25  C   UNL A   1      41.176 -37.298 -30.684  0.00  0.00    +0.059 A 
ATOM     26 CL   UNL A   1      42.819 -37.493 -31.174  0.00  0.00    -0.082 Cl
ATOM     27  C   UNL A   1      40.260 -36.532 -31.407  0.00  0.00    +0.060 A 
ATOM     28 CL   UNL A   1      40.683 -35.706 -32.861  0.00  0.00    -0.082 Cl
ATOM     29  C   UNL A   1      38.939 -36.408 -30.954  0.00  0.00    -0.037 A 
ENDBRANCH  21  22
ENDBRANCH   5  21
TORSDOF 5
ENDMDL
MODEL 10
REMARK VINA RESULT:    -7.615      1.907      2.529
REMARK INTER + INTRA:         -10.569
REMARK INTER:                  -9.796
REMARK INTRA:                  -0.773
REMARK UNBOUND:                -0.729
REMARK  Name = cpd134.pdb
REMARK  5 active torsions:
REMARK  status: ('A' for Active; 'I' for Inactive)
REMARK    1  A    between atoms: C_2  and  C_3
REMARK    2  A    between atoms: C_2  and  C_20
REMARK    3  A    between atoms: C_4  and  C_5
REMARK    4  A    between atoms: N_9  and  C_10
REMARK    5  A    between atoms: C_10  and  C_11
REMARK                            x       y       z     vdW  Elec       q    Type
REMARK                         _______ _______ _______ _____ _____    ______ ____
ROOT
ATOM      1  C   UNL A   1      35.144 -39.928 -31.093  0.00  0.00    -0.009 A 
ATOM      2  C   UNL A   1      35.381 -41.086 -30.352  0.00  0.00    -0.052 A 
ATOM      3  C   UNL A   1      36.150 -41.026 -29.195  0.00  0.00    -0.045 A 
ATOM      4  C   UNL A   1      36.687 -39.810 -28.796  0.00  0.00    +0.005 A 
ATOM      5  N   UNL A   1      36.478 -38.691 -29.530  0.00  0.00    -0.348 N 
ATOM      6  C   UNL A   1      35.725 -38.734 -30.657  0.00  0.00    +0.012 A 
ENDROOT
BRANCH   1   8
ATOM      7  C   UNL A   1      33.208 -39.250 -32.487  0.00  0.00    -0.011 C 
ATOM      8  C   UNL A   1      34.355 -39.932 -32.334  0.00  0.00    -0.049 C 
BRANCH   7  10
ATOM      9  O   UNL A   1      31.704 -38.219 -33.916  0.00  0.00    -0.284 OA
ATOM     10  C   UNL A   1      32.357 -39.244 -33.717  0.00  0.00    +0.221 C 
BRANCH  10  11
ATOM     11  C   UNL A   1      32.327 -40.375 -34.623  0.00  0.00    +0.176 A 
ATOM     12  C   UNL A   1      32.102 -41.715 -34.358  0.00  0.00    -0.005 A 
ATOM     13  C   UNL A   1      32.136 -42.399 -35.600  0.00  0.00    +0.022 A 
ATOM     14  C   UNL A   1      31.986 -43.733 -36.015  0.00  0.00    -0.037 A 
ATOM     15  C   UNL A   1      32.079 -44.015 -37.385  0.00  0.00    +0.019 A 
ATOM     16 BR   UNL A   1      31.881 -45.804 -37.972  0.00  0.00    -0.050 Br
ATOM     17  C   UNL A   1      32.312 -43.008 -38.324  0.00  0.00    -0.044 A 
ATOM     18  C   UNL A   1      32.463 -41.675 -37.926  0.00  0.00    -0.018 A 
ATOM     19  C   UNL A   1      32.368 -41.421 -36.560  0.00  0.00    +0.136 A 
ATOM     20  O   UNL A   1      32.485 -40.198 -35.973  0.00  0.00    -0.452 OA
ENDBRANCH  10  11
ENDBRANCH   7  10
ENDBRANCH   1   8
BRANCH   5  21
ATOM     21  C   UNL A   1      37.063 -37.402 -29.082  0.00  0.00    +0.048 C 
BRANCH  21  22
ATOM     22  C   UNL A   1      38.172 -36.954 -30.003  0.00  0.00    -0.026 A 
ATOM     23  C   UNL A   1      37.967 -35.932 -30.943  0.00  0.00    -0.055 A 
ATOM     24  C   UNL A   1      39.004 -35.531 -31.793  0.00  0.00    -0.042 A 
ATOM     25  C   UNL A   1      40.260 -36.139 -31.717  0.00  0.00    +0.059 A 
ATOM     26 CL   UNL A   1      41.485 -35.596 -32.804  0.00  0.00    -0.082 Cl
ATOM     27  C   UNL A   1      40.480 -37.151 -30.780  0.00  0.00    +0.060 A 
ATOM     28 CL   UNL A   1      41.997 -37.956 -30.620  0.00  0.00    -0.082 Cl
ATOM     29  C   UNL A   1      39.442 -37.553 -29.927  0.00  0.00    -0.037 A 
ENDBRANCH  21  22
ENDBRANCH   5  21
TORSDOF 5
ENDMDL
MODEL 11
REMARK VINA RESULT:    -7.520      5.395     10.052
REMARK INTER + INTRA:         -10.446
REMARK INTER:                  -9.728
REMARK INTRA:                  -0.718
REMARK UNBOUND:                -0.729
REMARK  Name = cpd134.pdb
REMARK  5 active torsions:
REMARK  status: ('A' for Active; 'I' for Inactive)
REMARK    1  A    between atoms: C_2  and  C_3
REMARK    2  A    between atoms: C_2  and  C_20
REMARK    3  A    between atoms: C_4  and  C_5
REMARK    4  A    between atoms: N_9  and  C_10
REMARK    5  A    between atoms: C_10  and  C_11
REMARK                            x       y       z     vdW  Elec       q    Type
REMARK                         _______ _______ _______ _____ _____    ______ ____
ROOT
ATOM      1  C   UNL A   1      34.149 -40.765 -31.006  0.00  0.00    -0.009 A 
ATOM      2  C   UNL A   1      33.087 -41.463 -30.430  0.00  0.00    -0.052 A 
ATOM      3  C   UNL A   1      32.121 -42.051 -31.239  0.00  0.00    -0.045 A 
ATOM      4  C   UNL A   1      32.218 -41.925 -32.617  0.00  0.00    +0.005 A 
ATOM      5  N   UNL A   1      33.234 -41.225 -33.175  0.00  0.00    -0.348 N 
ATOM      6  C   UNL A   1      34.186 -40.652 -32.399  0.00  0.00    +0.012 A 
ENDROOT
BRANCH   1   8
ATOM      7  C   UNL A   1      34.926 -39.293 -29.168  0.00  0.00    -0.011 C 
ATOM      8  C   UNL A   1      35.190 -40.107 -30.203  0.00  0.00    -0.049 C 
BRANCH   7  10
ATOM      9  O   UNL A   1      35.704 -38.498 -27.136  0.00  0.00    -0.284 OA
ATOM     10  C   UNL A   1      35.947 -38.579 -28.340  0.00  0.00    +0.221 C 
BRANCH  10  11
ATOM     11  C   UNL A   1      37.154 -38.036 -28.929  0.00  0.00    +0.176 A 
ATOM     12  C   UNL A   1      38.480 -38.334 -28.663  0.00  0.00    -0.005 A 
ATOM     13  C   UNL A   1      39.270 -37.555 -29.546  0.00  0.00    +0.022 A 
ATOM     14  C   UNL A   1      40.645 -37.392 -29.784  0.00  0.00    -0.037 A 
ATOM     15  C   UNL A   1      41.043 -36.502 -30.790  0.00  0.00    +0.019 A 
ATOM     16 BR   UNL A   1      42.890 -36.262 -31.131  0.00  0.00    -0.050 Br
ATOM     17  C   UNL A   1      40.110 -35.790 -31.548  0.00  0.00    -0.044 A 
ATOM     18  C   UNL A   1      38.737 -35.942 -31.323  0.00  0.00    -0.018 A 
ATOM     19  C   UNL A   1      38.367 -36.831 -30.316  0.00  0.00    +0.136 A 
ATOM     20  O   UNL A   1      37.089 -37.118 -29.946  0.00  0.00    -0.452 OA
ENDBRANCH  10  11
ENDBRANCH   7  10
ENDBRANCH   1   8
BRANCH   5  21
ATOM     21  C   UNL A   1      33.315 -41.105 -34.654  0.00  0.00    +0.048 C 
BRANCH  21  22
ATOM     22  C   UNL A   1      33.201 -42.455 -35.319  0.00  0.00    -0.026 A 
ATOM     23  C   UNL A   1      32.278 -42.679 -36.352  0.00  0.00    -0.055 A 
ATOM     24  C   UNL A   1      32.181 -43.937 -36.956  0.00  0.00    -0.042 A 
ATOM     25  C   UNL A   1      33.003 -44.990 -36.542  0.00  0.00    +0.059 A 
ATOM     26 CL   UNL A   1      32.818 -46.514 -37.329  0.00  0.00    -0.082 Cl
ATOM     27  C   UNL A   1      33.931 -44.777 -35.521  0.00  0.00    +0.060 A 
ATOM     28 CL   UNL A   1      34.983 -46.019 -34.947  0.00  0.00    -0.082 Cl
ATOM     29  C   UNL A   1      34.030 -43.516 -34.916  0.00  0.00    -0.037 A 
ENDBRANCH  21  22
ENDBRANCH   5  21
TORSDOF 5
ENDMDL
MODEL 12
REMARK VINA RESULT:    -7.466     20.358     23.096
REMARK INTER + INTRA:         -10.377
REMARK INTER:                  -9.564
REMARK INTRA:                  -0.813
REMARK UNBOUND:                -0.729
REMARK  Name = cpd134.pdb
REMARK  5 active torsions:
REMARK  status: ('A' for Active; 'I' for Inactive)
REMARK    1  A    between atoms: C_2  and  C_3
REMARK    2  A    between atoms: C_2  and  C_20
REMARK    3  A    between atoms: C_4  and  C_5
REMARK    4  A    between atoms: N_9  and  C_10
REMARK    5  A    between atoms: C_10  and  C_11
REMARK                            x       y       z     vdW  Elec       q    Type
REMARK                         _______ _______ _______ _____ _____    ______ ____
ROOT
ATOM      1  C   UNL A   1      44.332 -19.398 -35.888  0.00  0.00    -0.009 A 
ATOM      2  C   UNL A   1      45.036 -18.988 -34.755  0.00  0.00    -0.052 A 
ATOM      3  C   UNL A   1      46.234 -18.296 -34.894  0.00  0.00    -0.045 A 
ATOM      4  C   UNL A   1      46.725 -18.032 -36.165  0.00  0.00    +0.005 A 
ATOM      5  N   UNL A   1      46.055 -18.453 -37.264  0.00  0.00    -0.348 N 
ATOM      6  C   UNL A   1      44.882 -19.123 -37.143  0.00  0.00    +0.012 A 
ENDROOT
BRANCH   1   8
ATOM      7  C   UNL A   1      42.714 -21.101 -36.682  0.00  0.00    -0.011 C 
ATOM      8  C   UNL A   1      43.070 -20.148 -35.805  0.00  0.00    -0.049 C 
BRANCH   7  10
ATOM      9  O   UNL A   1      41.403 -22.893 -37.343  0.00  0.00    -0.284 OA
ATOM     10  C   UNL A   1      41.431 -21.871 -36.657  0.00  0.00    +0.221 C 
BRANCH  10  11
ATOM     11  C   UNL A   1      40.305 -21.441 -35.853  0.00  0.00    +0.176 A 
ATOM     12  C   UNL A   1      39.511 -20.314 -35.975  0.00  0.00    -0.005 A 
ATOM     13  C   UNL A   1      38.519 -20.389 -34.964  0.00  0.00    +0.022 A 
ATOM     14  C   UNL A   1      37.440 -19.588 -34.555  0.00  0.00    -0.037 A 
ATOM     15  C   UNL A   1      36.658 -20.027 -33.479  0.00  0.00    +0.019 A 
ATOM     16 BR   UNL A   1      35.197 -18.968 -32.907  0.00  0.00    -0.050 Br
ATOM     17  C   UNL A   1      36.930 -21.229 -32.820  0.00  0.00    -0.044 A 
ATOM     18  C   UNL A   1      38.002 -22.037 -33.216  0.00  0.00    -0.018 A 
ATOM     19  C   UNL A   1      38.765 -21.578 -34.287  0.00  0.00    +0.136 A 
ATOM     20  O   UNL A   1      39.843 -22.215 -34.820  0.00  0.00    -0.452 OA
ENDBRANCH  10  11
ENDBRANCH   7  10
ENDBRANCH   1   8
BRANCH   5  21
ATOM     21  C   UNL A   1      46.601 -18.157 -38.613  0.00  0.00    +0.048 C 
BRANCH  21  22
ATOM     22  C   UNL A   1      46.511 -19.363 -39.516  0.00  0.00    -0.026 A 
ATOM     23  C   UNL A   1      47.146 -20.569 -39.183  0.00  0.00    -0.055 A 
ATOM     24  C   UNL A   1      47.057 -21.677 -40.032  0.00  0.00    -0.042 A 
ATOM     25  C   UNL A   1      46.330 -21.602 -41.224  0.00  0.00    +0.059 A 
ATOM     26 CL   UNL A   1      46.273 -23.007 -42.223  0.00  0.00    -0.082 Cl
ATOM     27  C   UNL A   1      45.685 -20.410 -41.563  0.00  0.00    +0.060 A 
ATOM     28 CL   UNL A   1      44.770 -20.229 -43.014  0.00  0.00    -0.082 Cl
ATOM     29  C   UNL A   1      45.774 -19.300 -40.711  0.00  0.00    -0.037 A 
ENDBRANCH  21  22
ENDBRANCH   5  21
TORSDOF 5
ENDMDL
MODEL 13
REMARK VINA RESULT:    -7.451     20.114     22.747
REMARK INTER + INTRA:         -10.357
REMARK INTER:                  -9.529
REMARK INTRA:                  -0.828
REMARK UNBOUND:                -0.729
REMARK  Name = cpd134.pdb
REMARK  5 active torsions:
REMARK  status: ('A' for Active; 'I' for Inactive)
REMARK    1  A    between atoms: C_2  and  C_3
REMARK    2  A    between atoms: C_2  and  C_20
REMARK    3  A    between atoms: C_4  and  C_5
REMARK    4  A    between atoms: N_9  and  C_10
REMARK    5  A    between atoms: C_10  and  C_11
REMARK                            x       y       z     vdW  Elec       q    Type
REMARK                         _______ _______ _______ _____ _____    ______ ____
ROOT
ATOM      1  C   UNL A   1      41.097 -21.530 -36.260  0.00  0.00    -0.009 A 
ATOM      2  C   UNL A   1      40.214 -22.549 -36.617  0.00  0.00    -0.052 A 
ATOM      3  C   UNL A   1      39.268 -23.002 -35.704  0.00  0.00    -0.045 A 
ATOM      4  C   UNL A   1      39.224 -22.440 -34.435  0.00  0.00    +0.005 A 
ATOM      5  N   UNL A   1      40.099 -21.470 -34.080  0.00  0.00    -0.348 N 
ATOM      6  C   UNL A   1      41.021 -21.015 -34.963  0.00  0.00    +0.012 A 
ENDROOT
BRANCH   1   8
ATOM      7  C   UNL A   1      42.867 -19.928 -36.930  0.00  0.00    -0.011 C 
ATOM      8  C   UNL A   1      42.129 -21.023 -37.176  0.00  0.00    -0.049 C 
BRANCH   7  10
ATOM      9  O   UNL A   1      44.173 -18.166 -37.676  0.00  0.00    -0.284 OA
ATOM     10  C   UNL A   1      43.908 -19.357 -37.841  0.00  0.00    +0.221 C 
BRANCH  10  11
ATOM     11  C   UNL A   1      44.570 -20.171 -38.839  0.00  0.00    +0.176 A 
ATOM     12  C   UNL A   1      45.706 -20.955 -38.730  0.00  0.00    -0.005 A 
ATOM     13  C   UNL A   1      45.905 -21.581 -39.986  0.00  0.00    +0.022 A 
ATOM     14  C   UNL A   1      46.849 -22.472 -40.525  0.00  0.00    -0.037 A 
ATOM     15  C   UNL A   1      46.690 -22.881 -41.856  0.00  0.00    +0.019 A 
ATOM     16 BR   UNL A   1      47.947 -24.081 -42.608  0.00  0.00    -0.050 Br
ATOM     17  C   UNL A   1      45.626 -22.426 -42.638  0.00  0.00    -0.044 A 
ATOM     18  C   UNL A   1      44.678 -21.539 -42.115  0.00  0.00    -0.018 A 
ATOM     19  C   UNL A   1      44.859 -21.146 -40.792  0.00  0.00    +0.136 A 
ATOM     20  O   UNL A   1      44.052 -20.294 -40.102  0.00  0.00    -0.452 OA
ENDBRANCH  10  11
ENDBRANCH   7  10
ENDBRANCH   1   8
BRANCH   5  21
ATOM     21  C   UNL A   1      40.030 -20.885 -32.716  0.00  0.00    +0.048 C 
BRANCH  21  22
ATOM     22  C   UNL A   1      39.187 -19.633 -32.700  0.00  0.00    -0.026 A 
ATOM     23  C   UNL A   1      39.777 -18.360 -32.704  0.00  0.00    -0.055 A 
ATOM     24  C   UNL A   1      38.982 -17.209 -32.685  0.00  0.00    -0.042 A 
ATOM     25  C   UNL A   1      37.588 -17.309 -32.666  0.00  0.00    +0.059 A 
ATOM     26 CL   UNL A   1      36.676 -15.844 -32.635  0.00  0.00    -0.082 Cl
ATOM     27  C   UNL A   1      36.988 -18.569 -32.671  0.00  0.00    +0.060 A 
ATOM     28 CL   UNL A   1      35.276 -18.785 -32.646  0.00  0.00    -0.082 Cl
ATOM     29  C   UNL A   1      37.784 -19.724 -32.692  0.00  0.00    -0.037 A 
ENDBRANCH  21  22
ENDBRANCH   5  21
TORSDOF 5
ENDMDL
MODEL 14
REMARK VINA RESULT:    -7.200      7.812     10.712
REMARK INTER + INTRA:         -10.033
REMARK INTER:                  -9.470
REMARK INTRA:                  -0.563
REMARK UNBOUND:                -0.729
REMARK  Name = cpd134.pdb
REMARK  5 active torsions:
REMARK  status: ('A' for Active; 'I' for Inactive)
REMARK    1  A    between atoms: C_2  and  C_3
REMARK    2  A    between atoms: C_2  and  C_20
REMARK    3  A    between atoms: C_4  and  C_5
REMARK    4  A    between atoms: N_9  and  C_10
REMARK    5  A    between atoms: C_10  and  C_11
REMARK                            x       y       z     vdW  Elec       q    Type
REMARK                         _______ _______ _______ _____ _____    ______ ____
ROOT
ATOM      1  C   UNL A   1      33.214 -38.253 -25.191  0.00  0.00    -0.009 A 
ATOM      2  C   UNL A   1      32.045 -37.557 -25.496  0.00  0.00    -0.052 A 
ATOM      3  C   UNL A   1      31.312 -36.949 -24.482  0.00  0.00    -0.045 A 
ATOM      4  C   UNL A   1      31.750 -37.055 -23.169  0.00  0.00    +0.005 A 
ATOM      5  N   UNL A   1      32.871 -37.754 -22.871  0.00  0.00    -0.348 N 
ATOM      6  C   UNL A   1      33.597 -38.345 -23.850  0.00  0.00    +0.012 A 
ENDROOT
BRANCH   1   8
ATOM      7  C   UNL A   1      34.573 -38.299 -27.265  0.00  0.00    -0.011 C 
ATOM      8  C   UNL A   1      34.020 -38.931 -26.217  0.00  0.00    -0.049 C 
BRANCH   7  10
ATOM      9  O   UNL A   1      34.958 -40.035 -28.751  0.00  0.00    -0.284 OA
ATOM     10  C   UNL A   1      35.376 -38.948 -28.348  0.00  0.00    +0.221 C 
BRANCH  10  11
ATOM     11  C   UNL A   1      36.559 -38.317 -28.896  0.00  0.00    +0.176 A 
ATOM     12  C   UNL A   1      37.894 -38.529 -28.596  0.00  0.00    -0.005 A 
ATOM     13  C   UNL A   1      38.653 -37.686 -29.447  0.00  0.00    +0.022 A 
ATOM     14  C   UNL A   1      40.020 -37.427 -29.644  0.00  0.00    -0.037 A 
ATOM     15  C   UNL A   1      40.385 -36.497 -30.627  0.00  0.00    +0.019 A 
ATOM     16 BR   UNL A   1      42.220 -36.129 -30.913  0.00  0.00    -0.050 Br
ATOM     17  C   UNL A   1      39.426 -35.839 -31.400  0.00  0.00    -0.044 A 
ATOM     18  C   UNL A   1      38.061 -36.086 -31.216  0.00  0.00    -0.018 A 
ATOM     19  C   UNL A   1      37.725 -37.013 -30.232  0.00  0.00    +0.136 A 
ATOM     20  O   UNL A   1      36.459 -37.391 -29.901  0.00  0.00    -0.452 OA
ENDBRANCH  10  11
ENDBRANCH   7  10
ENDBRANCH   1   8
BRANCH   5  21
ATOM     21  C   UNL A   1      33.318 -37.852 -21.457  0.00  0.00    +0.048 C 
BRANCH  21  22
ATOM     22  C   UNL A   1      33.833 -39.235 -21.141  0.00  0.00    -0.026 A 
ATOM     23  C   UNL A   1      33.025 -40.369 -21.319  0.00  0.00    -0.055 A 
ATOM     24  C   UNL A   1      33.516 -41.644 -21.018  0.00  0.00    -0.042 A 
ATOM     25  C   UNL A   1      34.819 -41.809 -20.539  0.00  0.00    +0.059 A 
ATOM     26 CL   UNL A   1      35.349 -43.412 -20.182  0.00  0.00    -0.082 Cl
ATOM     27  C   UNL A   1      35.636 -40.690 -20.367  0.00  0.00    +0.060 A 
ATOM     28 CL   UNL A   1      37.254 -40.802 -19.780  0.00  0.00    -0.082 Cl
ATOM     29  C   UNL A   1      35.145 -39.412 -20.670  0.00  0.00    -0.037 A 
ENDBRANCH  21  22
ENDBRANCH   5  21
TORSDOF 5
ENDMDL
MODEL 15
REMARK VINA RESULT:    -7.172     19.297     23.081
REMARK INTER + INTRA:          -9.997
REMARK INTER:                  -9.096
REMARK INTRA:                  -0.901
REMARK UNBOUND:                -0.729
REMARK  Name = cpd134.pdb
REMARK  5 active torsions:
REMARK  status: ('A' for Active; 'I' for Inactive)
REMARK    1  A    between atoms: C_2  and  C_3
REMARK    2  A    between atoms: C_2  and  C_20
REMARK    3  A    between atoms: C_4  and  C_5
REMARK    4  A    between atoms: N_9  and  C_10
REMARK    5  A    between atoms: C_10  and  C_11
REMARK                            x       y       z     vdW  Elec       q    Type
REMARK                         _______ _______ _______ _____ _____    ______ ____
ROOT
ATOM      1  C   UNL A   1      44.831 -18.894 -35.558  0.00  0.00    -0.009 A 
ATOM      2  C   UNL A   1      45.831 -19.348 -34.700  0.00  0.00    -0.052 A 
ATOM      3  C   UNL A   1      47.151 -19.397 -35.134  0.00  0.00    -0.045 A 
ATOM      4  C   UNL A   1      47.457 -19.004 -36.429  0.00  0.00    +0.005 A 
ATOM      5  N   UNL A   1      46.482 -18.589 -37.272  0.00  0.00    -0.348 N 
ATOM      6  C   UNL A   1      45.192 -18.529 -36.859  0.00  0.00    +0.012 A 
ENDROOT
BRANCH   1   8
ATOM      7  C   UNL A   1      42.418 -18.546 -36.014  0.00  0.00    -0.011 C 
ATOM      8  C   UNL A   1      43.416 -18.836 -35.163  0.00  0.00    -0.049 C 
BRANCH   7  10
ATOM      9  O   UNL A   1      40.456 -17.335 -35.781  0.00  0.00    -0.284 OA
ATOM     10  C   UNL A   1      40.969 -18.448 -35.654  0.00  0.00    +0.221 C 
BRANCH  10  11
ATOM     11  C   UNL A   1      40.220 -19.604 -35.205  0.00  0.00    +0.176 A 
ATOM     12  C   UNL A   1      40.337 -20.933 -35.575  0.00  0.00    -0.005 A 
ATOM     13  C   UNL A   1      39.397 -21.666 -34.807  0.00  0.00    +0.022 A 
ATOM     14  C   UNL A   1      39.021 -23.016 -34.704  0.00  0.00    -0.037 A 
ATOM     15  C   UNL A   1      38.020 -23.356 -33.784  0.00  0.00    +0.019 A 
ATOM     16 BR   UNL A   1      37.492 -25.167 -33.624  0.00  0.00    -0.050 Br
ATOM     17  C   UNL A   1      37.405 -22.391 -32.982  0.00  0.00    -0.044 A 
ATOM     18  C   UNL A   1      37.770 -21.043 -33.074  0.00  0.00    -0.018 A 
ATOM     19  C   UNL A   1      38.765 -20.731 -33.997  0.00  0.00    +0.136 A 
ATOM     20  O   UNL A   1      39.259 -19.484 -34.235  0.00  0.00    -0.452 OA
ENDBRANCH  10  11
ENDBRANCH   7  10
ENDBRANCH   1   8
BRANCH   5  21
ATOM     21  C   UNL A   1      46.835 -18.173 -38.653  0.00  0.00    +0.048 C 
BRANCH  21  22
ATOM     22  C   UNL A   1      46.380 -19.196 -39.666  0.00  0.00    -0.026 A 
ATOM     23  C   UNL A   1      45.370 -18.900 -40.593  0.00  0.00    -0.055 A 
ATOM     24  C   UNL A   1      44.956 -19.860 -41.523  0.00  0.00    -0.042 A 
ATOM     25  C   UNL A   1      45.545 -21.128 -41.545  0.00  0.00    +0.059 A 
ATOM     26 CL   UNL A   1      44.975 -22.261 -42.714  0.00  0.00    -0.082 Cl
ATOM     27  C   UNL A   1      46.558 -21.432 -40.633  0.00  0.00    +0.060 A 
ATOM     28 CL   UNL A   1      47.337 -22.971 -40.588  0.00  0.00    -0.082 Cl
ATOM     29  C   UNL A   1      46.974 -20.470 -39.702  0.00  0.00    -0.037 A 
ENDBRANCH  21  22
ENDBRANCH   5  21
TORSDOF 5
ENDMDL
MODEL 16
REMARK VINA RESULT:    -7.162      5.358      9.612
REMARK INTER + INTRA:          -9.984
REMARK INTER:                  -9.117
REMARK INTRA:                  -0.867
REMARK UNBOUND:                -0.729
REMARK  Name = cpd134.pdb
REMARK  5 active torsions:
REMARK  status: ('A' for Active; 'I' for Inactive)
REMARK    1  A    between atoms: C_2  and  C_3
REMARK    2  A    between atoms: C_2  and  C_20
REMARK    3  A    between atoms: C_4  and  C_5
REMARK    4  A    between atoms: N_9  and  C_10
REMARK    5  A    between atoms: C_10  and  C_11
REMARK                            x       y       z     vdW  Elec       q    Type
REMARK                         _______ _______ _______ _____ _____    ______ ____
ROOT
ATOM      1  C   UNL A   1      34.072 -41.726 -29.223  0.00  0.00    -0.009 A 
ATOM      2  C   UNL A   1      34.226 -42.815 -28.366  0.00  0.00    -0.052 A 
ATOM      3  C   UNL A   1      33.482 -43.972 -28.570  0.00  0.00    -0.045 A 
ATOM      4  C   UNL A   1      32.578 -44.024 -29.622  0.00  0.00    +0.005 A 
ATOM      5  N   UNL A   1      32.409 -42.956 -30.437  0.00  0.00    -0.348 N 
ATOM      6  C   UNL A   1      33.133 -41.825 -30.254  0.00  0.00    +0.012 A 
ENDROOT
BRANCH   1   8
ATOM      7  C   UNL A   1      34.735 -39.706 -27.947  0.00  0.00    -0.011 C 
ATOM      8  C   UNL A   1      34.816 -40.471 -29.048  0.00  0.00    -0.049 C 
BRANCH   7  10
ATOM      9  O   UNL A   1      34.909 -37.617 -26.960  0.00  0.00    -0.284 OA
ATOM     10  C   UNL A   1      35.450 -38.409 -27.733  0.00  0.00    +0.221 C 
BRANCH  10  11
ATOM     11  C   UNL A   1      36.711 -38.123 -28.386  0.00  0.00    +0.176 A 
ATOM     12  C   UNL A   1      36.982 -37.296 -29.462  0.00  0.00    -0.005 A 
ATOM     13  C   UNL A   1      38.383 -37.335 -29.677  0.00  0.00    +0.022 A 
ATOM     14  C   UNL A   1      39.276 -36.740 -30.585  0.00  0.00    -0.037 A 
ATOM     15  C   UNL A   1      40.641 -37.031 -30.459  0.00  0.00    +0.019 A 
ATOM     16 BR   UNL A   1      41.867 -36.244 -31.669  0.00  0.00    -0.050 Br
ATOM     17  C   UNL A   1      41.117 -37.886 -29.463  0.00  0.00    -0.044 A 
ATOM     18  C   UNL A   1      40.241 -38.486 -28.552  0.00  0.00    -0.018 A 
ATOM     19  C   UNL A   1      38.889 -38.182 -28.699  0.00  0.00    +0.136 A 
ATOM     20  O   UNL A   1      37.882 -38.661 -27.917  0.00  0.00    -0.452 OA
ENDBRANCH  10  11
ENDBRANCH   7  10
ENDBRANCH   1   8
BRANCH   5  21
ATOM     21  C   UNL A   1      31.436 -43.038 -31.557  0.00  0.00    +0.048 C 
BRANCH  21  22
ATOM     22  C   UNL A   1      32.132 -42.957 -32.894  0.00  0.00    -0.026 A 
ATOM     23  C   UNL A   1      33.071 -43.926 -33.282  0.00  0.00    -0.055 A 
ATOM     24  C   UNL A   1      33.711 -43.835 -34.523  0.00  0.00    -0.042 A 
ATOM     25  C   UNL A   1      33.424 -42.782 -35.396  0.00  0.00    +0.059 A 
ATOM     26 CL   UNL A   1      34.260 -42.734 -36.904  0.00  0.00    -0.082 Cl
ATOM     27  C   UNL A   1      32.485 -41.817 -35.025  0.00  0.00    +0.060 A 
ATOM     28 CL   UNL A   1      32.072 -40.483 -36.039  0.00  0.00    -0.082 Cl
ATOM     29  C   UNL A   1      31.842 -41.908 -33.782  0.00  0.00    -0.037 A 
ENDBRANCH  21  22
ENDBRANCH   5  21
TORSDOF 5
ENDMDL
MODEL 17
REMARK VINA RESULT:    -7.074     20.032     23.295
REMARK INTER + INTRA:          -9.871
REMARK INTER:                  -9.014
REMARK INTRA:                  -0.857
REMARK UNBOUND:                -0.729
REMARK  Name = cpd134.pdb
REMARK  5 active torsions:
REMARK  status: ('A' for Active; 'I' for Inactive)
REMARK    1  A    between atoms: C_2  and  C_3
REMARK    2  A    between atoms: C_2  and  C_20
REMARK    3  A    between atoms: C_4  and  C_5
REMARK    4  A    between atoms: N_9  and  C_10
REMARK    5  A    between atoms: C_10  and  C_11
REMARK                            x       y       z     vdW  Elec       q    Type
REMARK                         _______ _______ _______ _____ _____    ______ ____
ROOT
ATOM      1  C   UNL A   1      44.572 -20.487 -40.797  0.00  0.00    -0.009 A 
ATOM      2  C   UNL A   1      45.600 -21.051 -41.551  0.00  0.00    -0.052 A 
ATOM      3  C   UNL A   1      46.805 -20.373 -41.702  0.00  0.00    -0.045 A 
ATOM      4  C   UNL A   1      46.966 -19.129 -41.107  0.00  0.00    +0.005 A 
ATOM      5  N   UNL A   1      45.958 -18.570 -40.397  0.00  0.00    -0.348 N 
ATOM      6  C   UNL A   1      44.781 -19.223 -40.237  0.00  0.00    +0.012 A 
ENDROOT
BRANCH   1   8
ATOM      7  C   UNL A   1      42.819 -21.590 -39.433  0.00  0.00    -0.011 C 
ATOM      8  C   UNL A   1      43.271 -21.146 -40.617  0.00  0.00    -0.049 C 
BRANCH   7  10
ATOM      9  O   UNL A   1      41.177 -23.092 -40.076  0.00  0.00    -0.284 OA
ATOM     10  C   UNL A   1      41.517 -22.291 -39.204  0.00  0.00    +0.221 C 
BRANCH  10  11
ATOM     11  C   UNL A   1      40.725 -22.048 -38.016  0.00  0.00    +0.176 A 
ATOM     12  C   UNL A   1      39.748 -21.096 -37.783  0.00  0.00    -0.005 A 
ATOM     13  C   UNL A   1      39.251 -21.316 -36.473  0.00  0.00    +0.022 A 
ATOM     14  C   UNL A   1      38.280 -20.716 -35.654  0.00  0.00    -0.037 A 
ATOM     15  C   UNL A   1      38.067 -21.253 -34.377  0.00  0.00    +0.019 A 
ATOM     16 BR   UNL A   1      36.765 -20.464 -33.251  0.00  0.00    -0.050 Br
ATOM     17  C   UNL A   1      38.791 -22.356 -33.918  0.00  0.00    -0.044 A 
ATOM     18  C   UNL A   1      39.761 -22.964 -34.722  0.00  0.00    -0.018 A 
ATOM     19  C   UNL A   1      39.955 -22.411 -35.986  0.00  0.00    +0.136 A 
ATOM     20  O   UNL A   1      40.846 -22.855 -36.914  0.00  0.00    -0.452 OA
ENDBRANCH  10  11
ENDBRANCH   7  10
ENDBRANCH   1   8
BRANCH   5  21
ATOM     21  C   UNL A   1      46.155 -17.238 -39.770  0.00  0.00    +0.048 C 
BRANCH  21  22
ATOM     22  C   UNL A   1      46.139 -17.335 -38.263  0.00  0.00    -0.026 A 
ATOM     23  C   UNL A   1      45.066 -16.826 -37.515  0.00  0.00    -0.055 A 
ATOM     24  C   UNL A   1      45.068 -16.921 -36.119  0.00  0.00    -0.042 A 
ATOM     25  C   UNL A   1      46.135 -17.526 -35.448  0.00  0.00    +0.059 A 
ATOM     26 CL   UNL A   1      46.068 -17.597 -33.726  0.00  0.00    -0.082 Cl
ATOM     27  C   UNL A   1      47.204 -18.045 -36.182  0.00  0.00    +0.060 A 
ATOM     28 CL   UNL A   1      48.561 -18.806 -35.437  0.00  0.00    -0.082 Cl
ATOM     29  C   UNL A   1      47.202 -17.952 -37.581  0.00  0.00    -0.037 A 
ENDBRANCH  21  22
ENDBRANCH   5  21
TORSDOF 5
ENDMDL
MODEL 18
REMARK VINA RESULT:    -7.057     20.883     24.685
REMARK INTER + INTRA:          -9.848
REMARK INTER:                  -9.261
REMARK INTRA:                  -0.587
REMARK UNBOUND:                -0.729
REMARK  Name = cpd134.pdb
REMARK  5 active torsions:
REMARK  status: ('A' for Active; 'I' for Inactive)
REMARK    1  A    between atoms: C_2  and  C_3
REMARK    2  A    between atoms: C_2  and  C_20
REMARK    3  A    between atoms: C_4  and  C_5
REMARK    4  A    between atoms: N_9  and  C_10
REMARK    5  A    between atoms: C_10  and  C_11
REMARK                            x       y       z     vdW  Elec       q    Type
REMARK                         _______ _______ _______ _____ _____    ______ ____
ROOT
ATOM      1  C   UNL A   1      45.555 -16.795 -36.975  0.00  0.00    -0.009 A 
ATOM      2  C   UNL A   1      46.774 -16.172 -37.241  0.00  0.00    -0.052 A 
ATOM      3  C   UNL A   1      47.189 -15.989 -38.556  0.00  0.00    -0.045 A 
ATOM      4  C   UNL A   1      46.388 -16.444 -39.593  0.00  0.00    +0.005 A 
ATOM      5  N   UNL A   1      45.217 -17.073 -39.334  0.00  0.00    -0.348 N 
ATOM      6  C   UNL A   1      44.797 -17.252 -38.057  0.00  0.00    +0.012 A 
ENDROOT
BRANCH   1   8
ATOM      7  C   UNL A   1      45.003 -18.250 -35.045  0.00  0.00    -0.011 C 
ATOM      8  C   UNL A   1      45.070 -17.032 -35.608  0.00  0.00    -0.049 C 
BRANCH   7  10
ATOM      9  O   UNL A   1      45.265 -18.299 -32.743  0.00  0.00    -0.284 OA
ATOM     10  C   UNL A   1      44.492 -18.546 -33.670  0.00  0.00    +0.221 C 
BRANCH  10  11
ATOM     11  C   UNL A   1      43.160 -19.071 -33.454  0.00  0.00    +0.176 A 
ATOM     12  C   UNL A   1      41.936 -18.426 -33.497  0.00  0.00    -0.005 A 
ATOM     13  C   UNL A   1      40.938 -19.404 -33.256  0.00  0.00    +0.022 A 
ATOM     14  C   UNL A   1      39.535 -19.405 -33.169  0.00  0.00    -0.037 A 
ATOM     15  C   UNL A   1      38.888 -20.623 -32.919  0.00  0.00    +0.019 A 
ATOM     16 BR   UNL A   1      36.999 -20.655 -32.796  0.00  0.00    -0.050 Br
ATOM     17  C   UNL A   1      39.604 -21.812 -32.760  0.00  0.00    -0.044 A 
ATOM     18  C   UNL A   1      41.001 -21.826 -32.845  0.00  0.00    -0.018 A 
ATOM     19  C   UNL A   1      41.620 -20.603 -33.092  0.00  0.00    +0.136 A 
ATOM     20  O   UNL A   1      42.962 -20.406 -33.210  0.00  0.00    -0.452 OA
ENDBRANCH  10  11
ENDBRANCH   7  10
ENDBRANCH   1   8
BRANCH   5  21
ATOM     21  C   UNL A   1      44.377 -17.551 -40.462  0.00  0.00    +0.048 C 
BRANCH  21  22
ATOM     22  C   UNL A   1      44.874 -18.874 -40.992  0.00  0.00    -0.026 A 
ATOM     23  C   UNL A   1      44.571 -19.293 -42.297  0.00  0.00    -0.055 A 
ATOM     24  C   UNL A   1      45.036 -20.524 -42.772  0.00  0.00    -0.042 A 
ATOM     25  C   UNL A   1      45.811 -21.354 -41.957  0.00  0.00    +0.059 A 
ATOM     26 CL   UNL A   1      46.339 -22.861 -42.611  0.00  0.00    -0.082 Cl
ATOM     27  C   UNL A   1      46.126 -20.945 -40.659  0.00  0.00    +0.060 A 
ATOM     28 CL   UNL A   1      47.074 -21.906 -39.586  0.00  0.00    -0.082 Cl
ATOM     29  C   UNL A   1      45.662 -19.710 -40.183  0.00  0.00    -0.037 A 
ENDBRANCH  21  22
ENDBRANCH   5  21
TORSDOF 5
ENDMDL
MODEL 19
REMARK VINA RESULT:    -6.872     20.671     22.859
REMARK INTER + INTRA:          -9.609
REMARK INTER:                  -8.896
REMARK INTRA:                  -0.713
REMARK UNBOUND:                -0.729
REMARK  Name = cpd134.pdb
REMARK  5 active torsions:
REMARK  status: ('A' for Active; 'I' for Inactive)
REMARK    1  A    between atoms: C_2  and  C_3
REMARK    2  A    between atoms: C_2  and  C_20
REMARK    3  A    between atoms: C_4  and  C_5
REMARK    4  A    between atoms: N_9  and  C_10
REMARK    5  A    between atoms: C_10  and  C_11
REMARK                            x       y       z     vdW  Elec       q    Type
REMARK                         _______ _______ _______ _____ _____    ______ ____
ROOT
ATOM      1  C   UNL A   1      43.177 -20.212 -35.713  0.00  0.00    -0.009 A 
ATOM      2  C   UNL A   1      44.068 -19.963 -34.670  0.00  0.00    -0.052 A 
ATOM      3  C   UNL A   1      45.293 -19.357 -34.931  0.00  0.00    -0.045 A 
ATOM      4  C   UNL A   1      45.621 -19.020 -36.236  0.00  0.00    +0.005 A 
ATOM      5  N   UNL A   1      44.767 -19.286 -37.252  0.00  0.00    -0.348 N 
ATOM      6  C   UNL A   1      43.567 -19.870 -37.011  0.00  0.00    +0.012 A 
ENDROOT
BRANCH   1   8
ATOM      7  C   UNL A   1      41.399 -21.196 -34.292  0.00  0.00    -0.011 C 
ATOM      8  C   UNL A   1      41.877 -20.865 -35.503  0.00  0.00    -0.049 C 
BRANCH   7  10
ATOM      9  O   UNL A   1      40.156 -23.107 -33.881  0.00  0.00    -0.284 OA
ATOM     10  C   UNL A   1      40.098 -21.886 -34.029  0.00  0.00    +0.221 C 
BRANCH  10  11
ATOM     11  C   UNL A   1      38.855 -21.148 -33.934  0.00  0.00    +0.176 A 
ATOM     12  C   UNL A   1      38.055 -20.899 -32.832  0.00  0.00    -0.005 A 
ATOM     13  C   UNL A   1      36.976 -20.091 -33.272  0.00  0.00    +0.022 A 
ATOM     14  C   UNL A   1      35.849 -19.507 -32.669  0.00  0.00    -0.037 A 
ATOM     15  C   UNL A   1      34.991 -18.740 -33.470  0.00  0.00    +0.019 A 
ATOM     16 BR   UNL A   1      33.464 -17.943 -32.684  0.00  0.00    -0.050 Br
ATOM     17  C   UNL A   1      35.239 -18.549 -34.831  0.00  0.00    -0.044 A 
ATOM     18  C   UNL A   1      36.357 -19.124 -35.445  0.00  0.00    -0.018 A 
ATOM     19  C   UNL A   1      37.192 -19.883 -34.629  0.00  0.00    +0.136 A 
ATOM     20  O   UNL A   1      38.326 -20.521 -35.033  0.00  0.00    -0.452 OA
ENDBRANCH  10  11
ENDBRANCH   7  10
ENDBRANCH   1   8
BRANCH   5  21
ATOM     21  C   UNL A   1      45.142 -18.914 -38.641  0.00  0.00    +0.048 C 
BRANCH  21  22
ATOM     22  C   UNL A   1      45.646 -20.111 -39.411  0.00  0.00    -0.026 A 
ATOM     23  C   UNL A   1      46.749 -20.852 -38.960  0.00  0.00    -0.055 A 
ATOM     24  C   UNL A   1      47.207 -21.956 -39.687  0.00  0.00    -0.042 A 
ATOM     25  C   UNL A   1      46.570 -22.342 -40.870  0.00  0.00    +0.059 A 
ATOM     26 CL   UNL A   1      47.198 -23.709 -41.715  0.00  0.00    -0.082 Cl
ATOM     27  C   UNL A   1      45.466 -21.618 -41.325  0.00  0.00    +0.060 A 
ATOM     28 CL   UNL A   1      44.622 -22.022 -42.774  0.00  0.00    -0.082 Cl
ATOM     29  C   UNL A   1      45.006 -20.512 -40.596  0.00  0.00    -0.037 A 
ENDBRANCH  21  22
ENDBRANCH   5  21
TORSDOF 5
ENDMDL
MODEL 20
REMARK VINA RESULT:    -6.862      8.387     10.847
REMARK INTER + INTRA:          -9.597
REMARK INTER:                  -8.816
REMARK INTRA:                  -0.781
REMARK UNBOUND:                -0.729
REMARK  Name = cpd134.pdb
REMARK  5 active torsions:
REMARK  status: ('A' for Active; 'I' for Inactive)
REMARK    1  A    between atoms: C_2  and  C_3
REMARK    2  A    between atoms: C_2  and  C_20
REMARK    3  A    between atoms: C_4  and  C_5
REMARK    4  A    between atoms: N_9  and  C_10
REMARK    5  A    between atoms: C_10  and  C_11
REMARK                            x       y       z     vdW  Elec       q    Type
REMARK                         _______ _______ _______ _____ _____    ______ ____
ROOT
ATOM      1  C   UNL A   1      35.245 -37.149 -27.962  0.00  0.00    -0.009 A 
ATOM      2  C   UNL A   1      36.533 -37.679 -28.025  0.00  0.00    -0.052 A 
ATOM      3  C   UNL A   1      37.267 -37.584 -29.202  0.00  0.00    -0.045 A 
ATOM      4  C   UNL A   1      36.700 -36.972 -30.311  0.00  0.00    +0.005 A 
ATOM      5  N   UNL A   1      35.438 -36.482 -30.257  0.00  0.00    -0.348 N 
ATOM      6  C   UNL A   1      34.715 -36.562 -29.114  0.00  0.00    +0.012 A 
ENDROOT
BRANCH   1   8
ATOM      7  C   UNL A   1      33.211 -36.649 -26.634  0.00  0.00    -0.011 C 
ATOM      8  C   UNL A   1      34.413 -37.235 -26.752  0.00  0.00    -0.049 C 
BRANCH   7  10
ATOM      9  O   UNL A   1      31.345 -35.962 -25.445  0.00  0.00    -0.284 OA
ATOM     10  C   UNL A   1      32.342 -36.684 -25.416  0.00  0.00    +0.221 C 
BRANCH  10  11
ATOM     11  C   UNL A   1      32.654 -37.536 -24.287  0.00  0.00    +0.176 A 
ATOM     12  C   UNL A   1      32.509 -38.905 -24.145  0.00  0.00    -0.005 A 
ATOM     13  C   UNL A   1      33.005 -39.248 -22.861  0.00  0.00    +0.022 A 
ATOM     14  C   UNL A   1      33.141 -40.435 -22.122  0.00  0.00    -0.037 A 
ATOM     15  C   UNL A   1      33.710 -40.359 -20.844  0.00  0.00    +0.019 A 
ATOM     16 BR   UNL A   1      33.905 -41.943 -19.825  0.00  0.00    -0.050 Br
ATOM     17  C   UNL A   1      34.137 -39.143 -20.306  0.00  0.00    -0.044 A 
ATOM     18  C   UNL A   1      34.008 -37.952 -21.030  0.00  0.00    -0.018 A 
ATOM     19  C   UNL A   1      33.438 -38.054 -22.296  0.00  0.00    +0.136 A 
ATOM     20  O   UNL A   1      33.227 -37.018 -23.154  0.00  0.00    -0.452 OA
ENDBRANCH  10  11
ENDBRANCH   7  10
ENDBRANCH   1   8
BRANCH   5  21
ATOM     21  C   UNL A   1      34.854 -35.831 -31.458  0.00  0.00    +0.048 C 
BRANCH  21  22
ATOM     22  C   UNL A   1      34.083 -34.588 -31.085  0.00  0.00    -0.026 A 
ATOM     23  C   UNL A   1      34.690 -33.544 -30.370  0.00  0.00    -0.055 A 
ATOM     24  C   UNL A   1      33.961 -32.400 -30.029  0.00  0.00    -0.042 A 
ATOM     25  C   UNL A   1      32.618 -32.277 -30.396  0.00  0.00    +0.059 A 
ATOM     26 CL   UNL A   1      31.783 -30.840 -29.931  0.00  0.00    -0.082 Cl
ATOM     27  C   UNL A   1      32.004 -33.305 -31.116  0.00  0.00    +0.060 A 
ATOM     28 CL   UNL A   1      30.353 -33.237 -31.609  0.00  0.00    -0.082 Cl
ATOM     29  C   UNL A   1      32.735 -34.451 -31.460  0.00  0.00    -0.037 A 
ENDBRANCH  21  22
ENDBRANCH   5  21
TORSDOF 5
ENDMDL
