REMARK  Name = cpd253.pdb
REMARK  5 active torsions:
REMARK  status: ('A' for Active; 'I' for Inactive)
REMARK    1  A    between atoms: C_4  and  C_5
REMARK    2  A    between atoms: C_8  and  N_9
REMARK    3  A    between atoms: N_9  and  C_10
REMARK    4  A    between atoms: C_10  and  C_11
REMARK    5  A    between atoms: C_11  and  N_12
REMARK                            x       y       z     vdW  Elec       q    Type
REMARK                         _______ _______ _______ _____ _____    ______ ____
ROOT
ATOM      1  C   UNL     1       0.844   2.079   0.336  0.00  0.00    +0.093 A 
ATOM      2  C   UNL     1       0.623   3.422   0.063  0.00  0.00    -0.031 A 
ATOM      3  C   UNL     1       1.671   4.333   0.202  0.00  0.00    -0.018 A 
ATOM      4  C   UNL     1       2.918   3.885   0.604  0.00  0.00    +0.141 A 
ATOM      5  N   UNL     1       3.106   2.581   0.871  0.00  0.00    -0.134 NA
ATOM      6  N   UNL     1       2.073   1.674   0.728  0.00  0.00    -0.147 NA
ENDROOT
BRANCH   1  10
ATOM      7  C   UNL     1      -2.141  -1.007  -0.030  0.00  0.00    -0.062 A 
ATOM      8  C   UNL     1      -2.525   0.297   0.268  0.00  0.00    -0.061 A 
ATOM      9  C   UNL     1      -1.559   1.302   0.391  0.00  0.00    -0.053 A 
ATOM     10  C   UNL     1      -0.189   1.030   0.216  0.00  0.00    +0.002 A 
ATOM     11  C   UNL     1       0.169  -0.301  -0.075  0.00  0.00    -0.053 A 
ATOM     12  C   UNL     1      -0.794  -1.308  -0.199  0.00  0.00    -0.061 A 
ENDBRANCH   1  10
BRANCH   4  13
ATOM     13  N   UNL     1       3.996   4.759   0.768  0.00  0.00    -0.326 N 
ATOM     14  H   UNL     1       4.458   4.885   1.628  0.00  0.00    +0.000 HD
BRANCH  13  15
ATOM     15  C   UNL     1       4.377   5.471  -0.455  0.00  0.00    +0.023 C 
BRANCH  15  16
ATOM     16  C   UNL     1       5.857   5.911  -0.357  0.00  0.00    +0.014 C 
BRANCH  16  17
ATOM     17  N   UNL     1       6.780   4.819   0.037  0.00  0.00    -0.301 N 
ATOM     18  C   UNL     1       8.103   5.377   0.364  0.00  0.00    -0.001 C 
ATOM     19  C   UNL     1       9.066   4.291   0.844  0.00  0.00    -0.040 C 
ATOM     20  C   UNL     1       9.197   3.175  -0.184  0.00  0.00    -0.051 C 
ATOM     21  C   UNL     1       7.820   2.652  -0.574  0.00  0.00    -0.040 C 
ATOM     22  C   UNL     1       6.892   3.789  -1.009  0.00  0.00    -0.001 C 
ATOM     23  H   UNL     1       6.394   4.363   0.864  0.00  0.00    +0.000 HD
ENDBRANCH  16  17
ENDBRANCH  15  16
ENDBRANCH  13  15
ENDBRANCH   4  13
TORSDOF 5
