MODEL 1
REMARK VINA RESULT:    -9.361      0.000      0.000
REMARK INTER + INTRA:         -12.552
REMARK INTER:                 -12.097
REMARK INTRA:                  -0.455
REMARK UNBOUND:                -0.455
REMARK  Name = cpd253.pdb
REMARK  5 active torsions:
REMARK  status: ('A' for Active; 'I' for Inactive)
REMARK    1  A    between atoms: C_4  and  C_5
REMARK    2  A    between atoms: C_8  and  N_9
REMARK    3  A    between atoms: N_9  and  C_10
REMARK    4  A    between atoms: C_10  and  C_11
REMARK    5  A    between atoms: C_11  and  N_12
REMARK                            x       y       z     vdW  Elec       q    Type
REMARK                         _______ _______ _______ _____ _____    ______ ____
ROOT
ATOM      1  C   UNL     1      47.216 -39.213 -29.673  0.00  0.00    +0.093 A 
ATOM      2  C   UNL     1      46.707 -40.503 -29.722  0.00  0.00    -0.031 A 
ATOM      3  C   UNL     1      45.325 -40.697 -29.735  0.00  0.00    -0.018 A 
ATOM      4  C   UNL     1      44.480 -39.600 -29.704  0.00  0.00    +0.141 A 
ATOM      5  N   UNL     1      44.996 -38.360 -29.648  0.00  0.00    -0.134 NA
ATOM      6  N   UNL     1      46.364 -38.163 -29.642  0.00  0.00    -0.147 NA
ENDROOT
BRANCH   1  10
ATOM      7  C   UNL     1      51.428 -38.303 -29.674  0.00  0.00    -0.062 A 
ATOM      8  C   UNL     1      50.641 -37.941 -28.584  0.00  0.00    -0.061 A 
ATOM      9  C   UNL     1      49.272 -38.232 -28.581  0.00  0.00    -0.053 A 
ATOM     10  C   UNL     1      48.658 -38.892 -29.662  0.00  0.00    +0.002 A 
ATOM     11  C   UNL     1      49.478 -39.236 -30.754  0.00  0.00    -0.053 A 
ATOM     12  C   UNL     1      50.847 -38.948 -30.760  0.00  0.00    -0.061 A 
ENDBRANCH   1  10
BRANCH   4  13
ATOM     13  N   UNL     1      43.090 -39.742 -29.705  0.00  0.00    -0.326 N 
ATOM     14  H   UNL     1      42.619 -40.413 -29.159  0.00  0.00    +0.000 HD
BRANCH  13  15
ATOM     15  C   UNL     1      42.395 -38.803 -30.590  0.00  0.00    +0.023 C 
BRANCH  15  16
ATOM     16  C   UNL     1      41.367 -37.987 -29.772  0.00  0.00    +0.014 C 
BRANCH  16  17
ATOM     17  N   UNL     1      40.731 -36.888 -30.539  0.00  0.00    -0.301 N 
ATOM     18  C   UNL     1      39.265 -36.990 -30.435  0.00  0.00    -0.001 C 
ATOM     19  C   UNL     1      38.571 -35.833 -31.155  0.00  0.00    -0.040 C 
ATOM     20  C   UNL     1      38.998 -35.755 -32.614  0.00  0.00    -0.051 C 
ATOM     21  C   UNL     1      40.518 -35.724 -32.719  0.00  0.00    -0.040 C 
ATOM     22  C   UNL     1      41.155 -36.884 -31.949  0.00  0.00    -0.001 C 
ATOM     23  H   UNL     1      41.035 -36.003 -30.134  0.00  0.00    +0.000 HD
ENDBRANCH  16  17
ENDBRANCH  15  16
ENDBRANCH  13  15
ENDBRANCH   4  13
TORSDOF 5
ENDMDL
MODEL 2
REMARK VINA RESULT:    -8.810      1.315      9.041
REMARK INTER + INTRA:         -11.840
REMARK INTER:                 -11.349
REMARK INTRA:                  -0.492
REMARK UNBOUND:                -0.455
REMARK  Name = cpd253.pdb
REMARK  5 active torsions:
REMARK  status: ('A' for Active; 'I' for Inactive)
REMARK    1  A    between atoms: C_4  and  C_5
REMARK    2  A    between atoms: C_8  and  N_9
REMARK    3  A    between atoms: N_9  and  C_10
REMARK    4  A    between atoms: C_10  and  C_11
REMARK    5  A    between atoms: C_11  and  N_12
REMARK                            x       y       z     vdW  Elec       q    Type
REMARK                         _______ _______ _______ _____ _____    ______ ____
ROOT
ATOM      1  C   UNL     1      40.339 -37.076 -30.814  0.00  0.00    +0.093 A 
ATOM      2  C   UNL     1      41.196 -36.905 -31.892  0.00  0.00    -0.031 A 
ATOM      3  C   UNL     1      42.440 -37.537 -31.887  0.00  0.00    -0.018 A 
ATOM      4  C   UNL     1      42.800 -38.331 -30.812  0.00  0.00    +0.141 A 
ATOM      5  N   UNL     1      41.957 -38.475 -29.775  0.00  0.00    -0.134 NA
ATOM      6  N   UNL     1      40.721 -37.856 -29.778  0.00  0.00    -0.147 NA
ENDROOT
BRANCH   1  10
ATOM      7  C   UNL     1      36.420 -35.311 -30.506  0.00  0.00    -0.062 A 
ATOM      8  C   UNL     1      37.320 -34.839 -31.457  0.00  0.00    -0.061 A 
ATOM      9  C   UNL     1      38.595 -35.407 -31.559  0.00  0.00    -0.053 A 
ATOM     10  C   UNL     1      38.999 -36.460 -30.717  0.00  0.00    +0.002 A 
ATOM     11  C   UNL     1      38.070 -36.909 -29.758  0.00  0.00    -0.053 A 
ATOM     12  C   UNL     1      36.795 -36.344 -29.654  0.00  0.00    -0.061 A 
ENDBRANCH   1  10
BRANCH   4  13
ATOM     13  N   UNL     1      44.038 -38.977 -30.755  0.00  0.00    -0.326 N 
ATOM     14  H   UNL     1      44.593 -39.142 -31.551  0.00  0.00    +0.000 HD
BRANCH  13  15
ATOM     15  C   UNL     1      44.436 -39.385 -29.405  0.00  0.00    +0.023 C 
BRANCH  15  16
ATOM     16  C   UNL     1      45.747 -40.204 -29.478  0.00  0.00    +0.014 C 
BRANCH  16  17
ATOM     17  N   UNL     1      46.895 -39.446 -30.032  0.00  0.00    -0.301 N 
ATOM     18  C   UNL     1      48.043 -40.348 -30.224  0.00  0.00    -0.001 C 
ATOM     19  C   UNL     1      49.227 -39.620 -30.861  0.00  0.00    -0.040 C 
ATOM     20  C   UNL     1      49.635 -38.404 -30.039  0.00  0.00    -0.051 C 
ATOM     21  C   UNL     1      48.427 -37.512 -29.781  0.00  0.00    -0.040 C 
ATOM     22  C   UNL     1      47.264 -38.305 -29.179  0.00  0.00    -0.001 C 
ATOM     23  H   UNL     1      46.614 -39.064 -30.936  0.00  0.00    +0.000 HD
ENDBRANCH  16  17
ENDBRANCH  15  16
ENDBRANCH  13  15
ENDBRANCH   4  13
TORSDOF 5
ENDMDL
MODEL 3
REMARK VINA RESULT:    -8.312      2.087      9.097
REMARK INTER + INTRA:         -11.197
REMARK INTER:                 -10.729
REMARK INTRA:                  -0.468
REMARK UNBOUND:                -0.455
REMARK  Name = cpd253.pdb
REMARK  5 active torsions:
REMARK  status: ('A' for Active; 'I' for Inactive)
REMARK    1  A    between atoms: C_4  and  C_5
REMARK    2  A    between atoms: C_8  and  N_9
REMARK    3  A    between atoms: N_9  and  C_10
REMARK    4  A    between atoms: C_10  and  C_11
REMARK    5  A    between atoms: C_11  and  N_12
REMARK                            x       y       z     vdW  Elec       q    Type
REMARK                         _______ _______ _______ _____ _____    ______ ____
ROOT
ATOM      1  C   UNL     1      40.538 -36.618 -30.640  0.00  0.00    +0.093 A 
ATOM      2  C   UNL     1      40.962 -35.802 -31.680  0.00  0.00    -0.031 A 
ATOM      3  C   UNL     1      42.328 -35.649 -31.920  0.00  0.00    -0.018 A 
ATOM      4  C   UNL     1      43.242 -36.317 -31.122  0.00  0.00    +0.141 A 
ATOM      5  N   UNL     1      42.807 -37.095 -30.115  0.00  0.00    -0.134 NA
ATOM      6  N   UNL     1      41.455 -37.255 -29.879  0.00  0.00    -0.147 NA
ENDROOT
BRANCH   1  10
ATOM      7  C   UNL     1      36.412 -37.347 -29.633  0.00  0.00    -0.062 A 
ATOM      8  C   UNL     1      36.732 -36.405 -30.606  0.00  0.00    -0.061 A 
ATOM      9  C   UNL     1      38.070 -36.162 -30.934  0.00  0.00    -0.053 A 
ATOM     10  C   UNL     1      39.120 -36.856 -30.302  0.00  0.00    +0.002 A 
ATOM     11  C   UNL     1      38.765 -37.796 -29.315  0.00  0.00    -0.053 A 
ATOM     12  C   UNL     1      37.428 -38.041 -28.984  0.00  0.00    -0.061 A 
ENDBRANCH   1  10
BRANCH   4  13
ATOM     13  N   UNL     1      44.620 -36.188 -31.315  0.00  0.00    -0.326 N 
ATOM     14  H   UNL     1      45.057 -36.346 -32.182  0.00  0.00    +0.000 HD
BRANCH  13  15
ATOM     15  C   UNL     1      45.356 -35.796 -30.110  0.00  0.00    +0.023 C 
BRANCH  15  16
ATOM     16  C   UNL     1      46.854 -35.620 -30.454  0.00  0.00    +0.014 C 
BRANCH  16  17
ATOM     17  N   UNL     1      47.631 -36.882 -30.399  0.00  0.00    -0.301 N 
ATOM     18  C   UNL     1      47.237 -37.661 -29.213  0.00  0.00    -0.001 C 
ATOM     19  C   UNL     1      47.964 -39.004 -29.156  0.00  0.00    -0.040 C 
ATOM     20  C   UNL     1      49.475 -38.815 -29.192  0.00  0.00    -0.051 C 
ATOM     21  C   UNL     1      49.871 -37.947 -30.380  0.00  0.00    -0.040 C 
ATOM     22  C   UNL     1      49.083 -36.635 -30.402  0.00  0.00    -0.001 C 
ATOM     23  H   UNL     1      47.419 -37.420 -31.239  0.00  0.00    +0.000 HD
ENDBRANCH  16  17
ENDBRANCH  15  16
ENDBRANCH  13  15
ENDBRANCH   4  13
TORSDOF 5
ENDMDL
MODEL 4
REMARK VINA RESULT:    -7.853      5.784      8.616
REMARK INTER + INTRA:         -10.603
REMARK INTER:                  -9.737
REMARK INTRA:                  -0.867
REMARK UNBOUND:                -0.455
REMARK  Name = cpd253.pdb
REMARK  5 active torsions:
REMARK  status: ('A' for Active; 'I' for Inactive)
REMARK    1  A    between atoms: C_4  and  C_5
REMARK    2  A    between atoms: C_8  and  N_9
REMARK    3  A    between atoms: N_9  and  C_10
REMARK    4  A    between atoms: C_10  and  C_11
REMARK    5  A    between atoms: C_11  and  N_12
REMARK                            x       y       z     vdW  Elec       q    Type
REMARK                         _______ _______ _______ _____ _____    ______ ____
ROOT
ATOM      1  C   UNL     1      38.550 -37.027 -29.772  0.00  0.00    +0.093 A 
ATOM      2  C   UNL     1      38.329 -37.774 -28.623  0.00  0.00    -0.031 A 
ATOM      3  C   UNL     1      37.110 -37.662 -27.954  0.00  0.00    -0.018 A 
ATOM      4  C   UNL     1      36.134 -36.812 -28.448  0.00  0.00    +0.141 A 
ATOM      5  N   UNL     1      36.374 -36.092 -29.557  0.00  0.00    -0.134 NA
ATOM      6  N   UNL     1      37.577 -36.205 -30.228  0.00  0.00    -0.147 NA
ENDROOT
BRANCH   1  10
ATOM      7  C   UNL     1      42.171 -37.138 -32.105  0.00  0.00    -0.062 A 
ATOM      8  C   UNL     1      42.042 -37.955 -30.986  0.00  0.00    -0.061 A 
ATOM      9  C   UNL     1      40.869 -37.920 -30.223  0.00  0.00    -0.053 A 
ATOM     10  C   UNL     1      39.797 -37.073 -30.562  0.00  0.00    +0.002 A 
ATOM     11  C   UNL     1      39.962 -36.251 -31.694  0.00  0.00    -0.053 A 
ATOM     12  C   UNL     1      41.132 -36.283 -32.459  0.00  0.00    -0.061 A 
ENDBRANCH   1  10
BRANCH   4  13
ATOM     13  N   UNL     1      34.902 -36.657 -27.808  0.00  0.00    -0.326 N 
ATOM     14  H   UNL     1      34.817 -36.381 -26.867  0.00  0.00    +0.000 HD
BRANCH  13  15
ATOM     15  C   UNL     1      33.746 -36.942 -28.663  0.00  0.00    +0.023 C 
BRANCH  15  16
ATOM     16  C   UNL     1      32.931 -35.645 -28.880  0.00  0.00    +0.014 C 
BRANCH  16  17
ATOM     17  N   UNL     1      33.514 -34.737 -29.897  0.00  0.00    -0.301 N 
ATOM     18  C   UNL     1      33.874 -33.453 -29.272  0.00  0.00    -0.001 C 
ATOM     19  C   UNL     1      34.544 -32.511 -30.272  0.00  0.00    -0.040 C 
ATOM     20  C   UNL     1      33.662 -32.281 -31.491  0.00  0.00    -0.051 C 
ATOM     21  C   UNL     1      33.231 -33.614 -32.091  0.00  0.00    -0.040 C 
ATOM     22  C   UNL     1      32.602 -34.526 -31.034  0.00  0.00    -0.001 C 
ATOM     23  H   UNL     1      34.356 -35.177 -30.268  0.00  0.00    +0.000 HD
ENDBRANCH  16  17
ENDBRANCH  15  16
ENDBRANCH  13  15
ENDBRANCH   4  13
TORSDOF 5
ENDMDL
MODEL 5
REMARK VINA RESULT:    -7.841      3.599      5.096
REMARK INTER + INTRA:         -10.588
REMARK INTER:                 -10.108
REMARK INTRA:                  -0.480
REMARK UNBOUND:                -0.455
REMARK  Name = cpd253.pdb
REMARK  5 active torsions:
REMARK  status: ('A' for Active; 'I' for Inactive)
REMARK    1  A    between atoms: C_4  and  C_5
REMARK    2  A    between atoms: C_8  and  N_9
REMARK    3  A    between atoms: N_9  and  C_10
REMARK    4  A    between atoms: C_10  and  C_11
REMARK    5  A    between atoms: C_11  and  N_12
REMARK                            x       y       z     vdW  Elec       q    Type
REMARK                         _______ _______ _______ _____ _____    ______ ____
ROOT
ATOM      1  C   UNL     1      42.943 -38.785 -30.147  0.00  0.00    +0.093 A 
ATOM      2  C   UNL     1      43.158 -38.144 -31.360  0.00  0.00    -0.031 A 
ATOM      3  C   UNL     1      42.295 -37.122 -31.759  0.00  0.00    -0.018 A 
ATOM      4  C   UNL     1      41.242 -36.756 -30.938  0.00  0.00    +0.141 A 
ATOM      5  N   UNL     1      41.049 -37.396 -29.772  0.00  0.00    -0.134 NA
ATOM      6  N   UNL     1      41.904 -38.405 -29.369  0.00  0.00    -0.147 NA
ENDROOT
BRANCH   1  10
ATOM      7  C   UNL     1      45.428 -41.975 -28.659  0.00  0.00    -0.062 A 
ATOM      8  C   UNL     1      44.847 -41.077 -27.770  0.00  0.00    -0.061 A 
ATOM      9  C   UNL     1      44.042 -40.037 -28.248  0.00  0.00    -0.053 A 
ATOM     10  C   UNL     1      43.795 -39.872 -29.624  0.00  0.00    +0.002 A 
ATOM     11  C   UNL     1      44.404 -40.792 -30.500  0.00  0.00    -0.053 A 
ATOM     12  C   UNL     1      45.209 -41.832 -30.025  0.00  0.00    -0.061 A 
ENDBRANCH   1  10
BRANCH   4  13
ATOM     13  N   UNL     1      40.345 -35.746 -31.298  0.00  0.00    -0.326 N 
ATOM     14  H   UNL     1      40.521 -34.791 -31.138  0.00  0.00    +0.000 HD
BRANCH  13  15
ATOM     15  C   UNL     1      39.120 -36.237 -31.935  0.00  0.00    +0.023 C 
BRANCH  15  16
ATOM     16  C   UNL     1      38.016 -35.158 -31.831  0.00  0.00    +0.014 C 
BRANCH  16  17
ATOM     17  N   UNL     1      37.197 -35.260 -30.599  0.00  0.00    -0.301 N 
ATOM     18  C   UNL     1      37.237 -36.639 -30.084  0.00  0.00    -0.001 C 
ATOM     19  C   UNL     1      36.462 -36.771 -28.773  0.00  0.00    -0.040 C 
ATOM     20  C   UNL     1      35.021 -36.304 -28.934  0.00  0.00    -0.051 C 
ATOM     21  C   UNL     1      34.984 -34.905 -29.537  0.00  0.00    -0.040 C 
ATOM     22  C   UNL     1      35.807 -34.828 -30.824  0.00  0.00    -0.001 C 
ATOM     23  H   UNL     1      37.595 -34.630 -29.902  0.00  0.00    +0.000 HD
ENDBRANCH  16  17
ENDBRANCH  15  16
ENDBRANCH  13  15
ENDBRANCH   4  13
TORSDOF 5
ENDMDL
MODEL 6
REMARK VINA RESULT:    -7.760      5.872      8.674
REMARK INTER + INTRA:         -10.484
REMARK INTER:                  -9.521
REMARK INTRA:                  -0.963
REMARK UNBOUND:                -0.455
REMARK  Name = cpd253.pdb
REMARK  5 active torsions:
REMARK  status: ('A' for Active; 'I' for Inactive)
REMARK    1  A    between atoms: C_4  and  C_5
REMARK    2  A    between atoms: C_8  and  N_9
REMARK    3  A    between atoms: N_9  and  C_10
REMARK    4  A    between atoms: C_10  and  C_11
REMARK    5  A    between atoms: C_11  and  N_12
REMARK                            x       y       z     vdW  Elec       q    Type
REMARK                         _______ _______ _______ _____ _____    ______ ____
ROOT
ATOM      1  C   UNL     1      38.343 -37.105 -29.713  0.00  0.00    +0.093 A 
ATOM      2  C   UNL     1      37.106 -36.476 -29.744  0.00  0.00    -0.031 A 
ATOM      3  C   UNL     1      36.168 -36.756 -28.748  0.00  0.00    -0.018 A 
ATOM      4  C   UNL     1      36.486 -37.650 -27.741  0.00  0.00    +0.141 A 
ATOM      5  N   UNL     1      37.688 -38.253 -27.736  0.00  0.00    -0.134 NA
ATOM      6  N   UNL     1      38.622 -37.974 -28.716  0.00  0.00    -0.147 NA
ENDROOT
BRANCH   1  10
ATOM      7  C   UNL     1      41.483 -36.465 -32.594  0.00  0.00    -0.062 A 
ATOM      8  C   UNL     1      40.242 -35.863 -32.776  0.00  0.00    -0.061 A 
ATOM      9  C   UNL     1      39.218 -36.070 -31.845  0.00  0.00    -0.053 A 
ATOM     10  C   UNL     1      39.410 -36.879 -30.709  0.00  0.00    +0.002 A 
ATOM     11  C   UNL     1      40.674 -37.483 -30.558  0.00  0.00    -0.053 A 
ATOM     12  C   UNL     1      41.699 -37.278 -31.486  0.00  0.00    -0.061 A 
ENDBRANCH   1  10
BRANCH   4  13
ATOM     13  N   UNL     1      35.578 -37.971 -26.728  0.00  0.00    -0.326 N 
ATOM     14  H   UNL     1      35.774 -37.842 -25.772  0.00  0.00    +0.000 HD
BRANCH  13  15
ATOM     15  C   UNL     1      34.309 -38.515 -27.216  0.00  0.00    +0.023 C 
BRANCH  15  16
ATOM     16  C   UNL     1      34.482 -40.018 -27.541  0.00  0.00    +0.014 C 
BRANCH  16  17
ATOM     17  N   UNL     1      34.383 -40.332 -28.988  0.00  0.00    -0.301 N 
ATOM     18  C   UNL     1      35.720 -40.634 -29.525  0.00  0.00    -0.001 C 
ATOM     19  C   UNL     1      35.654 -41.033 -31.000  0.00  0.00    -0.040 C 
ATOM     20  C   UNL     1      34.975 -39.954 -31.834  0.00  0.00    -0.051 C 
ATOM     21  C   UNL     1      33.624 -39.592 -31.230  0.00  0.00    -0.040 C 
ATOM     22  C   UNL     1      33.751 -39.240 -29.745  0.00  0.00    -0.001 C 
ATOM     23  H   UNL     1      33.786 -41.152 -29.092  0.00  0.00    +0.000 HD
ENDBRANCH  16  17
ENDBRANCH  15  16
ENDBRANCH  13  15
ENDBRANCH   4  13
TORSDOF 5
ENDMDL
MODEL 7
REMARK VINA RESULT:    -7.538      5.245      9.127
REMARK INTER + INTRA:         -10.197
REMARK INTER:                  -9.790
REMARK INTRA:                  -0.406
REMARK UNBOUND:                -0.455
REMARK  Name = cpd253.pdb
REMARK  5 active torsions:
REMARK  status: ('A' for Active; 'I' for Inactive)
REMARK    1  A    between atoms: C_4  and  C_5
REMARK    2  A    between atoms: C_8  and  N_9
REMARK    3  A    between atoms: N_9  and  C_10
REMARK    4  A    between atoms: C_10  and  C_11
REMARK    5  A    between atoms: C_11  and  N_12
REMARK                            x       y       z     vdW  Elec       q    Type
REMARK                         _______ _______ _______ _____ _____    ______ ____
ROOT
ATOM      1  C   UNL     1      38.921 -36.430 -30.928  0.00  0.00    +0.093 A 
ATOM      2  C   UNL     1      37.809 -36.856 -30.214  0.00  0.00    -0.031 A 
ATOM      3  C   UNL     1      36.605 -36.160 -30.339  0.00  0.00    -0.018 A 
ATOM      4  C   UNL     1      36.534 -35.060 -31.176  0.00  0.00    +0.141 A 
ATOM      5  N   UNL     1      37.626 -34.661 -31.851  0.00  0.00    -0.134 NA
ATOM      6  N   UNL     1      38.819 -35.351 -31.736  0.00  0.00    -0.147 NA
ENDROOT
BRANCH   1  10
ATOM      7  C   UNL     1      42.775 -38.354 -30.819  0.00  0.00    -0.062 A 
ATOM      8  C   UNL     1      41.863 -38.569 -29.790  0.00  0.00    -0.061 A 
ATOM      9  C   UNL     1      40.612 -37.944 -29.819  0.00  0.00    -0.053 A 
ATOM     10  C   UNL     1      40.239 -37.094 -30.877  0.00  0.00    +0.002 A 
ATOM     11  C   UNL     1      41.187 -36.888 -31.899  0.00  0.00    -0.053 A 
ATOM     12  C   UNL     1      42.439 -37.511 -31.873  0.00  0.00    -0.061 A 
ENDBRANCH   1  10
BRANCH   4  13
ATOM     13  N   UNL     1      35.355 -34.325 -31.326  0.00  0.00    -0.326 N 
ATOM     14  H   UNL     1      34.545 -34.691 -31.748  0.00  0.00    +0.000 HD
BRANCH  13  15
ATOM     15  C   UNL     1      35.434 -32.959 -30.799  0.00  0.00    +0.023 C 
BRANCH  15  16
ATOM     16  C   UNL     1      34.194 -32.673 -29.919  0.00  0.00    +0.014 C 
BRANCH  16  17
ATOM     17  N   UNL     1      32.998 -32.254 -30.689  0.00  0.00    -0.301 N 
ATOM     18  C   UNL     1      32.347 -31.115 -30.020  0.00  0.00    -0.001 C 
ATOM     19  C   UNL     1      31.149 -30.605 -30.821  0.00  0.00    -0.040 C 
ATOM     20  C   UNL     1      30.142 -31.719 -31.078  0.00  0.00    -0.051 C 
ATOM     21  C   UNL     1      30.836 -32.924 -31.702  0.00  0.00    -0.040 C 
ATOM     22  C   UNL     1      32.047 -33.362 -30.876  0.00  0.00    -0.001 C 
ATOM     23  H   UNL     1      33.306 -31.966 -31.618  0.00  0.00    +0.000 HD
ENDBRANCH  16  17
ENDBRANCH  15  16
ENDBRANCH  13  15
ENDBRANCH   4  13
TORSDOF 5
ENDMDL
MODEL 8
REMARK VINA RESULT:    -7.286      6.403      9.956
REMARK INTER + INTRA:          -9.871
REMARK INTER:                  -9.352
REMARK INTRA:                  -0.519
REMARK UNBOUND:                -0.455
REMARK  Name = cpd253.pdb
REMARK  5 active torsions:
REMARK  status: ('A' for Active; 'I' for Inactive)
REMARK    1  A    between atoms: C_4  and  C_5
REMARK    2  A    between atoms: C_8  and  N_9
REMARK    3  A    between atoms: N_9  and  C_10
REMARK    4  A    between atoms: C_10  and  C_11
REMARK    5  A    between atoms: C_11  and  N_12
REMARK                            x       y       z     vdW  Elec       q    Type
REMARK                         _______ _______ _______ _____ _____    ______ ____
ROOT
ATOM      1  C   UNL     1      38.251 -37.082 -29.701  0.00  0.00    +0.093 A 
ATOM      2  C   UNL     1      38.489 -37.931 -28.628  0.00  0.00    -0.031 A 
ATOM      3  C   UNL     1      37.489 -38.132 -27.676  0.00  0.00    -0.018 A 
ATOM      4  C   UNL     1      36.271 -37.489 -27.817  0.00  0.00    +0.141 A 
ATOM      5  N   UNL     1      36.066 -36.665 -28.859  0.00  0.00    -0.134 NA
ATOM      6  N   UNL     1      37.051 -36.468 -29.808  0.00  0.00    -0.147 NA
ENDROOT
BRANCH   1  10
ATOM      7  C   UNL     1      41.086 -36.250 -32.837  0.00  0.00    -0.062 A 
ATOM      8  C   UNL     1      41.458 -37.051 -31.761  0.00  0.00    -0.061 A 
ATOM      9  C   UNL     1      40.541 -37.322 -30.739  0.00  0.00    -0.053 A 
ATOM     10  C   UNL     1      39.233 -36.802 -30.768  0.00  0.00    +0.002 A 
ATOM     11  C   UNL     1      38.891 -35.987 -31.864  0.00  0.00    -0.053 A 
ATOM     12  C   UNL     1      39.804 -35.715 -32.888  0.00  0.00    -0.061 A 
ENDBRANCH   1  10
BRANCH   4  13
ATOM     13  N   UNL     1      35.242 -37.649 -26.885  0.00  0.00    -0.326 N 
ATOM     14  H   UNL     1      35.230 -38.375 -26.220  0.00  0.00    +0.000 HD
BRANCH  13  15
ATOM     15  C   UNL     1      34.184 -36.640 -26.985  0.00  0.00    +0.023 C 
BRANCH  15  16
ATOM     16  C   UNL     1      33.099 -36.921 -25.919  0.00  0.00    +0.014 C 
BRANCH  16  17
ATOM     17  N   UNL     1      33.647 -37.325 -24.601  0.00  0.00    -0.301 N 
ATOM     18  C   UNL     1      32.932 -38.513 -24.106  0.00  0.00    -0.001 C 
ATOM     19  C   UNL     1      33.513 -39.005 -22.781  0.00  0.00    -0.040 C 
ATOM     20  C   UNL     1      33.506 -37.902 -21.731  0.00  0.00    -0.051 C 
ATOM     21  C   UNL     1      34.182 -36.650 -22.276  0.00  0.00    -0.040 C 
ATOM     22  C   UNL     1      33.582 -36.230 -23.620  0.00  0.00    -0.001 C 
ATOM     23  H   UNL     1      34.633 -37.554 -24.727  0.00  0.00    +0.000 HD
ENDBRANCH  16  17
ENDBRANCH  15  16
ENDBRANCH  13  15
ENDBRANCH   4  13
TORSDOF 5
ENDMDL
MODEL 9
REMARK VINA RESULT:    -7.026      6.269     10.028
REMARK INTER + INTRA:          -9.535
REMARK INTER:                  -9.038
REMARK INTRA:                  -0.497
REMARK UNBOUND:                -0.455
REMARK  Name = cpd253.pdb
REMARK  5 active torsions:
REMARK  status: ('A' for Active; 'I' for Inactive)
REMARK    1  A    between atoms: C_4  and  C_5
REMARK    2  A    between atoms: C_8  and  N_9
REMARK    3  A    between atoms: N_9  and  C_10
REMARK    4  A    between atoms: C_10  and  C_11
REMARK    5  A    between atoms: C_11  and  N_12
REMARK                            x       y       z     vdW  Elec       q    Type
REMARK                         _______ _______ _______ _____ _____    ______ ____
ROOT
ATOM      1  C   UNL     1      37.979 -36.182 -30.830  0.00  0.00    +0.093 A 
ATOM      2  C   UNL     1      37.286 -37.007 -29.955  0.00  0.00    -0.031 A 
ATOM      3  C   UNL     1      36.025 -36.621 -29.499  0.00  0.00    -0.018 A 
ATOM      4  C   UNL     1      35.479 -35.423 -29.930  0.00  0.00    +0.141 A 
ATOM      5  N   UNL     1      36.172 -34.636 -30.771  0.00  0.00    -0.134 NA
ATOM      6  N   UNL     1      37.418 -35.018 -31.231  0.00  0.00    -0.147 NA
ENDROOT
BRANCH   1  10
ATOM      7  C   UNL     1      41.885 -37.109 -32.396  0.00  0.00    -0.062 A 
ATOM      8  C   UNL     1      41.017 -36.306 -33.129  0.00  0.00    -0.061 A 
ATOM      9  C   UNL     1      39.746 -36.004 -32.627  0.00  0.00    -0.053 A 
ATOM     10  C   UNL     1      39.314 -36.494 -31.380  0.00  0.00    +0.002 A 
ATOM     11  C   UNL     1      40.211 -37.312 -30.665  0.00  0.00    -0.053 A 
ATOM     12  C   UNL     1      41.482 -37.615 -31.165  0.00  0.00    -0.061 A 
ENDBRANCH   1  10
BRANCH   4  13
ATOM     13  N   UNL     1      34.225 -34.987 -29.494  0.00  0.00    -0.326 N 
ATOM     14  H   UNL     1      33.739 -35.410 -28.749  0.00  0.00    +0.000 HD
BRANCH  13  15
ATOM     15  C   UNL     1      33.696 -33.845 -30.246  0.00  0.00    +0.023 C 
BRANCH  15  16
ATOM     16  C   UNL     1      33.268 -32.732 -29.261  0.00  0.00    +0.014 C 
BRANCH  16  17
ATOM     17  N   UNL     1      31.939 -32.148 -29.560  0.00  0.00    -0.301 N 
ATOM     18  C   UNL     1      31.031 -33.198 -30.051  0.00  0.00    -0.001 C 
ATOM     19  C   UNL     1      29.626 -32.651 -30.305  0.00  0.00    -0.040 C 
ATOM     20  C   UNL     1      29.658 -31.478 -31.276  0.00  0.00    -0.051 C 
ATOM     21  C   UNL     1      30.654 -30.427 -30.802  0.00  0.00    -0.040 C 
ATOM     22  C   UNL     1      32.029 -31.042 -30.529  0.00  0.00    -0.001 C 
ATOM     23  H   UNL     1      31.564 -31.756 -28.696  0.00  0.00    +0.000 HD
ENDBRANCH  16  17
ENDBRANCH  15  16
ENDBRANCH  13  15
ENDBRANCH   4  13
TORSDOF 5
ENDMDL
MODEL 10
REMARK VINA RESULT:    -6.653      8.673     12.436
REMARK INTER + INTRA:          -9.053
REMARK INTER:                  -8.177
REMARK INTRA:                  -0.876
REMARK UNBOUND:                -0.455
REMARK  Name = cpd253.pdb
REMARK  5 active torsions:
REMARK  status: ('A' for Active; 'I' for Inactive)
REMARK    1  A    between atoms: C_4  and  C_5
REMARK    2  A    between atoms: C_8  and  N_9
REMARK    3  A    between atoms: N_9  and  C_10
REMARK    4  A    between atoms: C_10  and  C_11
REMARK    5  A    between atoms: C_11  and  N_12
REMARK                            x       y       z     vdW  Elec       q    Type
REMARK                         _______ _______ _______ _____ _____    ______ ____
ROOT
ATOM      1  C   UNL     1      35.456 -33.909 -30.538  0.00  0.00    +0.093 A 
ATOM      2  C   UNL     1      34.397 -33.816 -29.645  0.00  0.00    -0.031 A 
ATOM      3  C   UNL     1      33.503 -32.749 -29.749  0.00  0.00    -0.018 A 
ATOM      4  C   UNL     1      33.681 -31.802 -30.743  0.00  0.00    +0.141 A 
ATOM      5  N   UNL     1      34.719 -31.909 -31.591  0.00  0.00    -0.134 NA
ATOM      6  N   UNL     1      35.602 -32.967 -31.496  0.00  0.00    -0.147 NA
ENDROOT
BRANCH   1  10
ATOM      7  C   UNL     1      38.384 -37.070 -30.535  0.00  0.00    -0.062 A 
ATOM      8  C   UNL     1      37.406 -37.031 -29.546  0.00  0.00    -0.061 A 
ATOM      9  C   UNL     1      36.454 -36.004 -29.541  0.00  0.00    -0.053 A 
ATOM     10  C   UNL     1      36.456 -34.997 -30.523  0.00  0.00    +0.002 A 
ATOM     11  C   UNL     1      37.464 -35.058 -31.505  0.00  0.00    -0.053 A 
ATOM     12  C   UNL     1      38.416 -36.083 -31.513  0.00  0.00    -0.061 A 
ENDBRANCH   1  10
BRANCH   4  13
ATOM     13  N   UNL     1      32.819 -30.710 -30.882  0.00  0.00    -0.326 N 
ATOM     14  H   UNL     1      33.046 -29.913 -31.412  0.00  0.00    +0.000 HD
BRANCH  13  15
ATOM     15  C   UNL     1      31.549 -30.859 -30.166  0.00  0.00    +0.023 C 
BRANCH  15  16
ATOM     16  C   UNL     1      30.402 -31.059 -31.186  0.00  0.00    +0.014 C 
BRANCH  16  17
ATOM     17  N   UNL     1      29.855 -32.437 -31.207  0.00  0.00    -0.301 N 
ATOM     18  C   UNL     1      29.858 -32.996 -29.845  0.00  0.00    -0.001 C 
ATOM     19  C   UNL     1      29.235 -34.392 -29.811  0.00  0.00    -0.040 C 
ATOM     20  C   UNL     1      29.940 -35.335 -30.777  0.00  0.00    -0.051 C 
ATOM     21  C   UNL     1      29.999 -34.718 -32.169  0.00  0.00    -0.040 C 
ATOM     22  C   UNL     1      30.597 -33.309 -32.131  0.00  0.00    -0.001 C 
ATOM     23  H   UNL     1      28.895 -32.389 -31.548  0.00  0.00    +0.000 HD
ENDBRANCH  16  17
ENDBRANCH  15  16
ENDBRANCH  13  15
ENDBRANCH   4  13
TORSDOF 5
ENDMDL
MODEL 11
REMARK VINA RESULT:    -6.602      6.876     11.114
REMARK INTER + INTRA:          -8.987
REMARK INTER:                  -8.464
REMARK INTRA:                  -0.523
REMARK UNBOUND:                -0.455
REMARK  Name = cpd253.pdb
REMARK  5 active torsions:
REMARK  status: ('A' for Active; 'I' for Inactive)
REMARK    1  A    between atoms: C_4  and  C_5
REMARK    2  A    between atoms: C_8  and  N_9
REMARK    3  A    between atoms: N_9  and  C_10
REMARK    4  A    between atoms: C_10  and  C_11
REMARK    5  A    between atoms: C_11  and  N_12
REMARK                            x       y       z     vdW  Elec       q    Type
REMARK                         _______ _______ _______ _____ _____    ______ ____
ROOT
ATOM      1  C   UNL     1      36.673 -36.187 -29.762  0.00  0.00    +0.093 A 
ATOM      2  C   UNL     1      35.551 -36.578 -29.044  0.00  0.00    -0.031 A 
ATOM      3  C   UNL     1      34.344 -35.905 -29.234  0.00  0.00    -0.018 A 
ATOM      4  C   UNL     1      34.279 -34.860 -30.141  0.00  0.00    +0.141 A 
ATOM      5  N   UNL     1      35.380 -34.494 -30.819  0.00  0.00    -0.134 NA
ATOM      6  N   UNL     1      36.577 -35.163 -30.639  0.00  0.00    -0.147 NA
ENDROOT
BRANCH   1  10
ATOM      7  C   UNL     1      40.524 -38.083 -29.381  0.00  0.00    -0.062 A 
ATOM      8  C   UNL     1      40.278 -37.220 -30.445  0.00  0.00    -0.061 A 
ATOM      9  C   UNL     1      39.028 -36.605 -30.575  0.00  0.00    -0.053 A 
ATOM     10  C   UNL     1      37.996 -36.833 -29.645  0.00  0.00    +0.002 A 
ATOM     11  C   UNL     1      38.272 -37.718 -28.585  0.00  0.00    -0.053 A 
ATOM     12  C   UNL     1      39.521 -38.335 -28.452  0.00  0.00    -0.061 A 
ENDBRANCH   1  10
BRANCH   4  13
ATOM     13  N   UNL     1      33.097 -34.148 -30.359  0.00  0.00    -0.326 N 
ATOM     14  H   UNL     1      32.324 -34.526 -30.837  0.00  0.00    +0.000 HD
BRANCH  13  15
ATOM     15  C   UNL     1      33.111 -32.788 -29.812  0.00  0.00    +0.023 C 
BRANCH  15  16
ATOM     16  C   UNL     1      32.955 -31.767 -30.963  0.00  0.00    +0.014 C 
BRANCH  16  17
ATOM     17  N   UNL     1      31.698 -30.981 -30.898  0.00  0.00    -0.301 N 
ATOM     18  C   UNL     1      31.358 -30.698 -29.494  0.00  0.00    -0.001 C 
ATOM     19  C   UNL     1      30.105 -29.829 -29.385  0.00  0.00    -0.040 C 
ATOM     20  C   UNL     1      28.924 -30.470 -30.101  0.00  0.00    -0.051 C 
ATOM     21  C   UNL     1      29.306 -30.828 -31.532  0.00  0.00    -0.040 C 
ATOM     22  C   UNL     1      30.586 -31.666 -31.577  0.00  0.00    -0.001 C 
ATOM     23  H   UNL     1      31.851 -30.101 -31.391  0.00  0.00    +0.000 HD
ENDBRANCH  16  17
ENDBRANCH  15  16
ENDBRANCH  13  15
ENDBRANCH   4  13
TORSDOF 5
ENDMDL
MODEL 12
REMARK VINA RESULT:    -6.563      2.875      5.633
REMARK INTER + INTRA:          -8.937
REMARK INTER:                  -8.505
REMARK INTRA:                  -0.432
REMARK UNBOUND:                -0.455
REMARK  Name = cpd253.pdb
REMARK  5 active torsions:
REMARK  status: ('A' for Active; 'I' for Inactive)
REMARK    1  A    between atoms: C_4  and  C_5
REMARK    2  A    between atoms: C_8  and  N_9
REMARK    3  A    between atoms: N_9  and  C_10
REMARK    4  A    between atoms: C_10  and  C_11
REMARK    5  A    between atoms: C_11  and  N_12
REMARK                            x       y       z     vdW  Elec       q    Type
REMARK                         _______ _______ _______ _____ _____    ______ ____
ROOT
ATOM      1  C   UNL     1      42.591 -37.836 -30.708  0.00  0.00    +0.093 A 
ATOM      2  C   UNL     1      42.720 -37.089 -31.871  0.00  0.00    -0.031 A 
ATOM      3  C   UNL     1      41.649 -36.309 -32.309  0.00  0.00    -0.018 A 
ATOM      4  C   UNL     1      40.475 -36.285 -31.576  0.00  0.00    +0.141 A 
ATOM      5  N   UNL     1      40.370 -37.023 -30.457  0.00  0.00    -0.134 NA
ATOM      6  N   UNL     1      41.430 -37.792 -30.015  0.00  0.00    -0.147 NA
ENDROOT
BRANCH   1  10
ATOM      7  C   UNL     1      45.738 -40.295 -29.091  0.00  0.00    -0.062 A 
ATOM      8  C   UNL     1      44.467 -40.830 -29.279  0.00  0.00    -0.061 A 
ATOM      9  C   UNL     1      43.441 -40.035 -29.801  0.00  0.00    -0.053 A 
ATOM     10  C   UNL     1      43.660 -38.689 -30.150  0.00  0.00    +0.002 A 
ATOM     11  C   UNL     1      44.954 -38.173 -29.939  0.00  0.00    -0.053 A 
ATOM     12  C   UNL     1      45.982 -38.966 -29.418  0.00  0.00    -0.061 A 
ENDBRANCH   1  10
BRANCH   4  13
ATOM     13  N   UNL     1      39.371 -35.529 -31.978  0.00  0.00    -0.326 N 
ATOM     14  H   UNL     1      39.453 -34.650 -32.414  0.00  0.00    +0.000 HD
BRANCH  13  15
ATOM     15  C   UNL     1      38.079 -36.161 -31.693  0.00  0.00    +0.023 C 
BRANCH  15  16
ATOM     16  C   UNL     1      37.175 -35.166 -30.929  0.00  0.00    +0.014 C 
BRANCH  16  17
ATOM     17  N   UNL     1      35.959 -34.766 -31.679  0.00  0.00    -0.301 N 
ATOM     18  C   UNL     1      35.329 -33.606 -31.026  0.00  0.00    -0.001 C 
ATOM     19  C   UNL     1      34.110 -33.117 -31.809  0.00  0.00    -0.040 C 
ATOM     20  C   UNL     1      33.095 -34.235 -32.007  0.00  0.00    -0.051 C 
ATOM     21  C   UNL     1      33.769 -35.459 -32.614  0.00  0.00    -0.040 C 
ATOM     22  C   UNL     1      35.002 -35.877 -31.808  0.00  0.00    -0.001 C 
ATOM     23  H   UNL     1      36.243 -34.506 -32.624  0.00  0.00    +0.000 HD
ENDBRANCH  16  17
ENDBRANCH  15  16
ENDBRANCH  13  15
ENDBRANCH   4  13
TORSDOF 5
ENDMDL
MODEL 13
REMARK VINA RESULT:    -6.560     16.823     18.812
REMARK INTER + INTRA:          -8.933
REMARK INTER:                  -8.331
REMARK INTRA:                  -0.601
REMARK UNBOUND:                -0.455
REMARK  Name = cpd253.pdb
REMARK  5 active torsions:
REMARK  status: ('A' for Active; 'I' for Inactive)
REMARK    1  A    between atoms: C_4  and  C_5
REMARK    2  A    between atoms: C_8  and  N_9
REMARK    3  A    between atoms: N_9  and  C_10
REMARK    4  A    between atoms: C_10  and  C_11
REMARK    5  A    between atoms: C_11  and  N_12
REMARK                            x       y       z     vdW  Elec       q    Type
REMARK                         _______ _______ _______ _____ _____    ______ ____
ROOT
ATOM      1  C   UNL     1      45.603 -21.147 -38.945  0.00  0.00    +0.093 A 
ATOM      2  C   UNL     1      44.255 -20.821 -38.877  0.00  0.00    -0.031 A 
ATOM      3  C   UNL     1      43.758 -20.188 -37.737  0.00  0.00    -0.018 A 
ATOM      4  C   UNL     1      44.616 -19.888 -36.692  0.00  0.00    +0.141 A 
ATOM      5  N   UNL     1      45.916 -20.221 -36.778  0.00  0.00    -0.134 NA
ATOM      6  N   UNL     1      46.414 -20.842 -37.908  0.00  0.00    -0.147 NA
ENDROOT
BRANCH   1  10
ATOM      7  C   UNL     1      47.412 -23.081 -42.345  0.00  0.00    -0.062 A 
ATOM      8  C   UNL     1      48.110 -22.995 -41.144  0.00  0.00    -0.061 A 
ATOM      9  C   UNL     1      47.528 -22.364 -40.038  0.00  0.00    -0.053 A 
ATOM     10  C   UNL     1      46.236 -21.810 -40.104  0.00  0.00    +0.002 A 
ATOM     11  C   UNL     1      45.558 -21.905 -41.335  0.00  0.00    -0.053 A 
ATOM     12  C   UNL     1      46.137 -22.534 -42.443  0.00  0.00    -0.061 A 
ENDBRANCH   1  10
BRANCH   4  13
ATOM     13  N   UNL     1      44.165 -19.265 -35.526  0.00  0.00    -0.326 N 
ATOM     14  H   UNL     1      43.874 -18.326 -35.498  0.00  0.00    +0.000 HD
BRANCH  13  15
ATOM     15  C   UNL     1      44.165 -20.136 -34.347  0.00  0.00    +0.023 C 
BRANCH  15  16
ATOM     16  C   UNL     1      42.755 -20.142 -33.709  0.00  0.00    +0.014 C 
BRANCH  16  17
ATOM     17  N   UNL     1      42.024 -21.420 -33.888  0.00  0.00    -0.301 N 
ATOM     18  C   UNL     1      41.117 -21.320 -35.043  0.00  0.00    -0.001 C 
ATOM     19  C   UNL     1      40.395 -22.641 -35.305  0.00  0.00    -0.040 C 
ATOM     20  C   UNL     1      39.636 -23.111 -34.071  0.00  0.00    -0.051 C 
ATOM     21  C   UNL     1      40.563 -23.142 -32.862  0.00  0.00    -0.040 C 
ATOM     22  C   UNL     1      41.283 -21.804 -32.674  0.00  0.00    -0.001 C 
ATOM     23  H   UNL     1      42.710 -22.154 -34.062  0.00  0.00    +0.000 HD
ENDBRANCH  16  17
ENDBRANCH  15  16
ENDBRANCH  13  15
ENDBRANCH   4  13
TORSDOF 5
ENDMDL
MODEL 14
REMARK VINA RESULT:    -6.532      8.590     13.293
REMARK INTER + INTRA:          -8.896
REMARK INTER:                  -8.450
REMARK INTRA:                  -0.446
REMARK UNBOUND:                -0.455
REMARK  Name = cpd253.pdb
REMARK  5 active torsions:
REMARK  status: ('A' for Active; 'I' for Inactive)
REMARK    1  A    between atoms: C_4  and  C_5
REMARK    2  A    between atoms: C_8  and  N_9
REMARK    3  A    between atoms: N_9  and  C_10
REMARK    4  A    between atoms: C_10  and  C_11
REMARK    5  A    between atoms: C_11  and  N_12
REMARK                            x       y       z     vdW  Elec       q    Type
REMARK                         _______ _______ _______ _____ _____    ______ ____
ROOT
ATOM      1  C   UNL     1      35.520 -33.908 -30.605  0.00  0.00    +0.093 A 
ATOM      2  C   UNL     1      34.431 -33.885 -29.744  0.00  0.00    -0.031 A 
ATOM      3  C   UNL     1      33.511 -32.839 -29.827  0.00  0.00    -0.018 A 
ATOM      4  C   UNL     1      33.694 -31.841 -30.770  0.00  0.00    +0.141 A 
ATOM      5  N   UNL     1      34.761 -31.879 -31.586  0.00  0.00    -0.134 NA
ATOM      6  N   UNL     1      35.670 -32.917 -31.513  0.00  0.00    -0.147 NA
ENDROOT
BRANCH   1  10
ATOM      7  C   UNL     1      38.535 -36.986 -30.653  0.00  0.00    -0.062 A 
ATOM      8  C   UNL     1      37.479 -37.064 -29.750  0.00  0.00    -0.061 A 
ATOM      9  C   UNL     1      36.499 -36.066 -29.729  0.00  0.00    -0.053 A 
ATOM     10  C   UNL     1      36.548 -34.968 -30.609  0.00  0.00    +0.002 A 
ATOM     11  C   UNL     1      37.635 -34.911 -31.503  0.00  0.00    -0.053 A 
ATOM     12  C   UNL     1      38.616 -35.908 -31.528  0.00  0.00    -0.061 A 
ENDBRANCH   1  10
BRANCH   4  13
ATOM     13  N   UNL     1      32.807 -30.767 -30.885  0.00  0.00    -0.326 N 
ATOM     14  H   UNL     1      33.105 -29.835 -30.992  0.00  0.00    +0.000 HD
BRANCH  13  15
ATOM     15  C   UNL     1      31.394 -31.152 -30.832  0.00  0.00    +0.023 C 
BRANCH  15  16
ATOM     16  C   UNL     1      30.722 -30.485 -29.608  0.00  0.00    +0.014 C 
BRANCH  16  17
ATOM     17  N   UNL     1      29.780 -29.396 -29.964  0.00  0.00    -0.301 N 
ATOM     18  C   UNL     1      29.030 -28.975 -28.769  0.00  0.00    -0.001 C 
ATOM     19  C   UNL     1      28.096 -27.804 -29.077  0.00  0.00    -0.040 C 
ATOM     20  C   UNL     1      27.142 -28.143 -30.215  0.00  0.00    -0.051 C 
ATOM     21  C   UNL     1      27.920 -28.649 -31.424  0.00  0.00    -0.040 C 
ATOM     22  C   UNL     1      28.862 -29.794 -31.044  0.00  0.00    -0.001 C 
ATOM     23  H   UNL     1      30.326 -28.608 -30.312  0.00  0.00    +0.000 HD
ENDBRANCH  16  17
ENDBRANCH  15  16
ENDBRANCH  13  15
ENDBRANCH   4  13
TORSDOF 5
ENDMDL
MODEL 15
REMARK VINA RESULT:    -6.510     30.502     31.781
REMARK INTER + INTRA:          -8.869
REMARK INTER:                  -8.372
REMARK INTRA:                  -0.496
REMARK UNBOUND:                -0.455
REMARK  Name = cpd253.pdb
REMARK  5 active torsions:
REMARK  status: ('A' for Active; 'I' for Inactive)
REMARK    1  A    between atoms: C_4  and  C_5
REMARK    2  A    between atoms: C_8  and  N_9
REMARK    3  A    between atoms: N_9  and  C_10
REMARK    4  A    between atoms: C_10  and  C_11
REMARK    5  A    between atoms: C_11  and  N_12
REMARK                            x       y       z     vdW  Elec       q    Type
REMARK                         _______ _______ _______ _____ _____    ______ ____
ROOT
ATOM      1  C   UNL     1      63.232 -23.750  -8.534  0.00  0.00    +0.093 A 
ATOM      2  C   UNL     1      63.358 -23.877  -9.911  0.00  0.00    -0.031 A 
ATOM      3  C   UNL     1      63.270 -22.741 -10.716  0.00  0.00    -0.018 A 
ATOM      4  C   UNL     1      63.066 -21.502 -10.132  0.00  0.00    +0.141 A 
ATOM      5  N   UNL     1      62.938 -21.405  -8.797  0.00  0.00    -0.134 NA
ATOM      6  N   UNL     1      63.031 -22.527  -7.995  0.00  0.00    -0.147 NA
ENDROOT
BRANCH   1  10
ATOM      7  C   UNL     1      63.435 -27.066  -5.790  0.00  0.00    -0.062 A 
ATOM      8  C   UNL     1      64.344 -26.018  -5.679  0.00  0.00    -0.061 A 
ATOM      9  C   UNL     1      64.284 -24.941  -6.570  0.00  0.00    -0.053 A 
ATOM     10  C   UNL     1      63.314 -24.882  -7.589  0.00  0.00    +0.002 A 
ATOM     11  C   UNL     1      62.415 -25.963  -7.681  0.00  0.00    -0.053 A 
ATOM     12  C   UNL     1      62.472 -27.041  -6.792  0.00  0.00    -0.061 A 
ENDBRANCH   1  10
BRANCH   4  13
ATOM     13  N   UNL     1      62.960 -20.337 -10.896  0.00  0.00    -0.326 N 
ATOM     14  H   UNL     1      63.156 -20.308 -11.860  0.00  0.00    +0.000 HD
BRANCH  13  15
ATOM     15  C   UNL     1      62.533 -19.161 -10.133  0.00  0.00    +0.023 C 
BRANCH  15  16
ATOM     16  C   UNL     1      61.825 -18.161 -11.078  0.00  0.00    +0.014 C 
BRANCH  16  17
ATOM     17  N   UNL     1      60.490 -18.617 -11.538  0.00  0.00    -0.301 N 
ATOM     18  C   UNL     1      59.775 -17.501 -12.179  0.00  0.00    -0.001 C 
ATOM     19  C   UNL     1      58.421 -17.946 -12.731  0.00  0.00    -0.040 C 
ATOM     20  C   UNL     1      57.561 -18.576 -11.644  0.00  0.00    -0.051 C 
ATOM     21  C   UNL     1      58.333 -19.681 -10.933  0.00  0.00    -0.040 C 
ATOM     22  C   UNL     1      59.693 -19.184 -10.437  0.00  0.00    -0.001 C 
ATOM     23  H   UNL     1      60.629 -19.363 -12.220  0.00  0.00    +0.000 HD
ENDBRANCH  16  17
ENDBRANCH  15  16
ENDBRANCH  13  15
ENDBRANCH   4  13
TORSDOF 5
ENDMDL
MODEL 16
REMARK VINA RESULT:    -6.394      5.808     13.344
REMARK INTER + INTRA:          -8.719
REMARK INTER:                  -8.229
REMARK INTRA:                  -0.490
REMARK UNBOUND:                -0.455
REMARK  Name = cpd253.pdb
REMARK  5 active torsions:
REMARK  status: ('A' for Active; 'I' for Inactive)
REMARK    1  A    between atoms: C_4  and  C_5
REMARK    2  A    between atoms: C_8  and  N_9
REMARK    3  A    between atoms: N_9  and  C_10
REMARK    4  A    between atoms: C_10  and  C_11
REMARK    5  A    between atoms: C_11  and  N_12
REMARK                            x       y       z     vdW  Elec       q    Type
REMARK                         _______ _______ _______ _____ _____    ______ ____
ROOT
ATOM      1  C   UNL     1      33.045 -33.624 -30.964  0.00  0.00    +0.093 A 
ATOM      2  C   UNL     1      34.031 -33.835 -30.010  0.00  0.00    -0.031 A 
ATOM      3  C   UNL     1      35.081 -34.710 -30.288  0.00  0.00    -0.018 A 
ATOM      4  C   UNL     1      35.129 -35.352 -31.514  0.00  0.00    +0.141 A 
ATOM      5  N   UNL     1      34.158 -35.139 -32.419  0.00  0.00    -0.134 NA
ATOM      6  N   UNL     1      33.120 -34.267 -32.151  0.00  0.00    -0.147 NA
ENDROOT
BRANCH   1  10
ATOM      7  C   UNL     1      29.707 -30.961 -30.386  0.00  0.00    -0.062 A 
ATOM      8  C   UNL     1      29.650 -31.939 -31.374  0.00  0.00    -0.061 A 
ATOM      9  C   UNL     1      30.733 -32.804 -31.567  0.00  0.00    -0.053 A 
ATOM     10  C   UNL     1      31.895 -32.715 -30.778  0.00  0.00    +0.002 A 
ATOM     11  C   UNL     1      31.926 -31.709 -29.793  0.00  0.00    -0.053 A 
ATOM     12  C   UNL     1      30.845 -30.843 -29.596  0.00  0.00    -0.061 A 
ENDBRANCH   1  10
BRANCH   4  13
ATOM     13  N   UNL     1      36.153 -36.246 -31.837  0.00  0.00    -0.326 N 
ATOM     14  H   UNL     1      36.075 -36.915 -32.555  0.00  0.00    +0.000 HD
BRANCH  13  15
ATOM     15  C   UNL     1      37.354 -36.099 -31.010  0.00  0.00    +0.023 C 
BRANCH  15  16
ATOM     16  C   UNL     1      38.535 -35.628 -31.892  0.00  0.00    +0.014 C 
BRANCH  16  17
ATOM     17  N   UNL     1      39.861 -36.085 -31.410  0.00  0.00    -0.301 N 
ATOM     18  C   UNL     1      40.730 -36.395 -32.558  0.00  0.00    -0.001 C 
ATOM     19  C   UNL     1      42.132 -36.803 -32.105  0.00  0.00    -0.040 C 
ATOM     20  C   UNL     1      42.080 -37.981 -31.142  0.00  0.00    -0.051 C 
ATOM     21  C   UNL     1      41.122 -37.684 -29.995  0.00  0.00    -0.040 C 
ATOM     22  C   UNL     1      39.749 -37.246 -30.512  0.00  0.00    -0.001 C 
ATOM     23  H   UNL     1      40.277 -35.327 -30.868  0.00  0.00    +0.000 HD
ENDBRANCH  16  17
ENDBRANCH  15  16
ENDBRANCH  13  15
ENDBRANCH   4  13
TORSDOF 5
ENDMDL
MODEL 17
REMARK VINA RESULT:    -6.298     17.359     19.867
REMARK INTER + INTRA:          -8.594
REMARK INTER:                  -8.076
REMARK INTRA:                  -0.518
REMARK UNBOUND:                -0.455
REMARK  Name = cpd253.pdb
REMARK  5 active torsions:
REMARK  status: ('A' for Active; 'I' for Inactive)
REMARK    1  A    between atoms: C_4  and  C_5
REMARK    2  A    between atoms: C_8  and  N_9
REMARK    3  A    between atoms: N_9  and  C_10
REMARK    4  A    between atoms: C_10  and  C_11
REMARK    5  A    between atoms: C_11  and  N_12
REMARK                            x       y       z     vdW  Elec       q    Type
REMARK                         _______ _______ _______ _____ _____    ______ ____
ROOT
ATOM      1  C   UNL     1      40.718 -21.816 -36.654  0.00  0.00    +0.093 A 
ATOM      2  C   UNL     1      41.489 -20.736 -37.063  0.00  0.00    -0.031 A 
ATOM      3  C   UNL     1      42.070 -20.748 -38.332  0.00  0.00    -0.018 A 
ATOM      4  C   UNL     1      41.865 -21.833 -39.168  0.00  0.00    +0.141 A 
ATOM      5  N   UNL     1      41.122 -22.871 -38.747  0.00  0.00    -0.134 NA
ATOM      6  N   UNL     1      40.539 -22.861 -37.494  0.00  0.00    -0.147 NA
ENDROOT
BRANCH   1  10
ATOM      7  C   UNL     1      38.802 -22.046 -32.802  0.00  0.00    -0.062 A 
ATOM      8  C   UNL     1      38.574 -23.039 -33.750  0.00  0.00    -0.061 A 
ATOM      9  C   UNL     1      39.192 -22.967 -35.003  0.00  0.00    -0.053 A 
ATOM     10  C   UNL     1      40.053 -21.905 -35.338  0.00  0.00    +0.002 A 
ATOM     11  C   UNL     1      40.256 -20.911 -34.362  0.00  0.00    -0.053 A 
ATOM     12  C   UNL     1      39.640 -20.980 -33.107  0.00  0.00    -0.061 A 
ENDBRANCH   1  10
BRANCH   4  13
ATOM     13  N   UNL     1      42.434 -21.897 -40.443  0.00  0.00    -0.326 N 
ATOM     14  H   UNL     1      42.140 -22.539 -41.129  0.00  0.00    +0.000 HD
BRANCH  13  15
ATOM     15  C   UNL     1      43.506 -20.923 -40.667  0.00  0.00    +0.023 C 
BRANCH  15  16
ATOM     16  C   UNL     1      44.264 -21.278 -41.967  0.00  0.00    +0.014 C 
BRANCH  16  17
ATOM     17  N   UNL     1      45.708 -21.549 -41.762  0.00  0.00    -0.301 N 
ATOM     18  C   UNL     1      46.103 -22.750 -42.517  0.00  0.00    -0.001 C 
ATOM     19  C   UNL     1      47.602 -23.024 -42.389  0.00  0.00    -0.040 C 
ATOM     20  C   UNL     1      48.018 -23.150 -40.930  0.00  0.00    -0.051 C 
ATOM     21  C   UNL     1      47.541 -21.939 -40.138  0.00  0.00    -0.040 C 
ATOM     22  C   UNL     1      46.043 -21.695 -40.336  0.00  0.00    -0.001 C 
ATOM     23  H   UNL     1      46.232 -20.746 -42.110  0.00  0.00    +0.000 HD
ENDBRANCH  16  17
ENDBRANCH  15  16
ENDBRANCH  13  15
ENDBRANCH   4  13
TORSDOF 5
ENDMDL
MODEL 18
REMARK VINA RESULT:    -6.217      6.613     10.331
REMARK INTER + INTRA:          -8.489
REMARK INTER:                  -7.778
REMARK INTRA:                  -0.711
REMARK UNBOUND:                -0.455
REMARK  Name = cpd253.pdb
REMARK  5 active torsions:
REMARK  status: ('A' for Active; 'I' for Inactive)
REMARK    1  A    between atoms: C_4  and  C_5
REMARK    2  A    between atoms: C_8  and  N_9
REMARK    3  A    between atoms: N_9  and  C_10
REMARK    4  A    between atoms: C_10  and  C_11
REMARK    5  A    between atoms: C_11  and  N_12
REMARK                            x       y       z     vdW  Elec       q    Type
REMARK                         _______ _______ _______ _____ _____    ______ ____
ROOT
ATOM      1  C   UNL     1      36.812 -36.859 -29.741  0.00  0.00    +0.093 A 
ATOM      2  C   UNL     1      36.322 -35.613 -30.111  0.00  0.00    -0.031 A 
ATOM      3  C   UNL     1      34.943 -35.398 -30.140  0.00  0.00    -0.018 A 
ATOM      4  C   UNL     1      34.083 -36.426 -29.793  0.00  0.00    +0.141 A 
ATOM      5  N   UNL     1      34.580 -37.626 -29.447  0.00  0.00    -0.134 NA
ATOM      6  N   UNL     1      35.945 -37.842 -29.410  0.00  0.00    -0.147 NA
ENDROOT
BRANCH   1  10
ATOM      7  C   UNL     1      41.008 -37.822 -29.572  0.00  0.00    -0.062 A 
ATOM      8  C   UNL     1      40.143 -38.320 -28.602  0.00  0.00    -0.061 A 
ATOM      9  C   UNL     1      38.780 -38.007 -28.651  0.00  0.00    -0.053 A 
ATOM     10  C   UNL     1      38.248 -37.194 -29.670  0.00  0.00    +0.002 A 
ATOM     11  C   UNL     1      39.151 -36.697 -30.631  0.00  0.00    -0.053 A 
ATOM     12  C   UNL     1      40.514 -37.008 -30.585  0.00  0.00    -0.061 A 
ENDBRANCH   1  10
BRANCH   4  13
ATOM     13  N   UNL     1      32.695 -36.264 -29.816  0.00  0.00    -0.326 N 
ATOM     14  H   UNL     1      32.160 -36.341 -30.639  0.00  0.00    +0.000 HD
BRANCH  13  15
ATOM     15  C   UNL     1      32.108 -35.967 -28.507  0.00  0.00    +0.023 C 
BRANCH  15  16
ATOM     16  C   UNL     1      31.278 -34.665 -28.595  0.00  0.00    +0.014 C 
BRANCH  16  17
ATOM     17  N   UNL     1      31.741 -33.732 -29.652  0.00  0.00    -0.301 N 
ATOM     18  C   UNL     1      32.586 -32.683 -29.057  0.00  0.00    -0.001 C 
ATOM     19  C   UNL     1      33.142 -31.740 -30.124  0.00  0.00    -0.040 C 
ATOM     20  C   UNL     1      32.024 -31.119 -30.950  0.00  0.00    -0.051 C 
ATOM     21  C   UNL     1      31.109 -32.206 -31.502  0.00  0.00    -0.040 C 
ATOM     22  C   UNL     1      30.615 -33.138 -30.393  0.00  0.00    -0.001 C 
ATOM     23  H   UNL     1      32.292 -34.266 -30.324  0.00  0.00    +0.000 HD
ENDBRANCH  16  17
ENDBRANCH  15  16
ENDBRANCH  13  15
ENDBRANCH   4  13
TORSDOF 5
ENDMDL
MODEL 19
REMARK VINA RESULT:    -6.003     17.546     19.295
REMARK INTER + INTRA:          -8.212
REMARK INTER:                  -7.562
REMARK INTRA:                  -0.651
REMARK UNBOUND:                -0.455
REMARK  Name = cpd253.pdb
REMARK  5 active torsions:
REMARK  status: ('A' for Active; 'I' for Inactive)
REMARK    1  A    between atoms: C_4  and  C_5
REMARK    2  A    between atoms: C_8  and  N_9
REMARK    3  A    between atoms: N_9  and  C_10
REMARK    4  A    between atoms: C_10  and  C_11
REMARK    5  A    between atoms: C_11  and  N_12
REMARK                            x       y       z     vdW  Elec       q    Type
REMARK                         _______ _______ _______ _____ _____    ______ ____
ROOT
ATOM      1  C   UNL     1      45.598 -20.886 -39.026  0.00  0.00    +0.093 A 
ATOM      2  C   UNL     1      46.672 -20.328 -38.346  0.00  0.00    -0.031 A 
ATOM      3  C   UNL     1      46.471 -19.775 -37.080  0.00  0.00    -0.018 A 
ATOM      4  C   UNL     1      45.206 -19.796 -36.517  0.00  0.00    +0.141 A 
ATOM      5  N   UNL     1      44.180 -20.335 -37.198  0.00  0.00    -0.134 NA
ATOM      6  N   UNL     1      44.376 -20.890 -38.449  0.00  0.00    -0.147 NA
ENDROOT
BRANCH   1  10
ATOM      7  C   UNL     1      45.925 -22.705 -42.919  0.00  0.00    -0.062 A 
ATOM      8  C   UNL     1      44.979 -21.708 -42.696  0.00  0.00    -0.061 A 
ATOM      9  C   UNL     1      44.867 -21.117 -41.433  0.00  0.00    -0.053 A 
ATOM     10  C   UNL     1      45.698 -21.503 -40.364  0.00  0.00    +0.002 A 
ATOM     11  C   UNL     1      46.638 -22.521 -40.618  0.00  0.00    -0.053 A 
ATOM     12  C   UNL     1      46.753 -23.114 -41.880  0.00  0.00    -0.061 A 
ENDBRANCH   1  10
BRANCH   4  13
ATOM     13  N   UNL     1      44.952 -19.246 -35.258  0.00  0.00    -0.326 N 
ATOM     14  H   UNL     1      45.020 -18.282 -35.070  0.00  0.00    +0.000 HD
BRANCH  13  15
ATOM     15  C   UNL     1      44.576 -20.233 -34.242  0.00  0.00    +0.023 C 
BRANCH  15  16
ATOM     16  C   UNL     1      43.117 -19.982 -33.792  0.00  0.00    +0.014 C 
BRANCH  16  17
ATOM     17  N   UNL     1      42.137 -20.917 -34.396  0.00  0.00    -0.301 N 
ATOM     18  C   UNL     1      41.271 -20.191 -35.341  0.00  0.00    -0.001 C 
ATOM     19  C   UNL     1      40.290 -21.134 -36.039  0.00  0.00    -0.040 C 
ATOM     20  C   UNL     1      39.450 -21.904 -35.029  0.00  0.00    -0.051 C 
ATOM     21  C   UNL     1      40.349 -22.592 -34.009  0.00  0.00    -0.040 C 
ATOM     22  C   UNL     1      41.332 -21.605 -33.373  0.00  0.00    -0.001 C 
ATOM     23  H   UNL     1      42.656 -21.636 -34.900  0.00  0.00    +0.000 HD
ENDBRANCH  16  17
ENDBRANCH  15  16
ENDBRANCH  13  15
ENDBRANCH   4  13
TORSDOF 5
ENDMDL
MODEL 20
REMARK VINA RESULT:    -5.850     18.024     20.365
REMARK INTER + INTRA:          -8.015
REMARK INTER:                  -7.544
REMARK INTRA:                  -0.471
REMARK UNBOUND:                -0.455
REMARK  Name = cpd253.pdb
REMARK  5 active torsions:
REMARK  status: ('A' for Active; 'I' for Inactive)
REMARK    1  A    between atoms: C_4  and  C_5
REMARK    2  A    between atoms: C_8  and  N_9
REMARK    3  A    between atoms: N_9  and  C_10
REMARK    4  A    between atoms: C_10  and  C_11
REMARK    5  A    between atoms: C_11  and  N_12
REMARK                            x       y       z     vdW  Elec       q    Type
REMARK                         _______ _______ _______ _____ _____    ______ ____
ROOT
ATOM      1  C   UNL     1      39.404 -21.228 -36.161  0.00  0.00    +0.093 A 
ATOM      2  C   UNL     1      40.030 -20.148 -36.768  0.00  0.00    -0.031 A 
ATOM      3  C   UNL     1      40.918 -20.371 -37.822  0.00  0.00    -0.018 A 
ATOM      4  C   UNL     1      41.159 -21.666 -38.251  0.00  0.00    +0.141 A 
ATOM      5  N   UNL     1      40.547 -22.697 -37.642  0.00  0.00    -0.134 NA
ATOM      6  N   UNL     1      39.662 -22.480 -36.603  0.00  0.00    -0.147 NA
ENDROOT
BRANCH   1  10
ATOM      7  C   UNL     1      36.608 -20.916 -32.898  0.00  0.00    -0.062 A 
ATOM      8  C   UNL     1      36.736 -19.868 -33.804  0.00  0.00    -0.061 A 
ATOM      9  C   UNL     1      37.645 -19.963 -34.864  0.00  0.00    -0.053 A 
ATOM     10  C   UNL     1      38.444 -21.107 -35.046  0.00  0.00    +0.002 A 
ATOM     11  C   UNL     1      38.299 -22.147 -34.106  0.00  0.00    -0.053 A 
ATOM     12  C   UNL     1      37.391 -22.056 -33.046  0.00  0.00    -0.061 A 
ENDBRANCH   1  10
BRANCH   4  13
ATOM     13  N   UNL     1      42.047 -21.942 -39.294  0.00  0.00    -0.326 N 
ATOM     14  H   UNL     1      42.095 -22.818 -39.739  0.00  0.00    +0.000 HD
BRANCH  13  15
ATOM     15  C   UNL     1      42.899 -20.809 -39.666  0.00  0.00    +0.023 C 
BRANCH  15  16
ATOM     16  C   UNL     1      43.644 -21.133 -40.983  0.00  0.00    +0.014 C 
BRANCH  16  17
ATOM     17  N   UNL     1      44.926 -21.851 -40.783  0.00  0.00    -0.301 N 
ATOM     18  C   UNL     1      45.787 -21.089 -39.863  0.00  0.00    -0.001 C 
ATOM     19  C   UNL     1      47.093 -21.830 -39.574  0.00  0.00    -0.040 C 
ATOM     20  C   UNL     1      47.841 -22.154 -40.860  0.00  0.00    -0.051 C 
ATOM     21  C   UNL     1      46.923 -22.877 -41.838  0.00  0.00    -0.040 C 
ATOM     22  C   UNL     1      45.619 -22.105 -42.057  0.00  0.00    -0.001 C 
ATOM     23  H   UNL     1      44.717 -22.761 -40.371  0.00  0.00    +0.000 HD
ENDBRANCH  16  17
ENDBRANCH  15  16
ENDBRANCH  13  15
ENDBRANCH   4  13
TORSDOF 5
ENDMDL
