REMARK  Name = cpd340.pdb
REMARK  14 active torsions:
REMARK  status: ('A' for Active; 'I' for Inactive)
REMARK    1  A    between atoms: C_1  and  O_2
REMARK    2  A    between atoms: O_2  and  C_3
REMARK    3  A    between atoms: C_5  and  C_6
REMARK    4  A    between atoms: C_6  and  C_7
REMARK    5  A    between atoms: C_7  and  C_8
REMARK    6  A    between atoms: C_7  and  C_11
REMARK    7  A    between atoms: C_8  and  C_9
REMARK    8  A    between atoms: N_13  and  C_14
REMARK    9  A    between atoms: C_14  and  C_15
REMARK   10  A    between atoms: C_15  and  C_16
REMARK   11  A    between atoms: C_16  and  C_17
REMARK   12  A    between atoms: C_17  and  N_18
REMARK   13  A    between atoms: N_18  and  C_19
REMARK   14  A    between atoms: C_35  and  O_36
REMARK                            x       y       z     vdW  Elec       q    Type
REMARK                         _______ _______ _______ _____ _____    ______ ____
ROOT
ATOM      1  C   UNL A   1       5.007   3.558   1.821  0.00  0.00    +0.012 C 
ENDROOT
BRANCH   1   4
ATOM      2  C   UNL A   1       3.364   2.603   0.244  0.00  0.00    +0.224 C 
ATOM      3  O   UNL A   1       3.601   3.434  -0.629  0.00  0.00    -0.275 OA
ATOM      4  N   UNL A   1       3.945   2.629   1.493  0.00  0.00    -0.315 N 
ATOM      5  H   UNL A   1       3.630   1.999   2.181  0.00  0.00    +0.000 HD
BRANCH   2   6
ATOM      6  C   UNL A   1       2.359   1.491   0.019  0.00  0.00    +0.097 C 
BRANCH   6   7
ATOM      7  C   UNL A   1       2.985   0.133   0.267  0.00  0.00    +0.142 C 
ATOM      8  C   UNL A   1       3.178  -0.763  -0.927  0.00  0.00    -0.005 C 
ATOM      9  O   UNL A   1       3.351  -0.211   1.394  0.00  0.00    -0.297 OA
ENDBRANCH   6   7
BRANCH   6  10
ATOM     10  C   UNL A   1       1.130   1.701   0.910  0.00  0.00    -0.010 C 
BRANCH  10  13
ATOM     11  C   UNL A   1      -1.930   0.383  -0.962  0.00  0.00    +0.162 A 
ATOM     12  C   UNL A   1      -0.873   1.204  -0.555  0.00  0.00    -0.013 A 
ATOM     13  C   UNL A   1      -0.029   0.820   0.502  0.00  0.00    -0.043 A 
ATOM     14  C   UNL A   1      -0.250  -0.403   1.148  0.00  0.00    -0.055 A 
ATOM     15  C   UNL A   1      -1.298  -1.231   0.749  0.00  0.00    -0.016 A 
ATOM     16  C   UNL A   1      -2.129  -0.836  -0.300  0.00  0.00    +0.158 A 
BRANCH  11  18
ATOM     17  C   UNL A   1      -2.682   1.936  -2.609  0.00  0.00    +0.079 C 
ATOM     18  O   UNL A   1      -2.802   0.669  -1.979  0.00  0.00    -0.491 OA
ENDBRANCH  11  18
BRANCH  16  19
ATOM     19  O   UNL A   1      -3.157  -1.651  -0.693  0.00  0.00    -0.503 OA
ATOM     20  H   UNL A   1      -3.718  -1.391  -1.397  0.00  0.00    +0.000 HD
ENDBRANCH  16  19
ENDBRANCH  10  13
ENDBRANCH   6  10
ENDBRANCH   2   6
ENDBRANCH   1   4
BRANCH   1  21
ATOM     21  C   UNL A   1       6.370   2.990   1.437  0.00  0.00    -0.036 C 
BRANCH  21  22
ATOM     22  C   UNL A   1       7.497   3.975   1.757  0.00  0.00    -0.036 C 
BRANCH  22  23
ATOM     23  C   UNL A   1       8.884   3.375   1.514  0.00  0.00    +0.009 C 
BRANCH  23  24
ATOM     24  N   UNL A   1       9.064   3.090   0.085  0.00  0.00    -0.343 N 
ATOM     25  H   UNL A   1       8.414   3.335  -0.613  0.00  0.00    +0.000 HD
BRANCH  24  26
ATOM     26  C   UNL A   1      10.295   2.415  -0.170  0.00  0.00    +0.041 A 
ATOM     27  C   UNL A   1      11.458   3.140  -0.501  0.00  0.00    -0.005 A 
ATOM     28  C   UNL A   1      12.642   2.416  -0.675  0.00  0.00    +0.047 A 
ATOM     29  N   UNL A   1      12.730   1.078  -0.491  0.00  0.00    -0.251 NA
ATOM     30  C   UNL A   1      11.626   0.392  -0.165  0.00  0.00    +0.073 A 
ATOM     31  C   UNL A   1      11.732  -0.983   0.005  0.00  0.00    -0.036 A 
ATOM     32  C   UNL A   1      10.629  -1.777   0.330  0.00  0.00    -0.060 A 
ATOM     33  C   UNL A   1       9.383  -1.187   0.483  0.00  0.00    -0.061 A 
ATOM     34  C   UNL A   1       9.255   0.191   0.318  0.00  0.00    -0.051 A 
ATOM     35  C   UNL A   1      10.372   1.005   0.006  0.00  0.00    +0.021 A 
ATOM     36  C   UNL A   1      13.943   3.093  -1.022  0.00  0.00    -0.010 C 
ATOM     37  C   UNL A   1      13.760   4.473  -1.640  0.00  0.00    -0.047 C 
ATOM     38  C   UNL A   1      12.803   5.292  -0.787  0.00  0.00    -0.049 C 
ATOM     39  C   UNL A   1      11.426   4.631  -0.743  0.00  0.00    -0.024 C 
ENDBRANCH  24  26
ENDBRANCH  23  24
ENDBRANCH  22  23
ENDBRANCH  21  22
ENDBRANCH   1  21
TORSDOF 12
