MODEL 1
REMARK VINA RESULT:    -7.627      0.000      0.000
REMARK INTER + INTRA:         -16.391
REMARK INTER:                 -12.754
REMARK INTRA:                  -3.637
REMARK UNBOUND:                -3.637
REMARK  Name = cpd340.pdb
REMARK  14 active torsions:
REMARK  status: ('A' for Active; 'I' for Inactive)
REMARK    1  A    between atoms: C_1  and  O_2
REMARK    2  A    between atoms: O_2  and  C_3
REMARK    3  A    between atoms: C_5  and  C_6
REMARK    4  A    between atoms: C_6  and  C_7
REMARK    5  A    between atoms: C_7  and  C_8
REMARK    6  A    between atoms: C_7  and  C_11
REMARK    7  A    between atoms: C_8  and  C_9
REMARK    8  A    between atoms: N_13  and  C_14
REMARK    9  A    between atoms: C_14  and  C_15
REMARK   10  A    between atoms: C_15  and  C_16
REMARK   11  A    between atoms: C_16  and  C_17
REMARK   12  A    between atoms: C_17  and  N_18
REMARK   13  A    between atoms: N_18  and  C_19
REMARK   14  A    between atoms: C_35  and  O_36
REMARK                            x       y       z     vdW  Elec       q    Type
REMARK                         _______ _______ _______ _____ _____    ______ ____
ROOT
ATOM      1  C   UNL A   1      32.809 -33.969 -31.855  0.00  0.00    +0.012 C 
ENDROOT
BRANCH   1   4
ATOM      2  C   UNL A   1      33.374 -36.290 -32.481  0.00  0.00    +0.224 C 
ATOM      3  O   UNL A   1      34.214 -35.945 -33.308  0.00  0.00    -0.275 OA
ATOM      4  N   UNL A   1      32.591 -35.399 -31.780  0.00  0.00    -0.315 N 
ATOM      5  H   UNL A   1      31.863 -35.744 -31.213  0.00  0.00    +0.000 HD
BRANCH   2   6
ATOM      6  C   UNL A   1      33.103 -37.754 -32.198  0.00  0.00    +0.097 C 
BRANCH   6   7
ATOM      7  C   UNL A   1      32.223 -38.362 -33.272  0.00  0.00    +0.142 C 
ATOM      8  C   UNL A   1      31.264 -37.441 -33.977  0.00  0.00    -0.005 C 
ATOM      9  O   UNL A   1      32.312 -39.554 -33.578  0.00  0.00    -0.297 OA
ENDBRANCH   6   7
BRANCH   6  10
ATOM     10  C   UNL A   1      34.424 -38.521 -32.070  0.00  0.00    -0.010 C 
BRANCH  10  13
ATOM     11  C   UNL A   1      33.526 -39.972 -28.650  0.00  0.00    +0.162 A 
ATOM     12  C   UNL A   1      33.448 -39.271 -29.858  0.00  0.00    -0.013 A 
ATOM     13  C   UNL A   1      34.533 -39.254 -30.752  0.00  0.00    -0.043 A 
ATOM     14  C   UNL A   1      35.702 -39.955 -30.427  0.00  0.00    -0.055 A 
ATOM     15  C   UNL A   1      35.790 -40.660 -29.228  0.00  0.00    -0.016 A 
ATOM     16  C   UNL A   1      34.706 -40.665 -28.349  0.00  0.00    +0.158 A 
BRANCH  11  18
ATOM     17  C   UNL A   1      31.186 -40.048 -28.193  0.00  0.00    +0.079 C 
ATOM     18  O   UNL A   1      32.525 -40.048 -27.719  0.00  0.00    -0.491 OA
ENDBRANCH  11  18
BRANCH  16  19
ATOM     19  O   UNL A   1      34.793 -41.360 -27.172  0.00  0.00    -0.503 OA
ATOM     20  H   UNL A   1      34.051 -41.408 -26.601  0.00  0.00    +0.000 HD
ENDBRANCH  16  19
ENDBRANCH  10  13
ENDBRANCH   6  10
ENDBRANCH   2   6
ENDBRANCH   1   4
BRANCH   1  21
ATOM     21  C   UNL A   1      33.751 -33.500 -30.750  0.00  0.00    -0.036 C 
BRANCH  21  22
ATOM     22  C   UNL A   1      34.980 -32.793 -31.327  0.00  0.00    -0.036 C 
BRANCH  22  23
ATOM     23  C   UNL A   1      36.287 -33.503 -30.966  0.00  0.00    +0.009 C 
BRANCH  23  24
ATOM     24  N   UNL A   1      36.331 -34.825 -31.603  0.00  0.00    -0.343 N 
ATOM     25  H   UNL A   1      35.848 -35.057 -32.429  0.00  0.00    +0.000 HD
BRANCH  24  26
ATOM     26  C   UNL A   1      37.161 -35.734 -30.881  0.00  0.00    +0.041 A 
ATOM     27  C   UNL A   1      38.479 -35.999 -31.306  0.00  0.00    -0.005 A 
ATOM     28  C   UNL A   1      39.253 -36.852 -30.513  0.00  0.00    +0.047 A 
ATOM     29  N   UNL A   1      38.818 -37.383 -29.346  0.00  0.00    -0.251 NA
ATOM     30  C   UNL A   1      37.569 -37.121 -28.938  0.00  0.00    +0.073 A 
ATOM     31  C   UNL A   1      37.134 -37.687 -27.746  0.00  0.00    -0.036 A 
ATOM     32  C   UNL A   1      35.843 -37.479 -27.254  0.00  0.00    -0.060 A 
ATOM     33  C   UNL A   1      34.956 -36.690 -27.972  0.00  0.00    -0.061 A 
ATOM     34  C   UNL A   1      35.373 -36.112 -29.170  0.00  0.00    -0.051 A 
ATOM     35  C   UNL A   1      36.686 -36.304 -29.666  0.00  0.00    +0.021 A 
ATOM     36  C   UNL A   1      40.676 -37.195 -30.871  0.00  0.00    -0.010 C 
ATOM     37  C   UNL A   1      41.000 -36.970 -32.342  0.00  0.00    -0.047 C 
ATOM     38  C   UNL A   1      40.535 -35.583 -32.761  0.00  0.00    -0.049 C 
ATOM     39  C   UNL A   1      39.020 -35.458 -32.608  0.00  0.00    -0.024 C 
ENDBRANCH  24  26
ENDBRANCH  23  24
ENDBRANCH  22  23
ENDBRANCH  21  22
ENDBRANCH   1  21
TORSDOF 12
ENDMDL
MODEL 2
REMARK VINA RESULT:    -6.873      1.721      3.872
REMARK INTER + INTRA:         -15.131
REMARK INTER:                 -11.701
REMARK INTRA:                  -3.430
REMARK UNBOUND:                -3.637
REMARK  Name = cpd340.pdb
REMARK  14 active torsions:
REMARK  status: ('A' for Active; 'I' for Inactive)
REMARK    1  A    between atoms: C_1  and  O_2
REMARK    2  A    between atoms: O_2  and  C_3
REMARK    3  A    between atoms: C_5  and  C_6
REMARK    4  A    between atoms: C_6  and  C_7
REMARK    5  A    between atoms: C_7  and  C_8
REMARK    6  A    between atoms: C_7  and  C_11
REMARK    7  A    between atoms: C_8  and  C_9
REMARK    8  A    between atoms: N_13  and  C_14
REMARK    9  A    between atoms: C_14  and  C_15
REMARK   10  A    between atoms: C_15  and  C_16
REMARK   11  A    between atoms: C_16  and  C_17
REMARK   12  A    between atoms: C_17  and  N_18
REMARK   13  A    between atoms: N_18  and  C_19
REMARK   14  A    between atoms: C_35  and  O_36
REMARK                            x       y       z     vdW  Elec       q    Type
REMARK                         _______ _______ _______ _____ _____    ______ ____
ROOT
ATOM      1  C   UNL A   1      32.154 -36.840 -33.717  0.00  0.00    +0.012 C 
ENDROOT
BRANCH   1   4
ATOM      2  C   UNL A   1      32.283 -38.490 -31.884  0.00  0.00    +0.224 C 
ATOM      3  O   UNL A   1      31.273 -38.068 -31.327  0.00  0.00    -0.275 OA
ATOM      4  N   UNL A   1      32.827 -37.910 -33.009  0.00  0.00    -0.315 N 
ATOM      5  H   UNL A   1      33.697 -38.231 -33.341  0.00  0.00    +0.000 HD
BRANCH   2   6
ATOM      6  C   UNL A   1      33.044 -39.680 -31.335  0.00  0.00    +0.097 C 
BRANCH   6   7
ATOM      7  C   UNL A   1      33.234 -40.743 -32.398  0.00  0.00    +0.142 C 
ATOM      8  C   UNL A   1      32.198 -41.833 -32.473  0.00  0.00    -0.005 C 
ATOM      9  O   UNL A   1      34.179 -40.700 -33.191  0.00  0.00    -0.297 OA
ENDBRANCH   6   7
BRANCH   6  10
ATOM     10  C   UNL A   1      34.392 -39.227 -30.763  0.00  0.00    -0.010 C 
BRANCH  10  13
ATOM     11  C   UNL A   1      34.448 -41.395 -27.617  0.00  0.00    +0.162 A 
ATOM     12  C   UNL A   1      34.016 -40.526 -28.624  0.00  0.00    -0.013 A 
ATOM     13  C   UNL A   1      34.882 -40.140 -29.662  0.00  0.00    -0.043 A 
ATOM     14  C   UNL A   1      36.191 -40.639 -29.687  0.00  0.00    -0.055 A 
ATOM     15  C   UNL A   1      36.632 -41.508 -28.690  0.00  0.00    -0.016 A 
ATOM     16  C   UNL A   1      35.762 -41.880 -27.665  0.00  0.00    +0.158 A 
BRANCH  11  18
ATOM     17  C   UNL A   1      32.308 -41.463 -26.565  0.00  0.00    +0.079 C 
ATOM     18  O   UNL A   1      33.681 -41.828 -26.568  0.00  0.00    -0.491 OA
ENDBRANCH  11  18
BRANCH  16  19
ATOM     19  O   UNL A   1      36.195 -42.736 -26.687  0.00  0.00    -0.503 OA
ATOM     20  H   UNL A   1      36.281 -42.434 -25.804  0.00  0.00    +0.000 HD
ENDBRANCH  16  19
ENDBRANCH  10  13
ENDBRANCH   6  10
ENDBRANCH   2   6
ENDBRANCH   1   4
BRANCH   1  21
ATOM     21  C   UNL A   1      33.012 -35.579 -33.747  0.00  0.00    -0.036 C 
BRANCH  21  22
ATOM     22  C   UNL A   1      33.464 -35.176 -32.342  0.00  0.00    -0.036 C 
BRANCH  22  23
ATOM     23  C   UNL A   1      34.900 -35.615 -32.042  0.00  0.00    +0.009 C 
BRANCH  23  24
ATOM     24  N   UNL A   1      35.422 -34.869 -30.890  0.00  0.00    -0.343 N 
ATOM     25  H   UNL A   1      35.452 -33.886 -30.836  0.00  0.00    +0.000 HD
BRANCH  24  26
ATOM     26  C   UNL A   1      35.882 -35.740 -29.858  0.00  0.00    +0.041 A 
ATOM     27  C   UNL A   1      35.018 -36.146 -28.821  0.00  0.00    -0.005 A 
ATOM     28  C   UNL A   1      35.520 -37.051 -27.880  0.00  0.00    +0.047 A 
ATOM     29  N   UNL A   1      36.761 -37.586 -27.951  0.00  0.00    -0.251 NA
ATOM     30  C   UNL A   1      37.577 -37.209 -28.944  0.00  0.00    +0.073 A 
ATOM     31  C   UNL A   1      38.853 -37.757 -28.992  0.00  0.00    -0.036 A 
ATOM     32  C   UNL A   1      39.773 -37.407 -29.984  0.00  0.00    -0.060 A 
ATOM     33  C   UNL A   1      39.416 -36.480 -30.952  0.00  0.00    -0.061 A 
ATOM     34  C   UNL A   1      38.141 -35.919 -30.922  0.00  0.00    -0.051 A 
ATOM     35  C   UNL A   1      37.196 -36.281 -29.930  0.00  0.00    +0.021 A 
ATOM     36  C   UNL A   1      34.678 -37.556 -26.736  0.00  0.00    -0.010 C 
ATOM     37  C   UNL A   1      33.493 -36.655 -26.415  0.00  0.00    -0.047 C 
ATOM     38  C   UNL A   1      32.734 -36.334 -27.694  0.00  0.00    -0.049 C 
ATOM     39  C   UNL A   1      33.629 -35.571 -28.670  0.00  0.00    -0.024 C 
ENDBRANCH  24  26
ENDBRANCH  23  24
ENDBRANCH  22  23
ENDBRANCH  21  22
ENDBRANCH   1  21
TORSDOF 12
ENDMDL
MODEL 3
REMARK VINA RESULT:    -6.782     16.797     21.155
REMARK INTER + INTRA:         -14.978
REMARK INTER:                 -12.022
REMARK INTRA:                  -2.956
REMARK UNBOUND:                -3.637
REMARK  Name = cpd340.pdb
REMARK  14 active torsions:
REMARK  status: ('A' for Active; 'I' for Inactive)
REMARK    1  A    between atoms: C_1  and  O_2
REMARK    2  A    between atoms: O_2  and  C_3
REMARK    3  A    between atoms: C_5  and  C_6
REMARK    4  A    between atoms: C_6  and  C_7
REMARK    5  A    between atoms: C_7  and  C_8
REMARK    6  A    between atoms: C_7  and  C_11
REMARK    7  A    between atoms: C_8  and  C_9
REMARK    8  A    between atoms: N_13  and  C_14
REMARK    9  A    between atoms: C_14  and  C_15
REMARK   10  A    between atoms: C_15  and  C_16
REMARK   11  A    between atoms: C_16  and  C_17
REMARK   12  A    between atoms: C_17  and  N_18
REMARK   13  A    between atoms: N_18  and  C_19
REMARK   14  A    between atoms: C_35  and  O_36
REMARK                            x       y       z     vdW  Elec       q    Type
REMARK                         _______ _______ _______ _____ _____    ______ ____
ROOT
ATOM      1  C   UNL A   1      44.149 -16.520 -34.702  0.00  0.00    +0.012 C 
ENDROOT
BRANCH   1   4
ATOM      2  C   UNL A   1      45.723 -18.410 -34.918  0.00  0.00    +0.224 C 
ATOM      3  O   UNL A   1      45.359 -18.937 -33.870  0.00  0.00    -0.275 OA
ATOM      4  N   UNL A   1      45.244 -17.198 -35.364  0.00  0.00    -0.315 N 
ATOM      5  H   UNL A   1      45.657 -16.782 -36.155  0.00  0.00    +0.000 HD
BRANCH   2   6
ATOM      6  C   UNL A   1      46.783 -19.051 -35.793  0.00  0.00    +0.097 C 
BRANCH   6   7
ATOM      7  C   UNL A   1      48.022 -19.389 -34.987  0.00  0.00    +0.142 C 
ATOM      8  C   UNL A   1      49.132 -18.373 -34.975  0.00  0.00    -0.005 C 
ATOM      9  O   UNL A   1      48.104 -20.438 -34.342  0.00  0.00    -0.297 OA
ENDBRANCH   6   7
BRANCH   6  10
ATOM     10  C   UNL A   1      46.217 -20.297 -36.482  0.00  0.00    -0.010 C 
BRANCH  10  13
ATOM     11  C   UNL A   1      46.295 -21.156 -40.205  0.00  0.00    +0.162 A 
ATOM     12  C   UNL A   1      46.360 -21.273 -38.812  0.00  0.00    -0.013 A 
ATOM     13  C   UNL A   1      46.178 -20.150 -37.986  0.00  0.00    -0.043 A 
ATOM     14  C   UNL A   1      45.923 -18.903 -38.569  0.00  0.00    -0.055 A 
ATOM     15  C   UNL A   1      45.852 -18.774 -39.955  0.00  0.00    -0.016 A 
ATOM     16  C   UNL A   1      46.037 -19.897 -40.763  0.00  0.00    +0.158 A 
BRANCH  11  18
ATOM     17  C   UNL A   1      47.503 -23.114 -40.834  0.00  0.00    +0.079 C 
ATOM     18  O   UNL A   1      46.457 -22.189 -41.090  0.00  0.00    -0.491 OA
ENDBRANCH  11  18
BRANCH  16  19
ATOM     19  O   UNL A   1      45.966 -19.770 -42.124  0.00  0.00    -0.503 OA
ATOM     20  H   UNL A   1      45.606 -20.464 -42.641  0.00  0.00    +0.000 HD
ENDBRANCH  16  19
ENDBRANCH  10  13
ENDBRANCH   6  10
ENDBRANCH   2   6
ENDBRANCH   1   4
BRANCH   1  21
ATOM     21  C   UNL A   1      42.992 -16.276 -35.666  0.00  0.00    -0.036 C 
BRANCH  21  22
ATOM     22  C   UNL A   1      42.641 -17.542 -36.451  0.00  0.00    -0.036 C 
BRANCH  22  23
ATOM     23  C   UNL A   1      41.962 -18.601 -35.579  0.00  0.00    +0.009 C 
BRANCH  23  24
ATOM     24  N   UNL A   1      42.720 -19.857 -35.634  0.00  0.00    -0.343 N 
ATOM     25  H   UNL A   1      43.675 -19.937 -35.406  0.00  0.00    +0.000 HD
BRANCH  24  26
ATOM     26  C   UNL A   1      41.905 -20.950 -36.058  0.00  0.00    +0.041 A 
ATOM     27  C   UNL A   1      41.102 -21.649 -35.134  0.00  0.00    -0.005 A 
ATOM     28  C   UNL A   1      40.283 -22.667 -35.633  0.00  0.00    +0.047 A 
ATOM     29  N   UNL A   1      40.189 -22.969 -36.949  0.00  0.00    -0.251 NA
ATOM     30  C   UNL A   1      40.944 -22.295 -37.827  0.00  0.00    +0.073 A 
ATOM     31  C   UNL A   1      40.846 -22.629 -39.172  0.00  0.00    -0.036 A 
ATOM     32  C   UNL A   1      41.608 -21.988 -40.153  0.00  0.00    -0.060 A 
ATOM     33  C   UNL A   1      42.499 -20.991 -39.783  0.00  0.00    -0.061 A 
ATOM     34  C   UNL A   1      42.612 -20.640 -38.439  0.00  0.00    -0.051 A 
ATOM     35  C   UNL A   1      41.830 -21.273 -37.442  0.00  0.00    +0.021 A 
ATOM     36  C   UNL A   1      39.380 -23.472 -34.734  0.00  0.00    -0.010 C 
ATOM     37  C   UNL A   1      39.798 -23.437 -33.270  0.00  0.00    -0.047 C 
ATOM     38  C   UNL A   1      40.036 -21.998 -32.840  0.00  0.00    -0.049 C 
ATOM     39  C   UNL A   1      41.174 -21.379 -33.650  0.00  0.00    -0.024 C 
ENDBRANCH  24  26
ENDBRANCH  23  24
ENDBRANCH  22  23
ENDBRANCH  21  22
ENDBRANCH   1  21
TORSDOF 12
ENDMDL
MODEL 4
REMARK VINA RESULT:    -6.773      2.408      3.903
REMARK INTER + INTRA:         -14.963
REMARK INTER:                 -12.903
REMARK INTRA:                  -2.060
REMARK UNBOUND:                -3.637
REMARK  Name = cpd340.pdb
REMARK  14 active torsions:
REMARK  status: ('A' for Active; 'I' for Inactive)
REMARK    1  A    between atoms: C_1  and  O_2
REMARK    2  A    between atoms: O_2  and  C_3
REMARK    3  A    between atoms: C_5  and  C_6
REMARK    4  A    between atoms: C_6  and  C_7
REMARK    5  A    between atoms: C_7  and  C_8
REMARK    6  A    between atoms: C_7  and  C_11
REMARK    7  A    between atoms: C_8  and  C_9
REMARK    8  A    between atoms: N_13  and  C_14
REMARK    9  A    between atoms: C_14  and  C_15
REMARK   10  A    between atoms: C_15  and  C_16
REMARK   11  A    between atoms: C_16  and  C_17
REMARK   12  A    between atoms: C_17  and  N_18
REMARK   13  A    between atoms: N_18  and  C_19
REMARK   14  A    between atoms: C_35  and  O_36
REMARK                            x       y       z     vdW  Elec       q    Type
REMARK                         _______ _______ _______ _____ _____    ______ ____
ROOT
ATOM      1  C   UNL A   1      33.076 -33.543 -29.172  0.00  0.00    +0.012 C 
ENDROOT
BRANCH   1   4
ATOM      2  C   UNL A   1      31.103 -34.370 -30.407  0.00  0.00    +0.224 C 
ATOM      3  O   UNL A   1      30.395 -34.412 -29.404  0.00  0.00    -0.275 OA
ATOM      4  N   UNL A   1      32.438 -34.031 -30.378  0.00  0.00    -0.315 N 
ATOM      5  H   UNL A   1      32.974 -34.122 -31.199  0.00  0.00    +0.000 HD
BRANCH   2   6
ATOM      6  C   UNL A   1      30.557 -34.740 -31.771  0.00  0.00    +0.097 C 
BRANCH   6   7
ATOM      7  C   UNL A   1      29.531 -33.727 -32.239  0.00  0.00    +0.142 C 
ATOM      8  C   UNL A   1      28.126 -34.223 -32.456  0.00  0.00    -0.005 C 
ATOM      9  O   UNL A   1      29.825 -32.541 -32.404  0.00  0.00    -0.297 OA
ENDBRANCH   6   7
BRANCH   6  10
ATOM     10  C   UNL A   1      31.702 -34.869 -32.782  0.00  0.00    -0.010 C 
BRANCH  10  13
ATOM     11  C   UNL A   1      31.897 -38.290 -34.473  0.00  0.00    +0.162 A 
ATOM     12  C   UNL A   1      31.548 -36.966 -34.191  0.00  0.00    -0.013 A 
ATOM     13  C   UNL A   1      32.062 -36.311 -33.057  0.00  0.00    -0.043 A 
ATOM     14  C   UNL A   1      32.938 -36.997 -32.206  0.00  0.00    -0.055 A 
ATOM     15  C   UNL A   1      33.296 -38.317 -32.479  0.00  0.00    -0.016 A 
ATOM     16  C   UNL A   1      32.777 -38.954 -33.606  0.00  0.00    +0.158 A 
BRANCH  11  18
ATOM     17  C   UNL A   1      30.261 -38.568 -36.186  0.00  0.00    +0.079 C 
ATOM     18  O   UNL A   1      31.452 -39.009 -35.550  0.00  0.00    -0.491 OA
ENDBRANCH  11  18
BRANCH  16  19
ATOM     19  O   UNL A   1      33.131 -40.249 -33.875  0.00  0.00    -0.503 OA
ATOM     20  H   UNL A   1      32.895 -40.639 -34.694  0.00  0.00    +0.000 HD
ENDBRANCH  16  19
ENDBRANCH  10  13
ENDBRANCH   6  10
ENDBRANCH   2   6
ENDBRANCH   1   4
BRANCH   1  21
ATOM     21  C   UNL A   1      34.354 -32.777 -29.499  0.00  0.00    -0.036 C 
BRANCH  21  22
ATOM     22  C   UNL A   1      34.855 -33.101 -30.908  0.00  0.00    -0.036 C 
BRANCH  22  23
ATOM     23  C   UNL A   1      36.304 -33.596 -30.914  0.00  0.00    +0.009 C 
BRANCH  23  24
ATOM     24  N   UNL A   1      36.382 -34.911 -31.563  0.00  0.00    -0.343 N 
ATOM     25  H   UNL A   1      35.896 -35.150 -32.386  0.00  0.00    +0.000 HD
BRANCH  24  26
ATOM     26  C   UNL A   1      37.246 -35.800 -30.856  0.00  0.00    +0.041 A 
ATOM     27  C   UNL A   1      38.574 -36.003 -31.284  0.00  0.00    -0.005 A 
ATOM     28  C   UNL A   1      39.381 -36.840 -30.506  0.00  0.00    +0.047 A 
ATOM     29  N   UNL A   1      38.966 -37.411 -29.351  0.00  0.00    -0.251 NA
ATOM     30  C   UNL A   1      37.707 -37.207 -28.940  0.00  0.00    +0.073 A 
ATOM     31  C   UNL A   1      37.293 -37.814 -27.761  0.00  0.00    -0.036 A 
ATOM     32  C   UNL A   1      35.994 -37.668 -27.268  0.00  0.00    -0.060 A 
ATOM     33  C   UNL A   1      35.077 -36.901 -27.973  0.00  0.00    -0.061 A 
ATOM     34  C   UNL A   1      35.472 -36.283 -29.158  0.00  0.00    -0.051 A 
ATOM     35  C   UNL A   1      36.792 -36.412 -29.655  0.00  0.00    +0.021 A 
ATOM     36  C   UNL A   1      40.817 -37.118 -30.867  0.00  0.00    -0.010 C 
ATOM     37  C   UNL A   1      41.134 -36.851 -32.333  0.00  0.00    -0.047 C 
ATOM     38  C   UNL A   1      40.614 -35.476 -32.726  0.00  0.00    -0.049 C 
ATOM     39  C   UNL A   1      39.095 -35.414 -32.574  0.00  0.00    -0.024 C 
ENDBRANCH  24  26
ENDBRANCH  23  24
ENDBRANCH  22  23
ENDBRANCH  21  22
ENDBRANCH   1  21
TORSDOF 12
ENDMDL
MODEL 5
REMARK VINA RESULT:    -6.577     16.270     20.731
REMARK INTER + INTRA:         -14.636
REMARK INTER:                 -12.208
REMARK INTRA:                  -2.428
REMARK UNBOUND:                -3.637
REMARK  Name = cpd340.pdb
REMARK  14 active torsions:
REMARK  status: ('A' for Active; 'I' for Inactive)
REMARK    1  A    between atoms: C_1  and  O_2
REMARK    2  A    between atoms: O_2  and  C_3
REMARK    3  A    between atoms: C_5  and  C_6
REMARK    4  A    between atoms: C_6  and  C_7
REMARK    5  A    between atoms: C_7  and  C_8
REMARK    6  A    between atoms: C_7  and  C_11
REMARK    7  A    between atoms: C_8  and  C_9
REMARK    8  A    between atoms: N_13  and  C_14
REMARK    9  A    between atoms: C_14  and  C_15
REMARK   10  A    between atoms: C_15  and  C_16
REMARK   11  A    between atoms: C_16  and  C_17
REMARK   12  A    between atoms: C_17  and  N_18
REMARK   13  A    between atoms: N_18  and  C_19
REMARK   14  A    between atoms: C_35  and  O_36
REMARK                            x       y       z     vdW  Elec       q    Type
REMARK                         _______ _______ _______ _____ _____    ______ ____
ROOT
ATOM      1  C   UNL A   1      44.195 -19.550 -33.880  0.00  0.00    +0.012 C 
ENDROOT
BRANCH   1   4
ATOM      2  C   UNL A   1      44.769 -18.689 -36.123  0.00  0.00    +0.224 C 
ATOM      3  O   UNL A   1      43.887 -17.834 -36.107  0.00  0.00    -0.275 OA
ATOM      4  N   UNL A   1      44.946 -19.614 -35.117  0.00  0.00    -0.315 N 
ATOM      5  H   UNL A   1      45.601 -20.339 -35.243  0.00  0.00    +0.000 HD
BRANCH   2   6
ATOM      6  C   UNL A   1      45.718 -18.818 -37.297  0.00  0.00    +0.097 C 
BRANCH   6   7
ATOM      7  C   UNL A   1      47.023 -18.097 -37.024  0.00  0.00    +0.142 C 
ATOM      8  C   UNL A   1      47.238 -16.778 -37.716  0.00  0.00    -0.005 C 
ATOM      9  O   UNL A   1      47.861 -18.556 -36.242  0.00  0.00    -0.297 OA
ENDBRANCH   6   7
BRANCH   6  10
ATOM     10  C   UNL A   1      45.963 -20.296 -37.620  0.00  0.00    -0.010 C 
BRANCH  10  13
ATOM     11  C   UNL A   1      46.212 -22.108 -40.975  0.00  0.00    +0.162 A 
ATOM     12  C   UNL A   1      46.294 -21.828 -39.607  0.00  0.00    -0.013 A 
ATOM     13  C   UNL A   1      45.901 -20.574 -39.104  0.00  0.00    -0.043 A 
ATOM     14  C   UNL A   1      45.417 -19.601 -39.988  0.00  0.00    -0.055 A 
ATOM     15  C   UNL A   1      45.328 -19.871 -41.352  0.00  0.00    -0.016 A 
ATOM     16  C   UNL A   1      45.723 -21.118 -41.837  0.00  0.00    +0.158 A 
BRANCH  11  18
ATOM     17  C   UNL A   1      47.954 -23.560 -41.715  0.00  0.00    +0.079 C 
ATOM     18  O   UNL A   1      46.568 -23.296 -41.557  0.00  0.00    -0.491 OA
ENDBRANCH  11  18
BRANCH  16  19
ATOM     19  O   UNL A   1      45.633 -21.383 -43.178  0.00  0.00    -0.503 OA
ATOM     20  H   UNL A   1      46.149 -22.067 -43.556  0.00  0.00    +0.000 HD
ENDBRANCH  16  19
ENDBRANCH  10  13
ENDBRANCH   6  10
ENDBRANCH   2   6
ENDBRANCH   1   4
BRANCH   1  21
ATOM     21  C   UNL A   1      42.982 -20.473 -33.926  0.00  0.00    -0.036 C 
BRANCH  21  22
ATOM     22  C   UNL A   1      41.698 -19.731 -33.547  0.00  0.00    -0.036 C 
BRANCH  22  23
ATOM     23  C   UNL A   1      41.154 -18.880 -34.698  0.00  0.00    +0.009 C 
BRANCH  23  24
ATOM     24  N   UNL A   1      39.828 -19.366 -35.098  0.00  0.00    -0.343 N 
ATOM     25  H   UNL A   1      39.000 -18.839 -35.021  0.00  0.00    +0.000 HD
BRANCH  24  26
ATOM     26  C   UNL A   1      39.884 -20.697 -35.611  0.00  0.00    +0.041 A 
ATOM     27  C   UNL A   1      39.127 -21.729 -35.020  0.00  0.00    -0.005 A 
ATOM     28  C   UNL A   1      39.183 -22.993 -35.617  0.00  0.00    +0.047 A 
ATOM     29  N   UNL A   1      39.879 -23.252 -36.748  0.00  0.00    -0.251 NA
ATOM     30  C   UNL A   1      40.589 -22.267 -37.315  0.00  0.00    +0.073 A 
ATOM     31  C   UNL A   1      41.310 -22.555 -38.467  0.00  0.00    -0.036 A 
ATOM     32  C   UNL A   1      42.089 -21.592 -39.115  0.00  0.00    -0.060 A 
ATOM     33  C   UNL A   1      42.159 -20.307 -38.596  0.00  0.00    -0.061 A 
ATOM     34  C   UNL A   1      41.442 -19.997 -37.442  0.00  0.00    -0.051 A 
ATOM     35  C   UNL A   1      40.636 -20.963 -36.790  0.00  0.00    +0.021 A 
ATOM     36  C   UNL A   1      38.407 -24.163 -35.071  0.00  0.00    -0.010 C 
ATOM     37  C   UNL A   1      38.001 -23.992 -33.612  0.00  0.00    -0.047 C 
ATOM     38  C   UNL A   1      37.354 -22.629 -33.419  0.00  0.00    -0.049 C 
ATOM     39  C   UNL A   1      38.346 -21.514 -33.745  0.00  0.00    -0.024 C 
ENDBRANCH  24  26
ENDBRANCH  23  24
ENDBRANCH  22  23
ENDBRANCH  21  22
ENDBRANCH   1  21
TORSDOF 12
ENDMDL
MODEL 6
REMARK VINA RESULT:    -6.534     17.154     21.208
REMARK INTER + INTRA:         -14.565
REMARK INTER:                 -11.690
REMARK INTRA:                  -2.874
REMARK UNBOUND:                -3.637
REMARK  Name = cpd340.pdb
REMARK  14 active torsions:
REMARK  status: ('A' for Active; 'I' for Inactive)
REMARK    1  A    between atoms: C_1  and  O_2
REMARK    2  A    between atoms: O_2  and  C_3
REMARK    3  A    between atoms: C_5  and  C_6
REMARK    4  A    between atoms: C_6  and  C_7
REMARK    5  A    between atoms: C_7  and  C_8
REMARK    6  A    between atoms: C_7  and  C_11
REMARK    7  A    between atoms: C_8  and  C_9
REMARK    8  A    between atoms: N_13  and  C_14
REMARK    9  A    between atoms: C_14  and  C_15
REMARK   10  A    between atoms: C_15  and  C_16
REMARK   11  A    between atoms: C_16  and  C_17
REMARK   12  A    between atoms: C_17  and  N_18
REMARK   13  A    between atoms: N_18  and  C_19
REMARK   14  A    between atoms: C_35  and  O_36
REMARK                            x       y       z     vdW  Elec       q    Type
REMARK                         _______ _______ _______ _____ _____    ______ ____
ROOT
ATOM      1  C   UNL A   1      45.513 -17.614 -35.208  0.00  0.00    +0.012 C 
ENDROOT
BRANCH   1   4
ATOM      2  C   UNL A   1      45.886 -17.667 -37.649  0.00  0.00    +0.224 C 
ATOM      3  O   UNL A   1      47.093 -17.460 -37.548  0.00  0.00    -0.275 OA
ATOM      4  N   UNL A   1      45.028 -17.685 -36.571  0.00  0.00    -0.315 N 
ATOM      5  H   UNL A   1      44.058 -17.748 -36.732  0.00  0.00    +0.000 HD
BRANCH   2   6
ATOM      6  C   UNL A   1      45.235 -17.878 -39.001  0.00  0.00    +0.097 C 
BRANCH   6   7
ATOM      7  C   UNL A   1      44.302 -16.733 -39.341  0.00  0.00    +0.142 C 
ATOM      8  C   UNL A   1      43.012 -17.080 -40.035  0.00  0.00    -0.005 C 
ATOM      9  O   UNL A   1      44.572 -15.569 -39.032  0.00  0.00    -0.297 OA
ENDBRANCH   6   7
BRANCH   6  10
ATOM     10  C   UNL A   1      46.306 -18.054 -40.082  0.00  0.00    -0.010 C 
BRANCH  10  13
ATOM     11  C   UNL A   1      46.669 -21.725 -41.081  0.00  0.00    +0.162 A 
ATOM     12  C   UNL A   1      46.830 -20.508 -40.409  0.00  0.00    -0.013 A 
ATOM     13  C   UNL A   1      46.150 -19.355 -40.837  0.00  0.00    -0.043 A 
ATOM     14  C   UNL A   1      45.297 -19.431 -41.945  0.00  0.00    -0.055 A 
ATOM     15  C   UNL A   1      45.126 -20.639 -42.620  0.00  0.00    -0.016 A 
ATOM     16  C   UNL A   1      45.809 -21.775 -42.186  0.00  0.00    +0.158 A 
BRANCH  11  18
ATOM     17  C   UNL A   1      48.673 -23.017 -41.020  0.00  0.00    +0.079 C 
ATOM     18  O   UNL A   1      47.286 -22.899 -40.739  0.00  0.00    -0.491 OA
ENDBRANCH  11  18
BRANCH  16  19
ATOM     19  O   UNL A   1      45.639 -22.962 -42.848  0.00  0.00    -0.503 OA
ATOM     20  H   UNL A   1      45.730 -23.773 -42.387  0.00  0.00    +0.000 HD
ENDBRANCH  16  19
ENDBRANCH  10  13
ENDBRANCH   6  10
ENDBRANCH   2   6
ENDBRANCH   1   4
BRANCH   1  21
ATOM     21  C   UNL A   1      45.784 -19.008 -34.650  0.00  0.00    -0.036 C 
BRANCH  21  22
ATOM     22  C   UNL A   1      44.824 -20.044 -35.240  0.00  0.00    -0.036 C 
BRANCH  22  23
ATOM     23  C   UNL A   1      43.539 -20.182 -34.421  0.00  0.00    +0.009 C 
BRANCH  23  24
ATOM     24  N   UNL A   1      42.397 -19.670 -35.189  0.00  0.00    -0.343 N 
ATOM     25  H   UNL A   1      42.173 -18.715 -35.275  0.00  0.00    +0.000 HD
BRANCH  24  26
ATOM     26  C   UNL A   1      41.651 -20.723 -35.797  0.00  0.00    +0.041 A 
ATOM     27  C   UNL A   1      41.892 -21.096 -37.136  0.00  0.00    -0.005 A 
ATOM     28  C   UNL A   1      41.167 -22.179 -37.644  0.00  0.00    +0.047 A 
ATOM     29  N   UNL A   1      40.298 -22.906 -36.904  0.00  0.00    -0.251 NA
ATOM     30  C   UNL A   1      40.079 -22.558 -35.629  0.00  0.00    +0.073 A 
ATOM     31  C   UNL A   1      39.173 -23.307 -34.888  0.00  0.00    -0.036 A 
ATOM     32  C   UNL A   1      38.874 -23.004 -33.557  0.00  0.00    -0.060 A 
ATOM     33  C   UNL A   1      39.489 -21.921 -32.947  0.00  0.00    -0.061 A 
ATOM     34  C   UNL A   1      40.403 -21.158 -33.671  0.00  0.00    -0.051 A 
ATOM     35  C   UNL A   1      40.724 -21.469 -35.016  0.00  0.00    +0.021 A 
ATOM     36  C   UNL A   1      41.353 -22.664 -39.059  0.00  0.00    -0.010 C 
ATOM     37  C   UNL A   1      41.967 -21.619 -39.981  0.00  0.00    -0.047 C 
ATOM     38  C   UNL A   1      43.204 -21.023 -39.325  0.00  0.00    -0.049 C 
ATOM     39  C   UNL A   1      42.831 -20.314 -38.024  0.00  0.00    -0.024 C 
ENDBRANCH  24  26
ENDBRANCH  23  24
ENDBRANCH  22  23
ENDBRANCH  21  22
ENDBRANCH   1  21
TORSDOF 12
ENDMDL
MODEL 7
REMARK VINA RESULT:    -6.366     17.095     21.294
REMARK INTER + INTRA:         -14.283
REMARK INTER:                 -11.857
REMARK INTRA:                  -2.425
REMARK UNBOUND:                -3.637
REMARK  Name = cpd340.pdb
REMARK  14 active torsions:
REMARK  status: ('A' for Active; 'I' for Inactive)
REMARK    1  A    between atoms: C_1  and  O_2
REMARK    2  A    between atoms: O_2  and  C_3
REMARK    3  A    between atoms: C_5  and  C_6
REMARK    4  A    between atoms: C_6  and  C_7
REMARK    5  A    between atoms: C_7  and  C_8
REMARK    6  A    between atoms: C_7  and  C_11
REMARK    7  A    between atoms: C_8  and  C_9
REMARK    8  A    between atoms: N_13  and  C_14
REMARK    9  A    between atoms: C_14  and  C_15
REMARK   10  A    between atoms: C_15  and  C_16
REMARK   11  A    between atoms: C_16  and  C_17
REMARK   12  A    between atoms: C_17  and  N_18
REMARK   13  A    between atoms: N_18  and  C_19
REMARK   14  A    between atoms: C_35  and  O_36
REMARK                            x       y       z     vdW  Elec       q    Type
REMARK                         _______ _______ _______ _____ _____    ______ ____
ROOT
ATOM      1  C   UNL A   1      43.737 -16.485 -35.030  0.00  0.00    +0.012 C 
ENDROOT
BRANCH   1   4
ATOM      2  C   UNL A   1      45.939 -16.965 -36.039  0.00  0.00    +0.224 C 
ATOM      3  O   UNL A   1      46.053 -15.839 -36.517  0.00  0.00    -0.275 OA
ATOM      4  N   UNL A   1      44.816 -17.392 -35.365  0.00  0.00    -0.315 N 
ATOM      5  H   UNL A   1      44.746 -18.338 -35.103  0.00  0.00    +0.000 HD
BRANCH   2   6
ATOM      6  C   UNL A   1      47.033 -18.002 -36.200  0.00  0.00    +0.097 C 
BRANCH   6   7
ATOM      7  C   UNL A   1      47.824 -18.162 -34.917  0.00  0.00    +0.142 C 
ATOM      8  C   UNL A   1      49.217 -18.722 -35.034  0.00  0.00    -0.005 C 
ATOM      9  O   UNL A   1      47.360 -17.817 -33.827  0.00  0.00    -0.297 OA
ENDBRANCH   6   7
BRANCH   6  10
ATOM     10  C   UNL A   1      46.432 -19.339 -36.645  0.00  0.00    -0.010 C 
BRANCH  10  13
ATOM     11  C   UNL A   1      46.884 -21.148 -39.981  0.00  0.00    +0.162 A 
ATOM     12  C   UNL A   1      46.735 -20.903 -38.612  0.00  0.00    -0.013 A 
ATOM     13  C   UNL A   1      46.626 -19.589 -38.124  0.00  0.00    -0.043 A 
ATOM     14  C   UNL A   1      46.660 -18.516 -39.024  0.00  0.00    -0.055 A 
ATOM     15  C   UNL A   1      46.805 -18.749 -40.391  0.00  0.00    -0.016 A 
ATOM     16  C   UNL A   1      46.915 -20.058 -40.861  0.00  0.00    +0.158 A 
BRANCH  11  18
ATOM     17  C   UNL A   1      48.300 -22.941 -40.667  0.00  0.00    +0.079 C 
ATOM     18  O   UNL A   1      46.997 -22.389 -40.550  0.00  0.00    -0.491 OA
ENDBRANCH  11  18
BRANCH  16  19
ATOM     19  O   UNL A   1      47.055 -20.285 -42.204  0.00  0.00    -0.503 OA
ATOM     20  H   UNL A   1      46.432 -19.929 -42.807  0.00  0.00    +0.000 HD
ENDBRANCH  16  19
ENDBRANCH  10  13
ENDBRANCH   6  10
ENDBRANCH   2   6
ENDBRANCH   1   4
BRANCH   1  21
ATOM     21  C   UNL A   1      42.571 -17.234 -34.391  0.00  0.00    -0.036 C 
BRANCH  21  22
ATOM     22  C   UNL A   1      43.058 -18.430 -33.569  0.00  0.00    -0.036 C 
BRANCH  22  23
ATOM     23  C   UNL A   1      42.388 -19.740 -33.991  0.00  0.00    +0.009 C 
BRANCH  23  24
ATOM     24  N   UNL A   1      41.212 -19.457 -34.823  0.00  0.00    -0.343 N 
ATOM     25  H   UNL A   1      40.709 -18.611 -34.798  0.00  0.00    +0.000 HD
BRANCH  24  26
ATOM     26  C   UNL A   1      40.887 -20.557 -35.672  0.00  0.00    +0.041 A 
ATOM     27  C   UNL A   1      41.511 -20.705 -36.928  0.00  0.00    -0.005 A 
ATOM     28  C   UNL A   1      41.189 -21.841 -37.678  0.00  0.00    +0.047 A 
ATOM     29  N   UNL A   1      40.359 -22.814 -37.235  0.00  0.00    -0.251 NA
ATOM     30  C   UNL A   1      39.776 -22.677 -36.037  0.00  0.00    +0.073 A 
ATOM     31  C   UNL A   1      38.915 -23.679 -35.605  0.00  0.00    -0.036 A 
ATOM     32  C   UNL A   1      38.253 -23.610 -34.377  0.00  0.00    -0.060 A 
ATOM     33  C   UNL A   1      38.448 -22.508 -33.556  0.00  0.00    -0.061 A 
ATOM     34  C   UNL A   1      39.309 -21.493 -33.969  0.00  0.00    -0.051 A 
ATOM     35  C   UNL A   1      39.997 -21.564 -35.206  0.00  0.00    +0.021 A 
ATOM     36  C   UNL A   1      41.804 -22.101 -39.029  0.00  0.00    -0.010 C 
ATOM     37  C   UNL A   1      42.364 -20.848 -39.689  0.00  0.00    -0.047 C 
ATOM     38  C   UNL A   1      43.246 -20.100 -38.701  0.00  0.00    -0.049 C 
ATOM     39  C   UNL A   1      42.430 -19.647 -37.491  0.00  0.00    -0.024 C 
ENDBRANCH  24  26
ENDBRANCH  23  24
ENDBRANCH  22  23
ENDBRANCH  21  22
ENDBRANCH   1  21
TORSDOF 12
ENDMDL
MODEL 8
REMARK VINA RESULT:    -6.331     17.628     21.535
REMARK INTER + INTRA:         -14.225
REMARK INTER:                 -11.611
REMARK INTRA:                  -2.613
REMARK UNBOUND:                -3.637
REMARK  Name = cpd340.pdb
REMARK  14 active torsions:
REMARK  status: ('A' for Active; 'I' for Inactive)
REMARK    1  A    between atoms: C_1  and  O_2
REMARK    2  A    between atoms: O_2  and  C_3
REMARK    3  A    between atoms: C_5  and  C_6
REMARK    4  A    between atoms: C_6  and  C_7
REMARK    5  A    between atoms: C_7  and  C_8
REMARK    6  A    between atoms: C_7  and  C_11
REMARK    7  A    between atoms: C_8  and  C_9
REMARK    8  A    between atoms: N_13  and  C_14
REMARK    9  A    between atoms: C_14  and  C_15
REMARK   10  A    between atoms: C_15  and  C_16
REMARK   11  A    between atoms: C_16  and  C_17
REMARK   12  A    between atoms: C_17  and  N_18
REMARK   13  A    between atoms: N_18  and  C_19
REMARK   14  A    between atoms: C_35  and  O_36
REMARK                            x       y       z     vdW  Elec       q    Type
REMARK                         _______ _______ _______ _____ _____    ______ ____
ROOT
ATOM      1  C   UNL A   1      46.987 -18.177 -34.416  0.00  0.00    +0.012 C 
ENDROOT
BRANCH   1   4
ATOM      2  C   UNL A   1      45.138 -19.812 -34.351  0.00  0.00    +0.224 C 
ATOM      3  O   UNL A   1      45.883 -20.765 -34.140  0.00  0.00    -0.275 OA
ATOM      4  N   UNL A   1      45.591 -18.530 -34.572  0.00  0.00    -0.315 N 
ATOM      5  H   UNL A   1      44.948 -17.835 -34.843  0.00  0.00    +0.000 HD
BRANCH   2   6
ATOM      6  C   UNL A   1      43.635 -19.992 -34.430  0.00  0.00    +0.097 C 
BRANCH   6   7
ATOM      7  C   UNL A   1      42.960 -19.492 -33.168  0.00  0.00    +0.142 C 
ATOM      8  C   UNL A   1      41.752 -20.252 -32.688  0.00  0.00    -0.005 C 
ATOM      9  O   UNL A   1      43.400 -18.524 -32.543  0.00  0.00    -0.297 OA
ENDBRANCH   6   7
BRANCH   6  10
ATOM     10  C   UNL A   1      43.082 -19.279 -35.669  0.00  0.00    -0.010 C 
BRANCH  10  13
ATOM     11  C   UNL A   1      40.801 -22.156 -36.731  0.00  0.00    +0.162 A 
ATOM     12  C   UNL A   1      41.611 -21.319 -35.956  0.00  0.00    -0.013 A 
ATOM     13  C   UNL A   1      42.236 -20.195 -36.525  0.00  0.00    -0.043 A 
ATOM     14  C   UNL A   1      42.038 -19.912 -37.882  0.00  0.00    -0.055 A 
ATOM     15  C   UNL A   1      41.231 -20.737 -38.663  0.00  0.00    -0.016 A 
ATOM     16  C   UNL A   1      40.618 -21.850 -38.086  0.00  0.00    +0.158 A 
BRANCH  11  18
ATOM     17  C   UNL A   1      40.051 -23.434 -34.862  0.00  0.00    +0.079 C 
ATOM     18  O   UNL A   1      40.151 -23.270 -36.269  0.00  0.00    -0.491 OA
ENDBRANCH  11  18
BRANCH  16  19
ATOM     19  O   UNL A   1      39.824 -22.659 -38.854  0.00  0.00    -0.503 OA
ATOM     20  H   UNL A   1      39.147 -23.168 -38.453  0.00  0.00    +0.000 HD
ENDBRANCH  16  19
ENDBRANCH  10  13
ENDBRANCH   6  10
ENDBRANCH   2   6
ENDBRANCH   1   4
BRANCH   1  21
ATOM     21  C   UNL A   1      47.780 -18.509 -35.677  0.00  0.00    -0.036 C 
BRANCH  21  22
ATOM     22  C   UNL A   1      47.116 -17.925 -36.926  0.00  0.00    -0.036 C 
BRANCH  22  23
ATOM     23  C   UNL A   1      47.008 -18.946 -38.061  0.00  0.00    +0.009 C 
BRANCH  23  24
ATOM     24  N   UNL A   1      45.615 -19.383 -38.213  0.00  0.00    -0.343 N 
ATOM     25  H   UNL A   1      45.081 -19.788 -37.491  0.00  0.00    +0.000 HD
BRANCH  24  26
ATOM     26  C   UNL A   1      45.127 -19.152 -39.534  0.00  0.00    +0.041 A 
ATOM     27  C   UNL A   1      44.534 -17.919 -39.876  0.00  0.00    -0.005 A 
ATOM     28  C   UNL A   1      44.137 -17.741 -41.205  0.00  0.00    +0.047 A 
ATOM     29  N   UNL A   1      44.342 -18.665 -42.173  0.00  0.00    -0.251 NA
ATOM     30  C   UNL A   1      44.917 -19.831 -41.849  0.00  0.00    +0.073 A 
ATOM     31  C   UNL A   1      45.105 -20.773 -42.852  0.00  0.00    -0.036 A 
ATOM     32  C   UNL A   1      45.682 -22.020 -42.599  0.00  0.00    -0.060 A 
ATOM     33  C   UNL A   1      46.076 -22.342 -41.309  0.00  0.00    -0.061 A 
ATOM     34  C   UNL A   1      45.897 -21.411 -40.288  0.00  0.00    -0.051 A 
ATOM     35  C   UNL A   1      45.329 -20.138 -40.540  0.00  0.00    +0.021 A 
ATOM     36  C   UNL A   1      43.500 -16.460 -41.678  0.00  0.00    -0.010 C 
ATOM     37  C   UNL A   1      42.890 -15.636 -40.552  0.00  0.00    -0.047 C 
ATOM     38  C   UNL A   1      43.899 -15.487 -39.423  0.00  0.00    -0.049 C 
ATOM     39  C   UNL A   1      44.255 -16.854 -38.841  0.00  0.00    -0.024 C 
ENDBRANCH  24  26
ENDBRANCH  23  24
ENDBRANCH  22  23
ENDBRANCH  21  22
ENDBRANCH   1  21
TORSDOF 12
ENDMDL
MODEL 9
REMARK VINA RESULT:    -6.249     17.976     21.573
REMARK INTER + INTRA:         -14.087
REMARK INTER:                  -9.494
REMARK INTRA:                  -4.593
REMARK UNBOUND:                -3.637
REMARK  Name = cpd340.pdb
REMARK  14 active torsions:
REMARK  status: ('A' for Active; 'I' for Inactive)
REMARK    1  A    between atoms: C_1  and  O_2
REMARK    2  A    between atoms: O_2  and  C_3
REMARK    3  A    between atoms: C_5  and  C_6
REMARK    4  A    between atoms: C_6  and  C_7
REMARK    5  A    between atoms: C_7  and  C_8
REMARK    6  A    between atoms: C_7  and  C_11
REMARK    7  A    between atoms: C_8  and  C_9
REMARK    8  A    between atoms: N_13  and  C_14
REMARK    9  A    between atoms: C_14  and  C_15
REMARK   10  A    between atoms: C_15  and  C_16
REMARK   11  A    between atoms: C_16  and  C_17
REMARK   12  A    between atoms: C_17  and  N_18
REMARK   13  A    between atoms: N_18  and  C_19
REMARK   14  A    between atoms: C_35  and  O_36
REMARK                            x       y       z     vdW  Elec       q    Type
REMARK                         _______ _______ _______ _____ _____    ______ ____
ROOT
ATOM      1  C   UNL A   1      39.398 -21.678 -37.396  0.00  0.00    +0.012 C 
ENDROOT
BRANCH   1   4
ATOM      2  C   UNL A   1      41.368 -20.945 -36.098  0.00  0.00    +0.224 C 
ATOM      3  O   UNL A   1      42.006 -21.966 -36.342  0.00  0.00    -0.275 OA
ATOM      4  N   UNL A   1      40.067 -20.749 -36.507  0.00  0.00    -0.315 N 
ATOM      5  H   UNL A   1      39.578 -19.957 -36.186  0.00  0.00    +0.000 HD
BRANCH   2   6
ATOM      6  C   UNL A   1      41.966 -19.822 -35.275  0.00  0.00    +0.097 C 
BRANCH   6   7
ATOM      7  C   UNL A   1      41.117 -19.532 -34.053  0.00  0.00    +0.142 C 
ATOM      8  C   UNL A   1      41.402 -20.337 -32.813  0.00  0.00    -0.005 C 
ATOM      9  O   UNL A   1      40.253 -18.652 -34.063  0.00  0.00    -0.297 OA
ENDBRANCH   6   7
BRANCH   6  10
ATOM     10  C   UNL A   1      43.405 -20.166 -34.877  0.00  0.00    -0.010 C 
BRANCH  10  13
ATOM     11  C   UNL A   1      45.404 -17.535 -36.797  0.00  0.00    +0.162 A 
ATOM     12  C   UNL A   1      44.449 -18.136 -35.970  0.00  0.00    -0.013 A 
ATOM     13  C   UNL A   1      44.420 -19.532 -35.800  0.00  0.00    -0.043 A 
ATOM     14  C   UNL A   1      45.365 -20.324 -36.464  0.00  0.00    -0.055 A 
ATOM     15  C   UNL A   1      46.323 -19.736 -37.288  0.00  0.00    -0.016 A 
ATOM     16  C   UNL A   1      46.338 -18.350 -37.449  0.00  0.00    +0.158 A 
BRANCH  11  18
ATOM     17  C   UNL A   1      45.164 -15.314 -35.960  0.00  0.00    +0.079 C 
ATOM     18  O   UNL A   1      45.512 -16.188 -37.024  0.00  0.00    -0.491 OA
ENDBRANCH  11  18
BRANCH  16  19
ATOM     19  O   UNL A   1      47.281 -17.773 -38.258  0.00  0.00    -0.503 OA
ATOM     20  H   UNL A   1      47.560 -16.893 -38.097  0.00  0.00    +0.000 HD
ENDBRANCH  16  19
ENDBRANCH  10  13
ENDBRANCH   6  10
ENDBRANCH   2   6
ENDBRANCH   1   4
BRANCH   1  21
ATOM     21  C   UNL A   1      39.696 -21.349 -38.856  0.00  0.00    -0.036 C 
BRANCH  21  22
ATOM     22  C   UNL A   1      40.593 -22.411 -39.497  0.00  0.00    -0.036 C 
BRANCH  22  23
ATOM     23  C   UNL A   1      41.800 -21.801 -40.213  0.00  0.00    +0.009 C 
BRANCH  23  24
ATOM     24  N   UNL A   1      42.844 -21.463 -39.238  0.00  0.00    -0.343 N 
ATOM     25  H   UNL A   1      42.927 -21.881 -38.351  0.00  0.00    +0.000 HD
BRANCH  24  26
ATOM     26  C   UNL A   1      43.724 -20.453 -39.732  0.00  0.00    +0.041 A 
ATOM     27  C   UNL A   1      44.885 -20.801 -40.452  0.00  0.00    -0.005 A 
ATOM     28  C   UNL A   1      45.665 -19.757 -40.960  0.00  0.00    +0.047 A 
ATOM     29  N   UNL A   1      45.332 -18.451 -40.837  0.00  0.00    -0.251 NA
ATOM     30  C   UNL A   1      44.222 -18.123 -40.162  0.00  0.00    +0.073 A 
ATOM     31  C   UNL A   1      43.904 -16.777 -40.033  0.00  0.00    -0.036 A 
ATOM     32  C   UNL A   1      42.774 -16.346 -39.332  0.00  0.00    -0.060 A 
ATOM     33  C   UNL A   1      41.941 -17.281 -38.737  0.00  0.00    -0.061 A 
ATOM     34  C   UNL A   1      42.241 -18.637 -38.856  0.00  0.00    -0.051 A 
ATOM     35  C   UNL A   1      43.375 -19.082 -39.579  0.00  0.00    +0.021 A 
ATOM     36  C   UNL A   1      46.922 -20.017 -41.751  0.00  0.00    -0.010 C 
ATOM     37  C   UNL A   1      47.508 -21.403 -41.515  0.00  0.00    -0.047 C 
ATOM     38  C   UNL A   1      46.415 -22.451 -41.659  0.00  0.00    -0.049 C 
ATOM     39  C   UNL A   1      45.327 -22.237 -40.608  0.00  0.00    -0.024 C 
ENDBRANCH  24  26
ENDBRANCH  23  24
ENDBRANCH  22  23
ENDBRANCH  21  22
ENDBRANCH   1  21
TORSDOF 12
ENDMDL
MODEL 10
REMARK VINA RESULT:    -6.218     15.936     19.754
REMARK INTER + INTRA:         -14.035
REMARK INTER:                 -12.170
REMARK INTRA:                  -1.864
REMARK UNBOUND:                -3.637
REMARK  Name = cpd340.pdb
REMARK  14 active torsions:
REMARK  status: ('A' for Active; 'I' for Inactive)
REMARK    1  A    between atoms: C_1  and  O_2
REMARK    2  A    between atoms: O_2  and  C_3
REMARK    3  A    between atoms: C_5  and  C_6
REMARK    4  A    between atoms: C_6  and  C_7
REMARK    5  A    between atoms: C_7  and  C_8
REMARK    6  A    between atoms: C_7  and  C_11
REMARK    7  A    between atoms: C_8  and  C_9
REMARK    8  A    between atoms: N_13  and  C_14
REMARK    9  A    between atoms: C_14  and  C_15
REMARK   10  A    between atoms: C_15  and  C_16
REMARK   11  A    between atoms: C_16  and  C_17
REMARK   12  A    between atoms: C_17  and  N_18
REMARK   13  A    between atoms: N_18  and  C_19
REMARK   14  A    between atoms: C_35  and  O_36
REMARK                            x       y       z     vdW  Elec       q    Type
REMARK                         _______ _______ _______ _____ _____    ______ ____
ROOT
ATOM      1  C   UNL A   1      39.847 -21.085 -37.241  0.00  0.00    +0.012 C 
ENDROOT
BRANCH   1   4
ATOM      2  C   UNL A   1      40.023 -22.348 -35.126  0.00  0.00    +0.224 C 
ATOM      3  O   UNL A   1      40.688 -23.250 -35.629  0.00  0.00    -0.275 OA
ATOM      4  N   UNL A   1      39.508 -21.294 -35.848  0.00  0.00    -0.315 N 
ATOM      5  H   UNL A   1      38.894 -20.665 -35.405  0.00  0.00    +0.000 HD
BRANCH   2   6
ATOM      6  C   UNL A   1      39.676 -22.356 -33.651  0.00  0.00    +0.097 C 
BRANCH   6   7
ATOM      7  C   UNL A   1      39.234 -23.735 -33.202  0.00  0.00    +0.142 C 
ATOM      8  C   UNL A   1      38.018 -24.318 -33.870  0.00  0.00    -0.005 C 
ATOM      9  O   UNL A   1      39.864 -24.367 -32.350  0.00  0.00    -0.297 OA
ENDBRANCH   6   7
BRANCH   6  10
ATOM     10  C   UNL A   1      40.869 -21.864 -32.824  0.00  0.00    -0.010 C 
BRANCH  10  13
ATOM     11  C   UNL A   1      39.915 -18.184 -32.442  0.00  0.00    +0.162 A 
ATOM     12  C   UNL A   1      39.832 -19.579 -32.498  0.00  0.00    -0.013 A 
ATOM     13  C   UNL A   1      40.965 -20.356 -32.800  0.00  0.00    -0.043 A 
ATOM     14  C   UNL A   1      42.189 -19.720 -33.040  0.00  0.00    -0.055 A 
ATOM     15  C   UNL A   1      42.285 -18.331 -32.984  0.00  0.00    -0.016 A 
ATOM     16  C   UNL A   1      41.152 -17.572 -32.685  0.00  0.00    +0.158 A 
BRANCH  11  18
ATOM     17  C   UNL A   1      37.557 -17.824 -32.401  0.00  0.00    +0.079 C 
ATOM     18  O   UNL A   1      38.871 -17.344 -32.155  0.00  0.00    -0.491 OA
ENDBRANCH  11  18
BRANCH  16  19
ATOM     19  O   UNL A   1      41.247 -16.207 -32.628  0.00  0.00    -0.503 OA
ATOM     20  H   UNL A   1      40.791 -15.679 -33.253  0.00  0.00    +0.000 HD
ENDBRANCH  16  19
ENDBRANCH  10  13
ENDBRANCH   6  10
ENDBRANCH   2   6
ENDBRANCH   1   4
BRANCH   1  21
ATOM     21  C   UNL A   1      41.017 -20.116 -37.381  0.00  0.00    -0.036 C 
BRANCH  21  22
ATOM     22  C   UNL A   1      41.080 -19.513 -38.786  0.00  0.00    -0.036 C 
BRANCH  22  23
ATOM     23  C   UNL A   1      42.028 -20.282 -39.710  0.00  0.00    +0.009 C 
BRANCH  23  24
ATOM     24  N   UNL A   1      43.205 -19.459 -40.017  0.00  0.00    -0.343 N 
ATOM     25  H   UNL A   1      43.164 -18.579 -40.457  0.00  0.00    +0.000 HD
BRANCH  24  26
ATOM     26  C   UNL A   1      44.415 -20.090 -39.602  0.00  0.00    +0.041 A 
ATOM     27  C   UNL A   1      44.917 -19.896 -38.298  0.00  0.00    -0.005 A 
ATOM     28  C   UNL A   1      46.074 -20.596 -37.942  0.00  0.00    +0.047 A 
ATOM     29  N   UNL A   1      46.694 -21.477 -38.761  0.00  0.00    -0.251 NA
ATOM     30  C   UNL A   1      46.209 -21.668 -39.996  0.00  0.00    +0.073 A 
ATOM     31  C   UNL A   1      46.867 -22.565 -40.829  0.00  0.00    -0.036 A 
ATOM     32  C   UNL A   1      46.439 -22.813 -42.136  0.00  0.00    -0.060 A 
ATOM     33  C   UNL A   1      45.329 -22.145 -42.631  0.00  0.00    -0.061 A 
ATOM     34  C   UNL A   1      44.654 -21.242 -41.811  0.00  0.00    -0.051 A 
ATOM     35  C   UNL A   1      45.071 -20.998 -40.479  0.00  0.00    +0.021 A 
ATOM     36  C   UNL A   1      46.689 -20.468 -36.572  0.00  0.00    -0.010 C 
ATOM     37  C   UNL A   1      46.273 -19.199 -35.839  0.00  0.00    -0.047 C 
ATOM     38  C   UNL A   1      44.760 -19.051 -35.894  0.00  0.00    -0.049 C 
ATOM     39  C   UNL A   1      44.288 -18.911 -37.340  0.00  0.00    -0.024 C 
ENDBRANCH  24  26
ENDBRANCH  23  24
ENDBRANCH  22  23
ENDBRANCH  21  22
ENDBRANCH   1  21
TORSDOF 12
ENDMDL
MODEL 11
REMARK VINA RESULT:    -6.194     16.171     20.067
REMARK INTER + INTRA:         -13.995
REMARK INTER:                 -11.822
REMARK INTRA:                  -2.172
REMARK UNBOUND:                -3.637
REMARK  Name = cpd340.pdb
REMARK  14 active torsions:
REMARK  status: ('A' for Active; 'I' for Inactive)
REMARK    1  A    between atoms: C_1  and  O_2
REMARK    2  A    between atoms: O_2  and  C_3
REMARK    3  A    between atoms: C_5  and  C_6
REMARK    4  A    between atoms: C_6  and  C_7
REMARK    5  A    between atoms: C_7  and  C_8
REMARK    6  A    between atoms: C_7  and  C_11
REMARK    7  A    between atoms: C_8  and  C_9
REMARK    8  A    between atoms: N_13  and  C_14
REMARK    9  A    between atoms: C_14  and  C_15
REMARK   10  A    between atoms: C_15  and  C_16
REMARK   11  A    between atoms: C_16  and  C_17
REMARK   12  A    between atoms: C_17  and  N_18
REMARK   13  A    between atoms: N_18  and  C_19
REMARK   14  A    between atoms: C_35  and  O_36
REMARK                            x       y       z     vdW  Elec       q    Type
REMARK                         _______ _______ _______ _____ _____    ______ ____
ROOT
ATOM      1  C   UNL A   1      44.923 -17.560 -35.135  0.00  0.00    +0.012 C 
ENDROOT
BRANCH   1   4
ATOM      2  C   UNL A   1      43.195 -18.321 -33.543  0.00  0.00    +0.224 C 
ATOM      3  O   UNL A   1      43.953 -18.274 -32.577  0.00  0.00    -0.275 OA
ATOM      4  N   UNL A   1      43.598 -18.063 -34.835  0.00  0.00    -0.315 N 
ATOM      5  H   UNL A   1      42.968 -18.224 -35.574  0.00  0.00    +0.000 HD
BRANCH   2   6
ATOM      6  C   UNL A   1      41.742 -18.719 -33.383  0.00  0.00    +0.097 C 
BRANCH   6   7
ATOM      7  C   UNL A   1      40.862 -17.501 -33.182  0.00  0.00    +0.142 C 
ATOM      8  C   UNL A   1      39.725 -17.629 -32.205  0.00  0.00    -0.005 C 
ATOM      9  O   UNL A   1      41.089 -16.439 -33.769  0.00  0.00    -0.297 OA
ENDBRANCH   6   7
BRANCH   6  10
ATOM     10  C   UNL A   1      41.281 -19.535 -34.596  0.00  0.00    -0.010 C 
BRANCH  10  13
ATOM     11  C   UNL A   1      40.559 -22.932 -33.000  0.00  0.00    +0.162 A 
ATOM     12  C   UNL A   1      41.220 -21.768 -33.406  0.00  0.00    -0.013 A 
ATOM     13  C   UNL A   1      40.565 -20.804 -34.192  0.00  0.00    -0.043 A 
ATOM     14  C   UNL A   1      39.232 -21.014 -34.567  0.00  0.00    -0.055 A 
ATOM     15  C   UNL A   1      38.561 -22.169 -34.166  0.00  0.00    -0.016 A 
ATOM     16  C   UNL A   1      39.225 -23.117 -33.387  0.00  0.00    +0.158 A 
BRANCH  11  18
ATOM     17  C   UNL A   1      41.504 -23.589 -30.911  0.00  0.00    +0.079 C 
ATOM     18  O   UNL A   1      41.110 -23.924 -32.234  0.00  0.00    -0.491 OA
ENDBRANCH  11  18
BRANCH  16  19
ATOM     19  O   UNL A   1      38.565 -24.250 -32.992  0.00  0.00    -0.503 OA
ATOM     20  H   UNL A   1      37.716 -24.185 -32.600  0.00  0.00    +0.000 HD
ENDBRANCH  16  19
ENDBRANCH  10  13
ENDBRANCH   6  10
ENDBRANCH   2   6
ENDBRANCH   1   4
BRANCH   1  21
ATOM     21  C   UNL A   1      45.933 -18.699 -35.228  0.00  0.00    -0.036 C 
BRANCH  21  22
ATOM     22  C   UNL A   1      46.915 -18.483 -36.382  0.00  0.00    -0.036 C 
BRANCH  22  23
ATOM     23  C   UNL A   1      46.381 -19.019 -37.713  0.00  0.00    +0.009 C 
BRANCH  23  24
ATOM     24  N   UNL A   1      46.217 -20.476 -37.637  0.00  0.00    -0.343 N 
ATOM     25  H   UNL A   1      46.545 -21.031 -36.892  0.00  0.00    +0.000 HD
BRANCH  24  26
ATOM     26  C   UNL A   1      45.526 -20.992 -38.774  0.00  0.00    +0.041 A 
ATOM     27  C   UNL A   1      44.123 -20.898 -38.867  0.00  0.00    -0.005 A 
ATOM     28  C   UNL A   1      43.521 -21.368 -40.038  0.00  0.00    +0.047 A 
ATOM     29  N   UNL A   1      44.219 -21.853 -41.091  0.00  0.00    -0.251 NA
ATOM     30  C   UNL A   1      45.554 -21.932 -41.006  0.00  0.00    +0.073 A 
ATOM     31  C   UNL A   1      46.254 -22.447 -42.090  0.00  0.00    -0.036 A 
ATOM     32  C   UNL A   1      47.645 -22.578 -42.080  0.00  0.00    -0.060 A 
ATOM     33  C   UNL A   1      48.360 -22.193 -40.956  0.00  0.00    -0.061 A 
ATOM     34  C   UNL A   1      47.678 -21.673 -39.857  0.00  0.00    -0.051 A 
ATOM     35  C   UNL A   1      46.269 -21.520 -39.867  0.00  0.00    +0.021 A 
ATOM     36  C   UNL A   1      42.029 -21.307 -40.244  0.00  0.00    -0.010 C 
ATOM     37  C   UNL A   1      41.244 -21.183 -38.944  0.00  0.00    -0.047 C 
ATOM     38  C   UNL A   1      41.834 -20.067 -38.096  0.00  0.00    -0.049 C 
ATOM     39  C   UNL A   1      43.281 -20.387 -37.721  0.00  0.00    -0.024 C 
ENDBRANCH  24  26
ENDBRANCH  23  24
ENDBRANCH  22  23
ENDBRANCH  21  22
ENDBRANCH   1  21
TORSDOF 12
ENDMDL
MODEL 12
REMARK VINA RESULT:    -6.130     17.562     21.715
REMARK INTER + INTRA:         -13.888
REMARK INTER:                 -10.877
REMARK INTRA:                  -3.011
REMARK UNBOUND:                -3.637
REMARK  Name = cpd340.pdb
REMARK  14 active torsions:
REMARK  status: ('A' for Active; 'I' for Inactive)
REMARK    1  A    between atoms: C_1  and  O_2
REMARK    2  A    between atoms: O_2  and  C_3
REMARK    3  A    between atoms: C_5  and  C_6
REMARK    4  A    between atoms: C_6  and  C_7
REMARK    5  A    between atoms: C_7  and  C_8
REMARK    6  A    between atoms: C_7  and  C_11
REMARK    7  A    between atoms: C_8  and  C_9
REMARK    8  A    between atoms: N_13  and  C_14
REMARK    9  A    between atoms: C_14  and  C_15
REMARK   10  A    between atoms: C_15  and  C_16
REMARK   11  A    between atoms: C_16  and  C_17
REMARK   12  A    between atoms: C_17  and  N_18
REMARK   13  A    between atoms: N_18  and  C_19
REMARK   14  A    between atoms: C_35  and  O_36
REMARK                            x       y       z     vdW  Elec       q    Type
REMARK                         _______ _______ _______ _____ _____    ______ ____
ROOT
ATOM      1  C   UNL A   1      45.923 -17.806 -36.622  0.00  0.00    +0.012 C 
ENDROOT
BRANCH   1   4
ATOM      2  C   UNL A   1      44.265 -17.570 -38.437  0.00  0.00    +0.224 C 
ATOM      3  O   UNL A   1      43.310 -17.527 -37.666  0.00  0.00    -0.275 OA
ATOM      4  N   UNL A   1      45.563 -17.778 -38.025  0.00  0.00    -0.315 N 
ATOM      5  H   UNL A   1      46.266 -17.910 -38.703  0.00  0.00    +0.000 HD
BRANCH   2   6
ATOM      6  C   UNL A   1      44.073 -17.440 -39.935  0.00  0.00    +0.097 C 
BRANCH   6   7
ATOM      7  C   UNL A   1      43.517 -16.077 -40.296  0.00  0.00    +0.142 C 
ATOM      8  C   UNL A   1      44.430 -14.894 -40.118  0.00  0.00    -0.005 C 
ATOM      9  O   UNL A   1      42.376 -15.946 -40.748  0.00  0.00    -0.297 OA
ENDBRANCH   6   7
BRANCH   6  10
ATOM     10  C   UNL A   1      45.395 -17.705 -40.663  0.00  0.00    -0.010 C 
BRANCH  10  13
ATOM     11  C   UNL A   1      46.315 -21.352 -41.338  0.00  0.00    +0.162 A 
ATOM     12  C   UNL A   1      46.292 -20.069 -40.782  0.00  0.00    -0.013 A 
ATOM     13  C   UNL A   1      45.435 -19.078 -41.294  0.00  0.00    -0.043 A 
ATOM     14  C   UNL A   1      44.594 -19.387 -42.370  0.00  0.00    -0.055 A 
ATOM     15  C   UNL A   1      44.606 -20.663 -42.930  0.00  0.00    -0.016 A 
ATOM     16  C   UNL A   1      45.463 -21.636 -42.413  0.00  0.00    +0.158 A 
BRANCH  11  18
ATOM     17  C   UNL A   1      48.271 -22.046 -40.162  0.00  0.00    +0.079 C 
ATOM     18  O   UNL A   1      47.111 -22.381 -40.909  0.00  0.00    -0.491 OA
ENDBRANCH  11  18
BRANCH  16  19
ATOM     19  O   UNL A   1      45.473 -22.890 -42.963  0.00  0.00    -0.503 OA
ATOM     20  H   UNL A   1      45.754 -23.012 -43.848  0.00  0.00    +0.000 HD
ENDBRANCH  16  19
ENDBRANCH  10  13
ENDBRANCH   6  10
ENDBRANCH   2   6
ENDBRANCH   1   4
BRANCH   1  21
ATOM     21  C   UNL A   1      45.966 -19.238 -36.096  0.00  0.00    -0.036 C 
BRANCH  21  22
ATOM     22  C   UNL A   1      45.221 -19.368 -34.766  0.00  0.00    -0.036 C 
BRANCH  22  23
ATOM     23  C   UNL A   1      43.706 -19.483 -34.954  0.00  0.00    +0.009 C 
BRANCH  23  24
ATOM     24  N   UNL A   1      43.327 -20.891 -35.129  0.00  0.00    -0.343 N 
ATOM     25  H   UNL A   1      43.879 -21.652 -34.836  0.00  0.00    +0.000 HD
BRANCH  24  26
ATOM     26  C   UNL A   1      42.062 -21.023 -35.776  0.00  0.00    +0.041 A 
ATOM     27  C   UNL A   1      40.869 -21.042 -35.026  0.00  0.00    -0.005 A 
ATOM     28  C   UNL A   1      39.664 -21.110 -35.732  0.00  0.00    +0.047 A 
ATOM     29  N   UNL A   1      39.592 -21.105 -37.084  0.00  0.00    -0.251 NA
ATOM     30  C   UNL A   1      40.727 -21.074 -37.796  0.00  0.00    +0.073 A 
ATOM     31  C   UNL A   1      40.635 -21.085 -39.182  0.00  0.00    -0.036 A 
ATOM     32  C   UNL A   1      41.767 -21.071 -40.001  0.00  0.00    -0.060 A 
ATOM     33  C   UNL A   1      43.028 -21.053 -39.423  0.00  0.00    -0.061 A 
ATOM     34  C   UNL A   1      43.143 -21.041 -38.034  0.00  0.00    -0.051 A 
ATOM     35  C   UNL A   1      41.999 -21.037 -37.198  0.00  0.00    +0.021 A 
ATOM     36  C   UNL A   1      38.331 -21.129 -35.029  0.00  0.00    -0.010 C 
ATOM     37  C   UNL A   1      38.422 -21.567 -33.573  0.00  0.00    -0.047 C 
ATOM     38  C   UNL A   1      39.522 -20.785 -32.872  0.00  0.00    -0.049 C 
ATOM     39  C   UNL A   1      40.877 -21.073 -33.516  0.00  0.00    -0.024 C 
ENDBRANCH  24  26
ENDBRANCH  23  24
ENDBRANCH  22  23
ENDBRANCH  21  22
ENDBRANCH   1  21
TORSDOF 12
ENDMDL
MODEL 13
REMARK VINA RESULT:    -6.122     16.791     21.131
REMARK INTER + INTRA:         -13.875
REMARK INTER:                 -11.509
REMARK INTRA:                  -2.366
REMARK UNBOUND:                -3.637
REMARK  Name = cpd340.pdb
REMARK  14 active torsions:
REMARK  status: ('A' for Active; 'I' for Inactive)
REMARK    1  A    between atoms: C_1  and  O_2
REMARK    2  A    between atoms: O_2  and  C_3
REMARK    3  A    between atoms: C_5  and  C_6
REMARK    4  A    between atoms: C_6  and  C_7
REMARK    5  A    between atoms: C_7  and  C_8
REMARK    6  A    between atoms: C_7  and  C_11
REMARK    7  A    between atoms: C_8  and  C_9
REMARK    8  A    between atoms: N_13  and  C_14
REMARK    9  A    between atoms: C_14  and  C_15
REMARK   10  A    between atoms: C_15  and  C_16
REMARK   11  A    between atoms: C_16  and  C_17
REMARK   12  A    between atoms: C_17  and  N_18
REMARK   13  A    between atoms: N_18  and  C_19
REMARK   14  A    between atoms: C_35  and  O_36
REMARK                            x       y       z     vdW  Elec       q    Type
REMARK                         _______ _______ _______ _____ _____    ______ ____
ROOT
ATOM      1  C   UNL A   1      44.313 -17.351 -35.564  0.00  0.00    +0.012 C 
ENDROOT
BRANCH   1   4
ATOM      2  C   UNL A   1      45.637 -18.834 -37.029  0.00  0.00    +0.224 C 
ATOM      3  O   UNL A   1      45.729 -19.719 -36.183  0.00  0.00    -0.275 OA
ATOM      4  N   UNL A   1      45.031 -17.619 -36.793  0.00  0.00    -0.315 N 
ATOM      5  H   UNL A   1      45.088 -16.914 -37.478  0.00  0.00    +0.000 HD
BRANCH   2   6
ATOM      6  C   UNL A   1      46.237 -19.001 -38.411  0.00  0.00    +0.097 C 
BRANCH   6   7
ATOM      7  C   UNL A   1      46.895 -17.718 -38.878  0.00  0.00    +0.142 C 
ATOM      8  C   UNL A   1      46.725 -17.347 -40.327  0.00  0.00    -0.005 C 
ATOM      9  O   UNL A   1      47.515 -16.992 -38.098  0.00  0.00    -0.297 OA
ENDBRANCH   6   7
BRANCH   6  10
ATOM     10  C   UNL A   1      47.235 -20.164 -38.416  0.00  0.00    -0.010 C 
BRANCH  10  13
ATOM     11  C   UNL A   1      45.699 -21.774 -41.523  0.00  0.00    +0.162 A 
ATOM     12  C   UNL A   1      45.909 -20.921 -40.435  0.00  0.00    -0.013 A 
ATOM     13  C   UNL A   1      47.000 -21.114 -39.569  0.00  0.00    -0.043 A 
ATOM     14  C   UNL A   1      47.887 -22.171 -39.807  0.00  0.00    -0.055 A 
ATOM     15  C   UNL A   1      47.690 -23.026 -40.890  0.00  0.00    -0.016 A 
ATOM     16  C   UNL A   1      46.601 -22.824 -41.740  0.00  0.00    +0.158 A 
BRANCH  11  18
ATOM     17  C   UNL A   1      44.280 -20.360 -42.817  0.00  0.00    +0.079 C 
ATOM     18  O   UNL A   1      44.669 -21.666 -42.420  0.00  0.00    -0.491 OA
ENDBRANCH  11  18
BRANCH  16  19
ATOM     19  O   UNL A   1      46.409 -23.663 -42.805  0.00  0.00    -0.503 OA
ATOM     20  H   UNL A   1      47.147 -24.039 -43.244  0.00  0.00    +0.000 HD
ENDBRANCH  16  19
ENDBRANCH  10  13
ENDBRANCH   6  10
ENDBRANCH   2   6
ENDBRANCH   1   4
BRANCH   1  21
ATOM     21  C   UNL A   1      42.816 -17.207 -35.824  0.00  0.00    -0.036 C 
BRANCH  21  22
ATOM     22  C   UNL A   1      42.050 -18.460 -35.392  0.00  0.00    -0.036 C 
BRANCH  22  23
ATOM     23  C   UNL A   1      42.895 -19.390 -34.518  0.00  0.00    +0.009 C 
BRANCH  23  24
ATOM     24  N   UNL A   1      43.098 -20.674 -35.201  0.00  0.00    -0.343 N 
ATOM     25  H   UNL A   1      43.968 -21.128 -35.275  0.00  0.00    +0.000 HD
BRANCH  24  26
ATOM     26  C   UNL A   1      41.881 -21.183 -35.744  0.00  0.00    +0.041 A 
ATOM     27  C   UNL A   1      40.817 -21.558 -34.898  0.00  0.00    -0.005 A 
ATOM     28  C   UNL A   1      39.632 -21.989 -35.503  0.00  0.00    +0.047 A 
ATOM     29  N   UNL A   1      39.447 -22.012 -36.844  0.00  0.00    -0.251 NA
ATOM     30  C   UNL A   1      40.455 -21.644 -37.646  0.00  0.00    +0.073 A 
ATOM     31  C   UNL A   1      40.252 -21.688 -39.020  0.00  0.00    -0.036 A 
ATOM     32  C   UNL A   1      41.253 -21.336 -39.929  0.00  0.00    -0.060 A 
ATOM     33  C   UNL A   1      42.495 -20.937 -39.458  0.00  0.00    -0.061 A 
ATOM     34  C   UNL A   1      42.719 -20.885 -38.083  0.00  0.00    -0.051 A 
ATOM     35  C   UNL A   1      41.703 -21.222 -37.155  0.00  0.00    +0.021 A 
ATOM     36  C   UNL A   1      38.432 -22.405 -34.692  0.00  0.00    -0.010 C 
ATOM     37  C   UNL A   1      38.775 -22.790 -33.259  0.00  0.00    -0.047 C 
ATOM     38  C   UNL A   1      39.644 -21.710 -32.634  0.00  0.00    -0.049 C 
ATOM     39  C   UNL A   1      40.964 -21.578 -33.394  0.00  0.00    -0.024 C 
ENDBRANCH  24  26
ENDBRANCH  23  24
ENDBRANCH  22  23
ENDBRANCH  21  22
ENDBRANCH   1  21
TORSDOF 12
ENDMDL
MODEL 14
REMARK VINA RESULT:    -6.096      3.446      7.730
REMARK INTER + INTRA:         -13.832
REMARK INTER:                 -11.769
REMARK INTRA:                  -2.063
REMARK UNBOUND:                -3.637
REMARK  Name = cpd340.pdb
REMARK  14 active torsions:
REMARK  status: ('A' for Active; 'I' for Inactive)
REMARK    1  A    between atoms: C_1  and  O_2
REMARK    2  A    between atoms: O_2  and  C_3
REMARK    3  A    between atoms: C_5  and  C_6
REMARK    4  A    between atoms: C_6  and  C_7
REMARK    5  A    between atoms: C_7  and  C_8
REMARK    6  A    between atoms: C_7  and  C_11
REMARK    7  A    between atoms: C_8  and  C_9
REMARK    8  A    between atoms: N_13  and  C_14
REMARK    9  A    between atoms: C_14  and  C_15
REMARK   10  A    between atoms: C_15  and  C_16
REMARK   11  A    between atoms: C_16  and  C_17
REMARK   12  A    between atoms: C_17  and  N_18
REMARK   13  A    between atoms: N_18  and  C_19
REMARK   14  A    between atoms: C_35  and  O_36
REMARK                            x       y       z     vdW  Elec       q    Type
REMARK                         _______ _______ _______ _____ _____    ______ ____
ROOT
ATOM      1  C   UNL A   1      33.520 -36.642 -27.496  0.00  0.00    +0.012 C 
ENDROOT
BRANCH   1   4
ATOM      2  C   UNL A   1      35.604 -37.896 -27.925  0.00  0.00    +0.224 C 
ATOM      3  O   UNL A   1      35.868 -38.020 -26.732  0.00  0.00    -0.275 OA
ATOM      4  N   UNL A   1      34.524 -37.179 -28.392  0.00  0.00    -0.315 N 
ATOM      5  H   UNL A   1      34.432 -37.027 -29.361  0.00  0.00    +0.000 HD
BRANCH   2   6
ATOM      6  C   UNL A   1      36.494 -38.498 -28.995  0.00  0.00    +0.097 C 
BRANCH   6   7
ATOM      7  C   UNL A   1      36.099 -39.932 -29.287  0.00  0.00    +0.142 C 
ATOM      8  C   UNL A   1      37.037 -41.012 -28.817  0.00  0.00    -0.005 C 
ATOM      9  O   UNL A   1      35.039 -40.205 -29.856  0.00  0.00    -0.297 OA
ENDBRANCH   6   7
BRANCH   6  10
ATOM     10  C   UNL A   1      36.444 -37.644 -30.266  0.00  0.00    -0.010 C 
BRANCH  10  13
ATOM     11  C   UNL A   1      40.190 -36.885 -30.255  0.00  0.00    +0.162 A 
ATOM     12  C   UNL A   1      38.951 -37.464 -29.963  0.00  0.00    -0.013 A 
ATOM     13  C   UNL A   1      37.773 -36.988 -30.566  0.00  0.00    -0.043 A 
ATOM     14  C   UNL A   1      37.848 -35.924 -31.474  0.00  0.00    -0.055 A 
ATOM     15  C   UNL A   1      39.078 -35.342 -31.776  0.00  0.00    -0.016 A 
ATOM     16  C   UNL A   1      40.238 -35.823 -31.168  0.00  0.00    +0.158 A 
BRANCH  11  18
ATOM     17  C   UNL A   1      42.103 -38.302 -30.399  0.00  0.00    +0.079 C 
ATOM     18  O   UNL A   1      41.388 -37.279 -29.722  0.00  0.00    -0.491 OA
ENDBRANCH  11  18
BRANCH  16  19
ATOM     19  O   UNL A   1      41.446 -35.252 -31.467  0.00  0.00    -0.503 OA
ATOM     20  H   UNL A   1      41.773 -34.546 -30.944  0.00  0.00    +0.000 HD
ENDBRANCH  16  19
ENDBRANCH  10  13
ENDBRANCH   6  10
ENDBRANCH   2   6
ENDBRANCH   1   4
BRANCH   1  21
ATOM     21  C   UNL A   1      32.328 -37.588 -27.379  0.00  0.00    -0.036 C 
BRANCH  21  22
ATOM     22  C   UNL A   1      31.058 -36.962 -27.961  0.00  0.00    -0.036 C 
BRANCH  22  23
ATOM     23  C   UNL A   1      31.117 -35.432 -27.980  0.00  0.00    +0.009 C 
BRANCH  23  24
ATOM     24  N   UNL A   1      30.765 -34.934 -29.315  0.00  0.00    -0.343 N 
ATOM     25  H   UNL A   1      30.256 -35.451 -29.981  0.00  0.00    +0.000 HD
BRANCH  24  26
ATOM     26  C   UNL A   1      31.249 -33.609 -29.531  0.00  0.00    +0.041 A 
ATOM     27  C   UNL A   1      30.483 -32.491 -29.143  0.00  0.00    -0.005 A 
ATOM     28  C   UNL A   1      31.049 -31.225 -29.328  0.00  0.00    +0.047 A 
ATOM     29  N   UNL A   1      32.300 -31.033 -29.807  0.00  0.00    -0.251 NA
ATOM     30  C   UNL A   1      33.031 -32.097 -30.164  0.00  0.00    +0.073 A 
ATOM     31  C   UNL A   1      34.308 -31.879 -30.667  0.00  0.00    -0.036 A 
ATOM     32  C   UNL A   1      35.132 -32.931 -31.078  0.00  0.00    -0.060 A 
ATOM     33  C   UNL A   1      34.670 -34.236 -30.992  0.00  0.00    -0.061 A 
ATOM     34  C   UNL A   1      33.393 -34.476 -30.489  0.00  0.00    -0.051 A 
ATOM     35  C   UNL A   1      32.558 -33.417 -30.054  0.00  0.00    +0.021 A 
ATOM     36  C   UNL A   1      30.319 -29.965 -28.941  0.00  0.00    -0.010 C 
ATOM     37  C   UNL A   1      28.812 -30.150 -28.828  0.00  0.00    -0.047 C 
ATOM     38  C   UNL A   1      28.509 -31.370 -27.972  0.00  0.00    -0.049 C 
ATOM     39  C   UNL A   1      29.071 -32.633 -28.624  0.00  0.00    -0.024 C 
ENDBRANCH  24  26
ENDBRANCH  23  24
ENDBRANCH  22  23
ENDBRANCH  21  22
ENDBRANCH   1  21
TORSDOF 12
ENDMDL
MODEL 15
REMARK VINA RESULT:    -6.055     17.829     21.725
REMARK INTER + INTRA:         -13.763
REMARK INTER:                 -10.567
REMARK INTRA:                  -3.196
REMARK UNBOUND:                -3.637
REMARK  Name = cpd340.pdb
REMARK  14 active torsions:
REMARK  status: ('A' for Active; 'I' for Inactive)
REMARK    1  A    between atoms: C_1  and  O_2
REMARK    2  A    between atoms: O_2  and  C_3
REMARK    3  A    between atoms: C_5  and  C_6
REMARK    4  A    between atoms: C_6  and  C_7
REMARK    5  A    between atoms: C_7  and  C_8
REMARK    6  A    between atoms: C_7  and  C_11
REMARK    7  A    between atoms: C_8  and  C_9
REMARK    8  A    between atoms: N_13  and  C_14
REMARK    9  A    between atoms: C_14  and  C_15
REMARK   10  A    between atoms: C_15  and  C_16
REMARK   11  A    between atoms: C_16  and  C_17
REMARK   12  A    between atoms: C_17  and  N_18
REMARK   13  A    between atoms: N_18  and  C_19
REMARK   14  A    between atoms: C_35  and  O_36
REMARK                            x       y       z     vdW  Elec       q    Type
REMARK                         _______ _______ _______ _____ _____    ______ ____
ROOT
ATOM      1  C   UNL A   1      40.353 -20.690 -34.907  0.00  0.00    +0.012 C 
ENDROOT
BRANCH   1   4
ATOM      2  C   UNL A   1      41.563 -21.550 -36.881  0.00  0.00    +0.224 C 
ATOM      3  O   UNL A   1      41.224 -22.713 -36.681  0.00  0.00    -0.275 OA
ATOM      4  N   UNL A   1      41.249 -20.511 -36.031  0.00  0.00    -0.315 N 
ATOM      5  H   UNL A   1      41.643 -19.624 -36.193  0.00  0.00    +0.000 HD
BRANCH   2   6
ATOM      6  C   UNL A   1      42.409 -21.173 -38.080  0.00  0.00    +0.097 C 
BRANCH   6   7
ATOM      7  C   UNL A   1      41.546 -20.937 -39.304  0.00  0.00    +0.142 C 
ATOM      8  C   UNL A   1      41.950 -21.634 -40.575  0.00  0.00    -0.005 C 
ATOM      9  O   UNL A   1      40.536 -20.230 -39.252  0.00  0.00    -0.297 OA
ENDBRANCH   6   7
BRANCH   6  10
ATOM     10  C   UNL A   1      43.259 -19.938 -37.761  0.00  0.00    -0.010 C 
BRANCH  10  13
ATOM     11  C   UNL A   1      46.402 -20.917 -39.702  0.00  0.00    +0.162 A 
ATOM     12  C   UNL A   1      45.282 -20.982 -38.867  0.00  0.00    -0.013 A 
ATOM     13  C   UNL A   1      44.486 -19.846 -38.639  0.00  0.00    -0.043 A 
ATOM     14  C   UNL A   1      44.820 -18.637 -39.264  0.00  0.00    -0.055 A 
ATOM     15  C   UNL A   1      45.932 -18.561 -40.101  0.00  0.00    -0.016 A 
ATOM     16  C   UNL A   1      46.714 -19.697 -40.316  0.00  0.00    +0.158 A 
BRANCH  11  18
ATOM     17  C   UNL A   1      46.794 -22.913 -40.949  0.00  0.00    +0.079 C 
ATOM     18  O   UNL A   1      47.235 -21.968 -39.985  0.00  0.00    -0.491 OA
ENDBRANCH  11  18
BRANCH  16  19
ATOM     19  O   UNL A   1      47.805 -19.622 -41.140  0.00  0.00    -0.503 OA
ATOM     20  H   UNL A   1      48.344 -20.376 -41.273  0.00  0.00    +0.000 HD
ENDBRANCH  16  19
ENDBRANCH  10  13
ENDBRANCH   6  10
ENDBRANCH   2   6
ENDBRANCH   1   4
BRANCH   1  21
ATOM     21  C   UNL A   1      41.117 -21.128 -33.662  0.00  0.00    -0.036 C 
BRANCH  21  22
ATOM     22  C   UNL A   1      42.028 -20.013 -33.143  0.00  0.00    -0.036 C 
BRANCH  22  23
ATOM     23  C   UNL A   1      43.458 -20.131 -33.676  0.00  0.00    +0.009 C 
BRANCH  23  24
ATOM     24  N   UNL A   1      44.318 -19.130 -33.032  0.00  0.00    -0.343 N 
ATOM     25  H   UNL A   1      44.592 -19.165 -32.087  0.00  0.00    +0.000 HD
BRANCH  24  26
ATOM     26  C   UNL A   1      44.708 -18.102 -33.941  0.00  0.00    +0.041 A 
ATOM     27  C   UNL A   1      44.180 -16.800 -33.825  0.00  0.00    -0.005 A 
ATOM     28  C   UNL A   1      44.656 -15.829 -34.711  0.00  0.00    +0.047 A 
ATOM     29  N   UNL A   1      45.625 -16.067 -35.626  0.00  0.00    -0.251 NA
ATOM     30  C   UNL A   1      46.134 -17.302 -35.727  0.00  0.00    +0.073 A 
ATOM     31  C   UNL A   1      47.117 -17.532 -36.682  0.00  0.00    -0.036 A 
ATOM     32  C   UNL A   1      47.692 -18.793 -36.866  0.00  0.00    -0.060 A 
ATOM     33  C   UNL A   1      47.271 -19.857 -36.082  0.00  0.00    -0.061 A 
ATOM     34  C   UNL A   1      46.287 -19.648 -35.117  0.00  0.00    -0.051 A 
ATOM     35  C   UNL A   1      45.713 -18.369 -34.913  0.00  0.00    +0.021 A 
ATOM     36  C   UNL A   1      44.164 -14.405 -34.668  0.00  0.00    -0.010 C 
ATOM     37  C   UNL A   1      42.817 -14.252 -33.974  0.00  0.00    -0.047 C 
ATOM     38  C   UNL A   1      42.847 -14.975 -32.636  0.00  0.00    -0.049 C 
ATOM     39  C   UNL A   1      43.081 -16.471 -32.841  0.00  0.00    -0.024 C 
ENDBRANCH  24  26
ENDBRANCH  23  24
ENDBRANCH  22  23
ENDBRANCH  21  22
ENDBRANCH   1  21
TORSDOF 12
ENDMDL
MODEL 16
REMARK VINA RESULT:    -5.851     16.626     20.827
REMARK INTER + INTRA:         -13.422
REMARK INTER:                 -10.905
REMARK INTRA:                  -2.517
REMARK UNBOUND:                -3.637
REMARK  Name = cpd340.pdb
REMARK  14 active torsions:
REMARK  status: ('A' for Active; 'I' for Inactive)
REMARK    1  A    between atoms: C_1  and  O_2
REMARK    2  A    between atoms: O_2  and  C_3
REMARK    3  A    between atoms: C_5  and  C_6
REMARK    4  A    between atoms: C_6  and  C_7
REMARK    5  A    between atoms: C_7  and  C_8
REMARK    6  A    between atoms: C_7  and  C_11
REMARK    7  A    between atoms: C_8  and  C_9
REMARK    8  A    between atoms: N_13  and  C_14
REMARK    9  A    between atoms: C_14  and  C_15
REMARK   10  A    between atoms: C_15  and  C_16
REMARK   11  A    between atoms: C_16  and  C_17
REMARK   12  A    between atoms: C_17  and  N_18
REMARK   13  A    between atoms: N_18  and  C_19
REMARK   14  A    between atoms: C_35  and  O_36
REMARK                            x       y       z     vdW  Elec       q    Type
REMARK                         _______ _______ _______ _____ _____    ______ ____
ROOT
ATOM      1  C   UNL A   1      43.138 -18.220 -32.783  0.00  0.00    +0.012 C 
ENDROOT
BRANCH   1   4
ATOM      2  C   UNL A   1      45.022 -19.115 -34.105  0.00  0.00    +0.224 C 
ATOM      3  O   UNL A   1      44.987 -20.215 -33.558  0.00  0.00    -0.275 OA
ATOM      4  N   UNL A   1      44.212 -18.062 -33.743  0.00  0.00    -0.315 N 
ATOM      5  H   UNL A   1      44.366 -17.178 -34.148  0.00  0.00    +0.000 HD
BRANCH   2   6
ATOM      6  C   UNL A   1      46.014 -18.820 -35.213  0.00  0.00    +0.097 C 
BRANCH   6   7
ATOM      7  C   UNL A   1      47.251 -18.134 -34.668  0.00  0.00    +0.142 C 
ATOM      8  C   UNL A   1      48.425 -17.993 -35.599  0.00  0.00    -0.005 C 
ATOM      9  O   UNL A   1      47.283 -17.682 -33.520  0.00  0.00    -0.297 OA
ENDBRANCH   6   7
BRANCH   6  10
ATOM     10  C   UNL A   1      46.382 -20.112 -35.951  0.00  0.00    -0.010 C 
BRANCH  10  13
ATOM     11  C   UNL A   1      44.946 -18.914 -39.285  0.00  0.00    +0.162 A 
ATOM     12  C   UNL A   1      45.237 -19.006 -37.919  0.00  0.00    -0.013 A 
ATOM     13  C   UNL A   1      46.049 -20.042 -37.425  0.00  0.00    -0.043 A 
ATOM     14  C   UNL A   1      46.575 -20.987 -38.314  0.00  0.00    -0.055 A 
ATOM     15  C   UNL A   1      46.296 -20.903 -39.678  0.00  0.00    -0.016 A 
ATOM     16  C   UNL A   1      45.487 -19.871 -40.154  0.00  0.00    +0.158 A 
BRANCH  11  18
ATOM     17  C   UNL A   1      44.433 -16.595 -39.501  0.00  0.00    +0.079 C 
ATOM     18  O   UNL A   1      44.170 -17.943 -39.860  0.00  0.00    -0.491 OA
ENDBRANCH  11  18
BRANCH  16  19
ATOM     19  O   UNL A   1      45.214 -19.788 -41.494  0.00  0.00    -0.503 OA
ATOM     20  H   UNL A   1      44.401 -19.424 -41.785  0.00  0.00    +0.000 HD
ENDBRANCH  16  19
ENDBRANCH  10  13
ENDBRANCH   6  10
ENDBRANCH   2   6
ENDBRANCH   1   4
BRANCH   1  21
ATOM     21  C   UNL A   1      41.953 -18.953 -33.404  0.00  0.00    -0.036 C 
BRANCH  21  22
ATOM     22  C   UNL A   1      41.193 -18.058 -34.386  0.00  0.00    -0.036 C 
BRANCH  22  23
ATOM     23  C   UNL A   1      41.277 -18.569 -35.826  0.00  0.00    +0.009 C 
BRANCH  23  24
ATOM     24  N   UNL A   1      39.942 -18.957 -36.300  0.00  0.00    -0.343 N 
ATOM     25  H   UNL A   1      39.192 -18.329 -36.412  0.00  0.00    +0.000 HD
BRANCH  24  26
ATOM     26  C   UNL A   1      39.864 -20.354 -36.577  0.00  0.00    +0.041 A 
ATOM     27  C   UNL A   1      40.437 -20.888 -37.750  0.00  0.00    -0.005 A 
ATOM     28  C   UNL A   1      40.376 -22.275 -37.924  0.00  0.00    +0.047 A 
ATOM     29  N   UNL A   1      39.848 -23.118 -37.006  0.00  0.00    -0.251 NA
ATOM     30  C   UNL A   1      39.315 -22.610 -35.887  0.00  0.00    +0.073 A 
ATOM     31  C   UNL A   1      38.763 -23.489 -34.963  0.00  0.00    -0.036 A 
ATOM     32  C   UNL A   1      38.173 -23.044 -33.777  0.00  0.00    -0.060 A 
ATOM     33  C   UNL A   1      38.123 -21.685 -33.506  0.00  0.00    -0.061 A 
ATOM     34  C   UNL A   1      38.672 -20.786 -34.419  0.00  0.00    -0.051 A 
ATOM     35  C   UNL A   1      39.288 -21.230 -35.615  0.00  0.00    +0.021 A 
ATOM     36  C   UNL A   1      40.964 -22.949 -39.137  0.00  0.00    -0.010 C 
ATOM     37  C   UNL A   1      41.148 -22.009 -40.321  0.00  0.00    -0.047 C 
ATOM     38  C   UNL A   1      41.862 -20.745 -39.864  0.00  0.00    -0.049 C 
ATOM     39  C   UNL A   1      41.023 -20.003 -38.825  0.00  0.00    -0.024 C 
ENDBRANCH  24  26
ENDBRANCH  23  24
ENDBRANCH  22  23
ENDBRANCH  21  22
ENDBRANCH   1  21
TORSDOF 12
ENDMDL
MODEL 17
REMARK VINA RESULT:    -5.786     16.711     20.598
REMARK INTER + INTRA:         -13.312
REMARK INTER:                 -10.716
REMARK INTRA:                  -2.597
REMARK UNBOUND:                -3.637
REMARK  Name = cpd340.pdb
REMARK  14 active torsions:
REMARK  status: ('A' for Active; 'I' for Inactive)
REMARK    1  A    between atoms: C_1  and  O_2
REMARK    2  A    between atoms: O_2  and  C_3
REMARK    3  A    between atoms: C_5  and  C_6
REMARK    4  A    between atoms: C_6  and  C_7
REMARK    5  A    between atoms: C_7  and  C_8
REMARK    6  A    between atoms: C_7  and  C_11
REMARK    7  A    between atoms: C_8  and  C_9
REMARK    8  A    between atoms: N_13  and  C_14
REMARK    9  A    between atoms: C_14  and  C_15
REMARK   10  A    between atoms: C_15  and  C_16
REMARK   11  A    between atoms: C_16  and  C_17
REMARK   12  A    between atoms: C_17  and  N_18
REMARK   13  A    between atoms: N_18  and  C_19
REMARK   14  A    between atoms: C_35  and  O_36
REMARK                            x       y       z     vdW  Elec       q    Type
REMARK                         _______ _______ _______ _____ _____    ______ ____
ROOT
ATOM      1  C   UNL A   1      39.231 -21.366 -37.613  0.00  0.00    +0.012 C 
ENDROOT
BRANCH   1   4
ATOM      2  C   UNL A   1      40.082 -21.871 -35.350  0.00  0.00    +0.224 C 
ATOM      3  O   UNL A   1      40.355 -23.036 -35.627  0.00  0.00    -0.275 OA
ATOM      4  N   UNL A   1      39.466 -21.007 -36.230  0.00  0.00    -0.315 N 
ATOM      5  H   UNL A   1      39.177 -20.122 -35.909  0.00  0.00    +0.000 HD
BRANCH   2   6
ATOM      6  C   UNL A   1      40.370 -21.301 -33.976  0.00  0.00    +0.097 C 
BRANCH   6   7
ATOM      7  C   UNL A   1      40.071 -22.317 -32.892  0.00  0.00    +0.142 C 
ATOM      8  C   UNL A   1      41.223 -22.767 -32.034  0.00  0.00    -0.005 C 
ATOM      9  O   UNL A   1      38.925 -22.733 -32.698  0.00  0.00    -0.297 OA
ENDBRANCH   6   7
BRANCH   6  10
ATOM     10  C   UNL A   1      41.824 -20.823 -33.896  0.00  0.00    -0.010 C 
BRANCH  10  13
ATOM     11  C   UNL A   1      42.994 -17.383 -32.712  0.00  0.00    +0.162 A 
ATOM     12  C   UNL A   1      42.870 -18.770 -32.850  0.00  0.00    -0.013 A 
ATOM     13  C   UNL A   1      41.925 -19.324 -33.731  0.00  0.00    -0.043 A 
ATOM     14  C   UNL A   1      41.105 -18.473 -34.483  0.00  0.00    -0.055 A 
ATOM     15  C   UNL A   1      41.221 -17.090 -34.356  0.00  0.00    -0.016 A 
ATOM     16  C   UNL A   1      42.162 -16.554 -33.476  0.00  0.00    +0.158 A 
BRANCH  11  18
ATOM     17  C   UNL A   1      45.245 -17.145 -31.960  0.00  0.00    +0.079 C 
ATOM     18  O   UNL A   1      43.883 -16.751 -31.883  0.00  0.00    -0.491 OA
ENDBRANCH  11  18
BRANCH  16  19
ATOM     19  O   UNL A   1      42.278 -15.195 -33.354  0.00  0.00    -0.503 OA
ATOM     20  H   UNL A   1      41.711 -14.726 -32.773  0.00  0.00    +0.000 HD
ENDBRANCH  16  19
ENDBRANCH  10  13
ENDBRANCH   6  10
ENDBRANCH   2   6
ENDBRANCH   1   4
BRANCH   1  21
ATOM     21  C   UNL A   1      40.506 -21.225 -38.440  0.00  0.00    -0.036 C 
BRANCH  21  22
ATOM     22  C   UNL A   1      40.908 -19.757 -38.601  0.00  0.00    -0.036 C 
BRANCH  22  23
ATOM     23  C   UNL A   1      42.179 -19.411 -37.821  0.00  0.00    +0.009 C 
BRANCH  23  24
ATOM     24  N   UNL A   1      43.065 -20.580 -37.761  0.00  0.00    -0.343 N 
ATOM     25  H   UNL A   1      42.782 -21.472 -37.455  0.00  0.00    +0.000 HD
BRANCH  24  26
ATOM     26  C   UNL A   1      44.386 -20.267 -38.200  0.00  0.00    +0.041 A 
ATOM     27  C   UNL A   1      45.360 -19.814 -37.286  0.00  0.00    -0.005 A 
ATOM     28  C   UNL A   1      46.650 -19.587 -37.777  0.00  0.00    +0.047 A 
ATOM     29  N   UNL A   1      47.012 -19.830 -39.058  0.00  0.00    -0.251 NA
ATOM     30  C   UNL A   1      46.088 -20.272 -39.923  0.00  0.00    +0.073 A 
ATOM     31  C   UNL A   1      46.474 -20.501 -41.237  0.00  0.00    -0.036 A 
ATOM     32  C   UNL A   1      45.573 -20.947 -42.208  0.00  0.00    -0.060 A 
ATOM     33  C   UNL A   1      44.248 -21.164 -41.862  0.00  0.00    -0.061 A 
ATOM     34  C   UNL A   1      43.840 -20.941 -40.548  0.00  0.00    -0.051 A 
ATOM     35  C   UNL A   1      44.751 -20.506 -39.554  0.00  0.00    +0.021 A 
ATOM     36  C   UNL A   1      47.766 -19.110 -36.884  0.00  0.00    -0.010 C 
ATOM     37  C   UNL A   1      47.275 -18.440 -35.607  0.00  0.00    -0.047 C 
ATOM     38  C   UNL A   1      46.232 -19.321 -34.937  0.00  0.00    -0.049 C 
ATOM     39  C   UNL A   1      45.018 -19.501 -35.848  0.00  0.00    -0.024 C 
ENDBRANCH  24  26
ENDBRANCH  23  24
ENDBRANCH  22  23
ENDBRANCH  21  22
ENDBRANCH   1  21
TORSDOF 12
ENDMDL
MODEL 18
REMARK VINA RESULT:    -5.743     16.664     20.570
REMARK INTER + INTRA:         -13.242
REMARK INTER:                  -9.601
REMARK INTRA:                  -3.641
REMARK UNBOUND:                -3.637
REMARK  Name = cpd340.pdb
REMARK  14 active torsions:
REMARK  status: ('A' for Active; 'I' for Inactive)
REMARK    1  A    between atoms: C_1  and  O_2
REMARK    2  A    between atoms: O_2  and  C_3
REMARK    3  A    between atoms: C_5  and  C_6
REMARK    4  A    between atoms: C_6  and  C_7
REMARK    5  A    between atoms: C_7  and  C_8
REMARK    6  A    between atoms: C_7  and  C_11
REMARK    7  A    between atoms: C_8  and  C_9
REMARK    8  A    between atoms: N_13  and  C_14
REMARK    9  A    between atoms: C_14  and  C_15
REMARK   10  A    between atoms: C_15  and  C_16
REMARK   11  A    between atoms: C_16  and  C_17
REMARK   12  A    between atoms: C_17  and  N_18
REMARK   13  A    between atoms: N_18  and  C_19
REMARK   14  A    between atoms: C_35  and  O_36
REMARK                            x       y       z     vdW  Elec       q    Type
REMARK                         _______ _______ _______ _____ _____    ______ ____
ROOT
ATOM      1  C   UNL A   1      40.994 -17.796 -33.793  0.00  0.00    +0.012 C 
ENDROOT
BRANCH   1   4
ATOM      2  C   UNL A   1      43.295 -17.882 -34.686  0.00  0.00    +0.224 C 
ATOM      3  O   UNL A   1      43.665 -16.904 -34.042  0.00  0.00    -0.275 OA
ATOM      4  N   UNL A   1      41.996 -18.342 -34.685  0.00  0.00    -0.315 N 
ATOM      5  H   UNL A   1      41.743 -19.063 -35.306  0.00  0.00    +0.000 HD
BRANCH   2   6
ATOM      6  C   UNL A   1      44.251 -18.641 -35.584  0.00  0.00    +0.097 C 
BRANCH   6   7
ATOM      7  C   UNL A   1      45.371 -19.269 -34.778  0.00  0.00    +0.142 C 
ATOM      8  C   UNL A   1      46.781 -18.987 -35.225  0.00  0.00    -0.005 C 
ATOM      9  O   UNL A   1      45.139 -19.955 -33.780  0.00  0.00    -0.297 OA
ENDBRANCH   6   7
BRANCH   6  10
ATOM     10  C   UNL A   1      43.492 -19.701 -36.389  0.00  0.00    -0.010 C 
BRANCH  10  13
ATOM     11  C   UNL A   1      45.002 -20.719 -39.749  0.00  0.00    +0.162 A 
ATOM     12  C   UNL A   1      44.672 -20.706 -38.390  0.00  0.00    -0.013 A 
ATOM     13  C   UNL A   1      43.869 -19.684 -37.853  0.00  0.00    -0.043 A 
ATOM     14  C   UNL A   1      43.391 -18.672 -38.696  0.00  0.00    -0.055 A 
ATOM     15  C   UNL A   1      43.710 -18.676 -40.053  0.00  0.00    -0.016 A 
ATOM     16  C   UNL A   1      44.510 -19.696 -40.571  0.00  0.00    +0.158 A 
BRANCH  11  18
ATOM     17  C   UNL A   1      47.099 -21.847 -39.885  0.00  0.00    +0.079 C 
ATOM     18  O   UNL A   1      45.774 -21.670 -40.363  0.00  0.00    -0.491 OA
ENDBRANCH  11  18
BRANCH  16  19
ATOM     19  O   UNL A   1      44.822 -19.700 -41.904  0.00  0.00    -0.503 OA
ATOM     20  H   UNL A   1      44.717 -20.484 -42.407  0.00  0.00    +0.000 HD
ENDBRANCH  16  19
ENDBRANCH  10  13
ENDBRANCH   6  10
ENDBRANCH   2   6
ENDBRANCH   1   4
BRANCH   1  21
ATOM     21  C   UNL A   1      40.115 -16.779 -34.514  0.00  0.00    -0.036 C 
BRANCH  21  22
ATOM     22  C   UNL A   1      38.856 -17.434 -35.088  0.00  0.00    -0.036 C 
BRANCH  22  23
ATOM     23  C   UNL A   1      39.106 -18.084 -36.451  0.00  0.00    +0.009 C 
BRANCH  23  24
ATOM     24  N   UNL A   1      38.407 -19.373 -36.528  0.00  0.00    -0.343 N 
ATOM     25  H   UNL A   1      37.434 -19.467 -36.649  0.00  0.00    +0.000 HD
BRANCH  24  26
ATOM     26  C   UNL A   1      39.308 -20.472 -36.408  0.00  0.00    +0.041 A 
ATOM     27  C   UNL A   1      39.441 -21.163 -35.186  0.00  0.00    -0.005 A 
ATOM     28  C   UNL A   1      40.296 -22.270 -35.160  0.00  0.00    +0.047 A 
ATOM     29  N   UNL A   1      40.950 -22.731 -36.252  0.00  0.00    -0.251 NA
ATOM     30  C   UNL A   1      40.813 -22.080 -37.415  0.00  0.00    +0.073 A 
ATOM     31  C   UNL A   1      41.504 -22.559 -38.522  0.00  0.00    -0.036 A 
ATOM     32  C   UNL A   1      41.430 -21.933 -39.769  0.00  0.00    -0.060 A 
ATOM     33  C   UNL A   1      40.654 -20.793 -39.918  0.00  0.00    -0.061 A 
ATOM     34  C   UNL A   1      39.952 -20.297 -38.821  0.00  0.00    -0.051 A 
ATOM     35  C   UNL A   1      40.007 -20.937 -37.557  0.00  0.00    +0.021 A 
ATOM     36  C   UNL A   1      40.505 -23.083 -33.909  0.00  0.00    -0.010 C 
ATOM     37  C   UNL A   1      40.139 -22.334 -32.634  0.00  0.00    -0.047 C 
ATOM     38  C   UNL A   1      38.760 -21.709 -32.786  0.00  0.00    -0.049 C 
ATOM     39  C   UNL A   1      38.758 -20.690 -33.924  0.00  0.00    -0.024 C 
ENDBRANCH  24  26
ENDBRANCH  23  24
ENDBRANCH  22  23
ENDBRANCH  21  22
ENDBRANCH   1  21
TORSDOF 12
ENDMDL
MODEL 19
REMARK VINA RESULT:    -5.611      2.748      7.363
REMARK INTER + INTRA:         -13.020
REMARK INTER:                  -9.957
REMARK INTRA:                  -3.063
REMARK UNBOUND:                -3.637
REMARK  Name = cpd340.pdb
REMARK  14 active torsions:
REMARK  status: ('A' for Active; 'I' for Inactive)
REMARK    1  A    between atoms: C_1  and  O_2
REMARK    2  A    between atoms: O_2  and  C_3
REMARK    3  A    between atoms: C_5  and  C_6
REMARK    4  A    between atoms: C_6  and  C_7
REMARK    5  A    between atoms: C_7  and  C_8
REMARK    6  A    between atoms: C_7  and  C_11
REMARK    7  A    between atoms: C_8  and  C_9
REMARK    8  A    between atoms: N_13  and  C_14
REMARK    9  A    between atoms: C_14  and  C_15
REMARK   10  A    between atoms: C_15  and  C_16
REMARK   11  A    between atoms: C_16  and  C_17
REMARK   12  A    between atoms: C_17  and  N_18
REMARK   13  A    between atoms: N_18  and  C_19
REMARK   14  A    between atoms: C_35  and  O_36
REMARK                            x       y       z     vdW  Elec       q    Type
REMARK                         _______ _______ _______ _____ _____    ______ ____
ROOT
ATOM      1  C   UNL A   1      34.690 -41.197 -27.943  0.00  0.00    +0.012 C 
ENDROOT
BRANCH   1   4
ATOM      2  C   UNL A   1      33.777 -38.902 -27.944  0.00  0.00    +0.224 C 
ATOM      3  O   UNL A   1      32.761 -39.223 -28.555  0.00  0.00    -0.275 OA
ATOM      4  N   UNL A   1      34.803 -39.779 -27.667  0.00  0.00    -0.315 N 
ATOM      5  H   UNL A   1      35.636 -39.433 -27.271  0.00  0.00    +0.000 HD
BRANCH   2   6
ATOM      6  C   UNL A   1      34.000 -37.477 -27.480  0.00  0.00    +0.097 C 
BRANCH   6   7
ATOM      7  C   UNL A   1      33.704 -37.333 -26.000  0.00  0.00    +0.142 C 
ATOM      8  C   UNL A   1      32.847 -36.169 -25.580  0.00  0.00    -0.005 C 
ATOM      9  O   UNL A   1      34.119 -38.154 -25.178  0.00  0.00    -0.297 OA
ENDBRANCH   6   7
BRANCH   6  10
ATOM     10  C   UNL A   1      35.431 -37.034 -27.799  0.00  0.00    -0.010 C 
BRANCH  10  13
ATOM     11  C   UNL A   1      34.587 -33.901 -29.819  0.00  0.00    +0.162 A 
ATOM     12  C   UNL A   1      34.540 -34.913 -28.854  0.00  0.00    -0.013 A 
ATOM     13  C   UNL A   1      35.474 -35.964 -28.867  0.00  0.00    -0.043 A 
ATOM     14  C   UNL A   1      36.466 -35.990 -29.855  0.00  0.00    -0.055 A 
ATOM     15  C   UNL A   1      36.526 -34.984 -30.819  0.00  0.00    -0.016 A 
ATOM     16  C   UNL A   1      35.591 -33.949 -30.796  0.00  0.00    +0.158 A 
BRANCH  11  18
ATOM     17  C   UNL A   1      32.393 -33.101 -30.303  0.00  0.00    +0.079 C 
ATOM     18  O   UNL A   1      33.725 -32.839 -29.888  0.00  0.00    -0.491 OA
ENDBRANCH  11  18
BRANCH  16  19
ATOM     19  O   UNL A   1      35.651 -32.961 -31.742  0.00  0.00    -0.503 OA
ATOM     20  H   UNL A   1      35.234 -33.081 -32.572  0.00  0.00    +0.000 HD
ENDBRANCH  16  19
ENDBRANCH  10  13
ENDBRANCH   6  10
ENDBRANCH   2   6
ENDBRANCH   1   4
BRANCH   1  21
ATOM     21  C   UNL A   1      35.783 -41.657 -28.903  0.00  0.00    -0.036 C 
BRANCH  21  22
ATOM     22  C   UNL A   1      36.102 -40.582 -29.945  0.00  0.00    -0.036 C 
BRANCH  22  23
ATOM     23  C   UNL A   1      35.441 -40.865 -31.296  0.00  0.00    +0.009 C 
BRANCH  23  24
ATOM     24  N   UNL A   1      33.984 -40.734 -31.180  0.00  0.00    -0.343 N 
ATOM     25  H   UNL A   1      33.473 -40.958 -30.368  0.00  0.00    +0.000 HD
BRANCH  24  26
ATOM     26  C   UNL A   1      33.397 -40.242 -32.384  0.00  0.00    +0.041 A 
ATOM     27  C   UNL A   1      33.030 -41.127 -33.419  0.00  0.00    -0.005 A 
ATOM     28  C   UNL A   1      32.403 -40.580 -34.543  0.00  0.00    +0.047 A 
ATOM     29  N   UNL A   1      32.091 -39.267 -34.656  0.00  0.00    -0.251 NA
ATOM     30  C   UNL A   1      32.430 -38.430 -33.666  0.00  0.00    +0.073 A 
ATOM     31  C   UNL A   1      32.115 -37.084 -33.807  0.00  0.00    -0.036 A 
ATOM     32  C   UNL A   1      32.446 -36.140 -32.831  0.00  0.00    -0.060 A 
ATOM     33  C   UNL A   1      33.116 -36.546 -31.686  0.00  0.00    -0.061 A 
ATOM     34  C   UNL A   1      33.440 -37.892 -31.525  0.00  0.00    -0.051 A 
ATOM     35  C   UNL A   1      33.092 -38.857 -32.502  0.00  0.00    +0.021 A 
ATOM     36  C   UNL A   1      31.962 -41.436 -35.702  0.00  0.00    -0.010 C 
ATOM     37  C   UNL A   1      32.681 -42.777 -35.770  0.00  0.00    -0.047 C 
ATOM     38  C   UNL A   1      32.639 -43.449 -34.406  0.00  0.00    -0.049 C 
ATOM     39  C   UNL A   1      33.368 -42.598 -33.367  0.00  0.00    -0.024 C 
ENDBRANCH  24  26
ENDBRANCH  23  24
ENDBRANCH  22  23
ENDBRANCH  21  22
ENDBRANCH   1  21
TORSDOF 12
ENDMDL
MODEL 20
REMARK VINA RESULT:    -5.529     19.532     23.218
REMARK INTER + INTRA:         -12.883
REMARK INTER:                  -9.011
REMARK INTRA:                  -3.873
REMARK UNBOUND:                -3.637
REMARK  Name = cpd340.pdb
REMARK  14 active torsions:
REMARK  status: ('A' for Active; 'I' for Inactive)
REMARK    1  A    between atoms: C_1  and  O_2
REMARK    2  A    between atoms: O_2  and  C_3
REMARK    3  A    between atoms: C_5  and  C_6
REMARK    4  A    between atoms: C_6  and  C_7
REMARK    5  A    between atoms: C_7  and  C_8
REMARK    6  A    between atoms: C_7  and  C_11
REMARK    7  A    between atoms: C_8  and  C_9
REMARK    8  A    between atoms: N_13  and  C_14
REMARK    9  A    between atoms: C_14  and  C_15
REMARK   10  A    between atoms: C_15  and  C_16
REMARK   11  A    between atoms: C_16  and  C_17
REMARK   12  A    between atoms: C_17  and  N_18
REMARK   13  A    between atoms: N_18  and  C_19
REMARK   14  A    between atoms: C_35  and  O_36
REMARK                            x       y       z     vdW  Elec       q    Type
REMARK                         _______ _______ _______ _____ _____    ______ ____
ROOT
ATOM      1  C   UNL A   1      45.473 -13.261 -40.641  0.00  0.00    +0.012 C 
ENDROOT
BRANCH   1   4
ATOM      2  C   UNL A   1      43.528 -14.761 -40.381  0.00  0.00    +0.224 C 
ATOM      3  O   UNL A   1      43.269 -14.762 -41.582  0.00  0.00    -0.275 OA
ATOM      4  N   UNL A   1      44.535 -14.003 -39.824  0.00  0.00    -0.315 N 
ATOM      5  H   UNL A   1      44.619 -13.965 -38.843  0.00  0.00    +0.000 HD
BRANCH   2   6
ATOM      6  C   UNL A   1      42.712 -15.578 -39.400  0.00  0.00    +0.097 C 
BRANCH   6   7
ATOM      7  C   UNL A   1      41.440 -14.850 -39.011  0.00  0.00    +0.142 C 
ATOM      8  C   UNL A   1      40.135 -15.482 -39.416  0.00  0.00    -0.005 C 
ATOM      9  O   UNL A   1      41.471 -13.801 -38.362  0.00  0.00    -0.297 OA
ENDBRANCH   6   7
BRANCH   6  10
ATOM     10  C   UNL A   1      42.397 -16.956 -39.992  0.00  0.00    -0.010 C 
BRANCH  10  13
ATOM     11  C   UNL A   1      42.735 -20.448 -38.477  0.00  0.00    +0.162 A 
ATOM     12  C   UNL A   1      42.530 -19.411 -39.393  0.00  0.00    -0.013 A 
ATOM     13  C   UNL A   1      42.588 -18.067 -38.985  0.00  0.00    -0.043 A 
ATOM     14  C   UNL A   1      42.861 -17.768 -37.644  0.00  0.00    -0.055 A 
ATOM     15  C   UNL A   1      43.070 -18.793 -36.722  0.00  0.00    -0.016 A 
ATOM     16  C   UNL A   1      43.007 -20.122 -37.142  0.00  0.00    +0.158 A 
BRANCH  11  18
ATOM     17  C   UNL A   1      41.486 -22.309 -39.293  0.00  0.00    +0.079 C 
ATOM     18  O   UNL A   1      42.701 -21.784 -38.779  0.00  0.00    -0.491 OA
ENDBRANCH  11  18
BRANCH  16  19
ATOM     19  O   UNL A   1      43.216 -21.129 -36.236  0.00  0.00    -0.503 OA
ATOM     20  H   UNL A   1      43.623 -20.941 -35.413  0.00  0.00    +0.000 HD
ENDBRANCH  16  19
ENDBRANCH  10  13
ENDBRANCH   6  10
ENDBRANCH   2   6
ENDBRANCH   1   4
BRANCH   1  21
ATOM     21  C   UNL A   1      46.503 -14.192 -41.275  0.00  0.00    -0.036 C 
BRANCH  21  22
ATOM     22  C   UNL A   1      47.220 -15.035 -40.218  0.00  0.00    -0.036 C 
BRANCH  22  23
ATOM     23  C   UNL A   1      47.248 -16.523 -40.578  0.00  0.00    +0.009 C 
BRANCH  23  24
ATOM     24  N   UNL A   1      45.983 -17.157 -40.187  0.00  0.00    -0.343 N 
ATOM     25  H   UNL A   1      45.095 -16.766 -40.354  0.00  0.00    +0.000 HD
BRANCH  24  26
ATOM     26  C   UNL A   1      46.196 -18.409 -39.537  0.00  0.00    +0.041 A 
ATOM     27  C   UNL A   1      46.408 -18.470 -38.145  0.00  0.00    -0.005 A 
ATOM     28  C   UNL A   1      46.546 -19.737 -37.568  0.00  0.00    +0.047 A 
ATOM     29  N   UNL A   1      46.435 -20.890 -38.269  0.00  0.00    -0.251 NA
ATOM     30  C   UNL A   1      46.221 -20.830 -39.590  0.00  0.00    +0.073 A 
ATOM     31  C   UNL A   1      46.124 -22.023 -40.295  0.00  0.00    -0.036 A 
ATOM     32  C   UNL A   1      45.918 -22.053 -41.677  0.00  0.00    -0.060 A 
ATOM     33  C   UNL A   1      45.812 -20.861 -42.379  0.00  0.00    -0.061 A 
ATOM     34  C   UNL A   1      45.906 -19.653 -41.690  0.00  0.00    -0.051 A 
ATOM     35  C   UNL A   1      46.097 -19.615 -40.287  0.00  0.00    +0.021 A 
ATOM     36  C   UNL A   1      46.769 -19.916 -36.088  0.00  0.00    -0.010 C 
ATOM     37  C   UNL A   1      47.316 -18.670 -35.405  0.00  0.00    -0.047 C 
ATOM     38  C   UNL A   1      46.482 -17.461 -35.800  0.00  0.00    -0.049 C 
ATOM     39  C   UNL A   1      46.565 -17.223 -37.307  0.00  0.00    -0.024 C 
ENDBRANCH  24  26
ENDBRANCH  23  24
ENDBRANCH  22  23
ENDBRANCH  21  22
ENDBRANCH   1  21
TORSDOF 12
ENDMDL
