@<TRIPOS>MOLECULE
*****
 35 38 0 0 0
SMALL
GASTEIGER

@<TRIPOS>ATOM
      1 C           2.9918   -2.7379    0.0000 C.3     1  UNL1        0.1212
      2 C           2.6963   -1.8295    0.0000 C.2     1  UNL1        0.3175
      3 O           3.3353   -1.1194    0.0000 O.2     1  UNL1       -0.2501
      4 O           0.8275   -1.4328    0.0000 O.3     1  UNL1       -0.4505
      5 C           0.8272   -0.4776    0.0000 C.3     1  UNL1        0.1884
      6 C           1.6542    0.0005    0.0000 C.3     1  UNL1        0.1355
      7 N           2.4817   -0.4768    0.0000 N.am    1  UNL1       -0.1997
      8 C           3.1205    0.2334    0.0000 C.2     1  UNL1        0.2644
      9 O           4.0550    0.0352    0.0000 O.2     1  UNL1       -0.2684
     10 C           2.8250    1.1417    0.0000 C.2     1  UNL1        0.0510
     11 C           3.4638    1.8518    0.0000 C.2     1  UNL1       -0.0390
     12 C           4.3982    1.6536    0.0000 C.3     1  UNL1        0.0265
     13 C           3.1682    2.7602    0.0000 C.3     1  UNL1        0.0265
     14 C           1.6539    0.9562    0.0000 C.3     1  UNL1        0.0254
     15 C           0.8267    1.4338    0.0000 C.3     1  UNL1        0.0020
     16 C          -0.0003    0.9557    0.0000 C.3     1  UNL1        0.0035
     17 C          -0.0006    1.9336    0.0000 C.3     1  UNL1        0.0001
     18 C          -0.8281    1.4333    0.0000 C.3     1  UNL1        0.0001
     19 C          -0.8284    2.3884    0.0000 C.3     1  UNL1        0.0000
     20 C          -1.6562    2.8660    0.0000 C.3     1  UNL1        0.0000
     21 C          -2.4837    2.3879    0.0000 C.3     1  UNL1        0.0012
     22 C          -2.4840    3.3659    0.0000 C.3     1  UNL1        0.0000
     23 C          -3.3116    2.8655    0.0000 C.3     1  UNL1        0.0147
     24 C          -3.3118    3.8203    0.0000 C.3     1  UNL1        0.0576
     25 C          -4.2666    3.8200    0.0000 C.3     1  UNL1        0.0173
     26 N          -2.8347    4.6472    0.0000 N.3     1  UNL1       -0.2716
     27 C          -3.3123    5.4739    0.0000 C.3     1  UNL1        0.0896
     28 C          -1.8800    4.6475    0.0000 C.3     1  UNL1        0.0896
     29 C          -4.1380    2.3875    0.0000 C.3     1  UNL1        0.0013
     30 C          -4.1377    1.4324    0.0000 C.3     1  UNL1        0.0000
     31 C          -2.4835    1.4328    0.0000 C.3     1  UNL1        0.0000
     32 C          -1.6556    0.9552    0.0000 C.3     1  UNL1        0.0000
     33 C          -1.6554   -0.0005    0.0000 C.3     1  UNL1        0.0001
     34 C          -0.8275   -0.4781    0.0000 C.3     1  UNL1        0.0036
     35 C           0.0000   -0.0000    0.0000 C.3     1  UNL1        0.0419
@<TRIPOS>BOND
     1     1     2    1
     2     2     3    2
     3     2     4    1
     4     4     5    1
     5     5     6    1
     6     6     7    1
     7     7     8   am
     8     8     9    2
     9     8    10    1
    10    10    11    2
    11    11    12    1
    12    11    13    1
    13     6    14    1
    14    14    15    1
    15    15    16    1
    16    16    17    1
    17    16    18    1
    18    18    19    1
    19    19    20    1
    20    20    21    1
    21    21    22    1
    22    21    23    1
    23    23    24    1
    24    24    25    1
    25    24    26    1
    26    26    27    1
    27    26    28    1
    28    23    29    1
    29    29    30    1
    30    30    31    1
    31    21    31    1
    32    31    32    1
    33    18    32    1
    34    32    33    1
    35    33    34    1
    36    34    35    1
    37     5    35    1
    38    16    35    1
