REMARK  Name = cpd184.pdb
REMARK  14 active torsions:
REMARK  status: ('A' for Active; 'I' for Inactive)
REMARK    1  A    between atoms: C_1  and  C_2
REMARK    2  A    between atoms: C_2  and  O_4
REMARK    3  A    between atoms: O_4  and  C_5
REMARK    4  A    between atoms: C_6  and  N_7
REMARK    5  A    between atoms: C_8  and  C_10
REMARK    6  A    between atoms: C_11  and  C_12
REMARK    7  A    between atoms: C_11  and  C_13
REMARK    8  A    between atoms: C_16  and  C_17
REMARK    9  A    between atoms: C_21  and  C_22
REMARK   10  A    between atoms: C_23  and  C_24
REMARK   11  A    between atoms: C_24  and  C_25
REMARK   12  A    between atoms: C_24  and  N_26
REMARK   13  A    between atoms: N_26  and  C_27
REMARK   14  A    between atoms: N_26  and  C_28
REMARK                            x       y       z     vdW  Elec       q    Type
REMARK                         _______ _______ _______ _____ _____    ______ ____
ROOT
ATOM      1  C   UNL     1       1.757  -1.107  -0.138  0.00  0.00    +0.125 C 
ATOM      2  C   UNL     1       3.016  -0.225  -0.006  0.00  0.00    +0.061 C 
ATOM      3  C   UNL     1       2.949   0.974  -0.964  0.00  0.00    -0.031 C 
ATOM      4  C   UNL     1       1.538   1.296  -1.459  0.00  0.00    -0.045 C 
ATOM      5  C   UNL     1       0.437   1.149  -0.377  0.00  0.00    -0.023 C 
ATOM      6  C   UNL     1       0.736   2.143   0.781  0.00  0.00    -0.059 C 
ATOM      7  C   UNL     1      -0.970   1.464  -1.029  0.00  0.00    -0.032 C 
ATOM      8  C   UNL     1      -1.118   2.915  -1.533  0.00  0.00    -0.049 C 
ATOM      9  C   UNL     1      -2.315   3.656  -0.947  0.00  0.00    -0.047 C 
ATOM     10  C   UNL     1      -3.651   2.911  -1.141  0.00  0.00    -0.025 C 
ATOM     11  C   UNL     1      -4.039   2.942  -2.635  0.00  0.00    -0.059 C 
ATOM     12  C   UNL     1      -4.832   3.507  -0.282  0.00  0.00    -0.020 C 
ATOM     13  C   UNL     1      -4.809   2.639   0.981  0.00  0.00    -0.048 C 
ATOM     14  C   UNL     1      -4.618   1.245   0.407  0.00  0.00    -0.049 C 
ATOM     15  C   UNL     1      -3.527   1.419  -0.666  0.00  0.00    -0.032 C 
ATOM     16  C   UNL     1      -2.131   1.037  -0.102  0.00  0.00    -0.034 C 
ATOM     17  C   UNL     1      -2.065  -0.473   0.217  0.00  0.00    -0.049 C 
ATOM     18  C   UNL     1      -0.756  -1.142  -0.182  0.00  0.00    -0.046 C 
ATOM     19  C   UNL     1       0.472  -0.308   0.218  0.00  0.00    +0.004 C 
ENDROOT
BRANCH   2  20
ATOM     20  N   UNL     1       4.254  -0.977  -0.228  0.00  0.00    -0.305 N 
ATOM     21  C   UNL     1       5.522  -0.635   0.140  0.00  0.00    +0.237 C 
ATOM     22  O   UNL     1       6.499  -1.256  -0.261  0.00  0.00    -0.271 OA
ATOM     23  H   UNL     1       4.159  -1.835  -0.701  0.00  0.00    +0.000 HD
BRANCH  21  24
ATOM     24  C   UNL     1       5.657   0.504   1.075  0.00  0.00    -0.001 C 
ATOM     25  C   UNL     1       6.322   1.635   0.776  0.00  0.00    -0.071 C 
ATOM     26  C   UNL     1       6.985   1.914  -0.545  0.00  0.00    -0.044 C 
ATOM     27  C   UNL     1       6.442   2.742   1.787  0.00  0.00    -0.044 C 
ENDBRANCH  21  24
ENDBRANCH   2  20
BRANCH  12  28
ATOM     28  C   UNL     1      -4.892   5.065  -0.090  0.00  0.00    +0.010 C 
ATOM     29  C   UNL     1      -5.922   5.623  -1.100  0.00  0.00    -0.049 C 
BRANCH  28  30
ATOM     30  N   UNL     1      -5.148   5.441   1.324  0.00  0.00    -0.305 N 
ATOM     31  C   UNL     1      -6.052   6.571   1.534  0.00  0.00    -0.013 C 
ATOM     32  C   UNL     1      -3.885   5.717   2.026  0.00  0.00    -0.013 C 
ATOM     33  H   UNL     1      -5.625   4.624   1.706  0.00  0.00    +0.000 HD
ENDBRANCH  28  30
ENDBRANCH  12  28
BRANCH   1  34
ATOM     34  O   UNL     1       1.834  -2.218   0.788  0.00  0.00    -0.459 OA
BRANCH  34  36
ATOM     35  C   UNL     1       2.439  -4.405   1.380  0.00  0.00    +0.033 C 
ATOM     36  C   UNL     1       2.427  -3.350   0.317  0.00  0.00    +0.304 C 
ATOM     37  O   UNL     1       2.890  -3.491  -0.806  0.00  0.00    -0.251 OA
ENDBRANCH  34  36
ENDBRANCH   1  34
TORSDOF 6
