@<TRIPOS>MOLECULE
*****
 33 37 0 0 0
SMALL
GASTEIGER

@<TRIPOS>ATOM
      1 C          -1.0000   -0.0000    0.0000 C.ar    1  UNL1        0.0002
      2 C          -1.5000    0.8660    0.0000 C.ar    1  UNL1        0.0031
      3 C          -1.0000    1.7321    0.0000 C.ar    1  UNL1        0.0375
      4 C          -0.0000    1.7321    0.0000 C.ar    1  UNL1        0.1449
      5 O           0.6691    2.4752    0.0000 O.2     1  UNL1       -0.4563
      6 C           1.5827    2.0685    0.0000 C.ar    1  UNL1        0.1404
      7 C           2.4487    2.5685    0.0000 C.3     1  UNL1        0.1528
      8 N           3.3147    2.0685    0.0000 N.3     1  UNL1       -0.2100
      9 C           4.1808    2.5685    0.0000 C.3     1  UNL1        0.0892
     10 C           5.0468    2.0685    0.0000 C.3     1  UNL1        0.0188
     11 C           5.9128    2.5685    0.0000 C.3     1  UNL1        0.0015
     12 C           6.7788    2.0685    0.0000 C.3     1  UNL1        0.0001
     13 C           7.6449    2.5685    0.0000 C.3     1  UNL1        0.0018
     14 C           8.5109    2.0685    0.0000 C.3     1  UNL1        0.0233
     15 C           9.3769    2.5685    0.0000 C.3     1  UNL1        0.1122
     16 N          10.2429    2.0685    0.0000 N.pl3   1  UNL1       -0.2378
     17 C          11.1090    2.5685    0.0000 C.ar    1  UNL1        0.0638
     18 C          11.1090    3.5685    0.0000 C.ar    1  UNL1        0.0062
     19 C          11.9750    4.0685    0.0000 C.ar    1  UNL1        0.0562
     20 N          12.8410    3.5685    0.0000 N.ar    1  UNL1       -0.2499
     21 C          12.8410    2.5685    0.0000 C.ar    1  UNL1        0.0821
     22 C          13.7070    2.0685    0.0000 C.ar    1  UNL1        0.0191
     23 C          13.7070    1.0685    0.0000 C.ar    1  UNL1        0.0015
     24 C          12.8410    0.5685    0.0000 C.ar    1  UNL1        0.0001
     25 C          11.9750    1.0685    0.0000 C.ar    1  UNL1        0.0028
     26 C          11.9750    2.0685    0.0000 C.ar    1  UNL1        0.0322
     27 C          11.9750    5.0685    0.0000 C.3     1  UNL1        0.0455
     28 C          11.1090    5.5685    0.0000 C.3     1  UNL1        0.0066
     29 C          10.2429    5.0685    0.0000 C.3     1  UNL1        0.0052
     30 C          10.2429    4.0685    0.0000 C.3     1  UNL1        0.0289
     31 C           1.4781    1.0739    0.0000 C.ar    1  UNL1        0.0375
     32 C           0.5000    0.8660    0.0000 C.ar    1  UNL1        0.0373
     33 C           0.0000   -0.0000    0.0000 C.ar    1  UNL1        0.0031
@<TRIPOS>BOND
     1     1     2   ar
     2     2     3   ar
     3     3     4   ar
     4     4     5   ar
     5     5     6   ar
     6     6     7    1
     7     7     8    1
     8     8     9    1
     9     9    10    1
    10    10    11    1
    11    11    12    1
    12    12    13    1
    13    13    14    1
    14    14    15    1
    15    15    16    1
    16    16    17    1
    17    17    18   ar
    18    18    19   ar
    19    19    20   ar
    20    20    21   ar
    21    21    22   ar
    22    22    23   ar
    23    23    24   ar
    24    24    25   ar
    25    25    26   ar
    26    17    26   ar
    27    21    26   ar
    28    19    27    1
    29    27    28    1
    30    28    29    1
    31    29    30    1
    32    18    30    1
    33     6    31   ar
    34    31    32   ar
    35     4    32   ar
    36    32    33   ar
    37     1    33   ar
