REMARK  Name = cpd61.pdb
REMARK  11 active torsions:
REMARK  status: ('A' for Active; 'I' for Inactive)
REMARK    1  A    between atoms: C_6  and  C_7
REMARK    2  A    between atoms: C_7  and  N_8
REMARK    3  A    between atoms: N_8  and  C_9
REMARK    4  A    between atoms: C_9  and  C_10
REMARK    5  A    between atoms: C_10  and  C_11
REMARK    6  A    between atoms: C_11  and  C_12
REMARK    7  A    between atoms: C_12  and  C_13
REMARK    8  A    between atoms: C_13  and  C_14
REMARK    9  A    between atoms: C_14  and  C_15
REMARK   10  A    between atoms: C_15  and  N_16
REMARK   11  A    between atoms: N_16  and  C_17
REMARK                            x       y       z     vdW  Elec       q    Type
REMARK                         _______ _______ _______ _____ _____    ______ ____
ROOT
ATOM      1  C   UNL     1       7.481   0.786  -1.004  0.00  0.00    -0.052 C 
ENDROOT
BRANCH   1   2
ATOM      2  C   UNL     1       5.978   0.921  -0.729  0.00  0.00    -0.053 C 
BRANCH   2   3
ATOM      3  C   UNL     1       5.520   2.382  -0.742  0.00  0.00    -0.052 C 
BRANCH   3   4
ATOM      4  C   UNL     1       4.010   2.523  -0.533  0.00  0.00    -0.040 C 
BRANCH   4   5
ATOM      5  C   UNL     1       3.625   4.005  -0.477  0.00  0.00    -0.004 C 
BRANCH   5   6
ATOM      6  N   UNL     1       2.197   4.273  -0.373  0.00  0.00    -0.309 N 
ATOM      7  H   UNL     1       2.055   5.279  -0.467  0.00  0.00    +0.000 HD
ATOM      8  H   UNL     1       1.748   3.733  -1.113  0.00  0.00    +0.000 HD
BRANCH   6   9
ATOM      9  C   UNL     1       1.584   3.842   0.884  0.00  0.00    +0.055 C 
BRANCH   9  15
ATOM     10  C   UNL     1      -1.890  -1.060   0.083  0.00  0.00    -0.061 A 
ATOM     11  C   UNL     1      -2.593  -0.107  -0.658  0.00  0.00    -0.058 A 
ATOM     12  C   UNL     1      -2.134   1.210  -0.762  0.00  0.00    -0.019 A 
ATOM     13  C   UNL     1      -0.952   1.510  -0.089  0.00  0.00    +0.135 A 
ATOM     14  O   UNL     1      -0.347   2.727  -0.066  0.00  0.00    -0.458 OA
ATOM     15  C   UNL     1       0.772   2.607   0.709  0.00  0.00    +0.120 A 
ATOM     16  C   UNL     1       0.888   1.312   1.174  0.00  0.00    -0.012 A 
ATOM     17  C   UNL     1      -0.225   0.594   0.661  0.00  0.00    +0.020 A 
ATOM     18  C   UNL     1      -0.701  -0.726   0.750  0.00  0.00    -0.051 A 
ENDBRANCH   9  15
ENDBRANCH   6   9
ENDBRANCH   5   6
ENDBRANCH   4   5
ENDBRANCH   3   4
ENDBRANCH   2   3
ENDBRANCH   1   2
BRANCH   1  19
ATOM     19  C   UNL     1       8.349   1.240   0.173  0.00  0.00    -0.037 C 
BRANCH  19  20
ATOM     20  C   UNL     1       9.812   1.404  -0.241  0.00  0.00    +0.009 C 
BRANCH  20  21
ATOM     21  N   UNL     1      10.581   1.854   0.928  0.00  0.00    -0.343 N 
ATOM     22  H   UNL     1      10.309   1.699   1.861  0.00  0.00    +0.000 HD
BRANCH  21  23
ATOM     23  C   UNL     1      11.770   2.543   0.545  0.00  0.00    +0.041 A 
ATOM     24  C   UNL     1      11.715   3.946   0.408  0.00  0.00    -0.005 A 
ATOM     25  C   UNL     1      12.875   4.605   0.002  0.00  0.00    +0.047 A 
ATOM     26  N   UNL     1      14.020   3.957  -0.314  0.00  0.00    -0.251 NA
ATOM     27  C   UNL     1      14.064   2.622  -0.208  0.00  0.00    +0.073 A 
ATOM     28  C   UNL     1      15.253   1.986  -0.541  0.00  0.00    -0.036 A 
ATOM     29  C   UNL     1      15.397   0.599  -0.467  0.00  0.00    -0.060 A 
ATOM     30  C   UNL     1      14.328  -0.178  -0.050  0.00  0.00    -0.061 A 
ATOM     31  C   UNL     1      13.124   0.438   0.290  0.00  0.00    -0.051 A 
ATOM     32  C   UNL     1      12.966   1.847   0.217  0.00  0.00    +0.021 A 
ATOM     33  C   UNL     1      12.916   6.101  -0.169  0.00  0.00    -0.010 C 
ATOM     34  C   UNL     1      11.821   6.826   0.606  0.00  0.00    -0.047 C 
ATOM     35  C   UNL     1      10.476   6.174   0.328  0.00  0.00    -0.049 C 
ATOM     36  C   UNL     1      10.475   4.719   0.797  0.00  0.00    -0.024 C 
ENDBRANCH  21  23
ENDBRANCH  20  21
ENDBRANCH  19  20
ENDBRANCH   1  19
TORSDOF 11
