REMARK  Name = cpd42.pdb
REMARK  18 active torsions:
REMARK  status: ('A' for Active; 'I' for Inactive)
REMARK    1  A    between atoms: C_1  and  C_2
REMARK    2  A    between atoms: C_6  and  N_7
REMARK    3  A    between atoms: N_7  and  C_8
REMARK    4  A    between atoms: C_13  and  C_14
REMARK    5  A    between atoms: N_16  and  C_17
REMARK    6  A    between atoms: C_17  and  C_18
REMARK    7  A    between atoms: C_18  and  C_19
REMARK    8  A    between atoms: N_21  and  C_22
REMARK    9  A    between atoms: C_22  and  C_23
REMARK   10  A    between atoms: C_23  and  C_24
REMARK   11  A    between atoms: C_24  and  C_25
REMARK   12  A    between atoms: C_25  and  C_26
REMARK   13  A    between atoms: C_26  and  C_27
REMARK   14  A    between atoms: C_27  and  C_28
REMARK   15  A    between atoms: C_28  and  C_29
REMARK   16  A    between atoms: C_29  and  N_30
REMARK   17  A    between atoms: N_30  and  C_31
REMARK   18  A    between atoms: C_45  and  C_46
REMARK                            x       y       z     vdW  Elec       q    Type
REMARK                         _______ _______ _______ _____ _____    ______ ____
ROOT
ATOM      1  C   UNL A   1      -5.456  -6.009  -0.201  0.00  0.00    +0.215 C 
ATOM      2  O   UNL A   1      -6.413  -5.844  -0.948  0.00  0.00    -0.276 OA
ATOM      3  N   UNL A   1      -5.567  -6.388   1.118  0.00  0.00    -0.315 N 
ATOM      4  H   UNL A   1      -4.746  -6.487   1.653  0.00  0.00    +0.000 HD
ENDROOT
BRANCH   3   5
ATOM      5  C   UNL A   1      -6.847  -6.647   1.750  0.00  0.00    +0.012 C 
BRANCH   5   6
ATOM      6  C   UNL A   1      -7.310  -5.473   2.613  0.00  0.00    -0.037 C 
BRANCH   6   7
ATOM      7  C   UNL A   1      -7.779  -4.241   1.830  0.00  0.00    -0.052 C 
BRANCH   7   8
ATOM      8  C   UNL A   1      -9.103  -4.470   1.095  0.00  0.00    -0.053 C 
BRANCH   8   9
ATOM      9  C   UNL A   1      -9.587  -3.192   0.404  0.00  0.00    -0.053 C 
BRANCH   9  10
ATOM     10  C   UNL A   1     -10.911  -3.377  -0.346  0.00  0.00    -0.052 C 
BRANCH  10  11
ATOM     11  C   UNL A   1     -12.105  -3.588   0.587  0.00  0.00    -0.037 C 
BRANCH  11  12
ATOM     12  C   UNL A   1     -13.413  -3.734  -0.193  0.00  0.00    +0.009 C 
BRANCH  12  13
ATOM     13  N   UNL A   1     -14.505  -3.945   0.767  0.00  0.00    -0.343 N 
ATOM     14  H   UNL A   1     -14.428  -3.776   1.734  0.00  0.00    +0.000 HD
BRANCH  13  15
ATOM     15  C   UNL A   1     -15.689  -4.424   0.134  0.00  0.00    +0.041 A 
ATOM     16  C   UNL A   1     -15.871  -5.817   0.020  0.00  0.00    -0.005 A 
ATOM     17  C   UNL A   1     -17.025  -6.271  -0.620  0.00  0.00    +0.047 A 
ATOM     18  N   UNL A   1     -17.940  -5.440  -1.172  0.00  0.00    -0.251 NA
ATOM     19  C   UNL A   1     -17.754  -4.116  -1.084  0.00  0.00    +0.073 A 
ATOM     20  C   UNL A   1     -18.712  -3.290  -1.657  0.00  0.00    -0.036 A 
ATOM     21  C   UNL A   1     -18.608  -1.899  -1.621  0.00  0.00    -0.060 A 
ATOM     22  C   UNL A   1     -17.518  -1.311  -0.999  0.00  0.00    -0.061 A 
ATOM     23  C   UNL A   1     -16.542  -2.120  -0.416  0.00  0.00    -0.051 A 
ATOM     24  C   UNL A   1     -16.640  -3.536  -0.445  0.00  0.00    +0.021 A 
ATOM     25  C   UNL A   1     -17.309  -7.741  -0.790  0.00  0.00    -0.010 C 
ATOM     26  C   UNL A   1     -16.554  -8.619   0.201  0.00  0.00    -0.047 C 
ATOM     27  C   UNL A   1     -15.083  -8.233   0.215  0.00  0.00    -0.049 C 
ATOM     28  C   UNL A   1     -14.913  -6.786   0.674  0.00  0.00    -0.024 C 
ENDBRANCH  13  15
ENDBRANCH  12  13
ENDBRANCH  11  12
ENDBRANCH  10  11
ENDBRANCH   9  10
ENDBRANCH   8   9
ENDBRANCH   7   8
ENDBRANCH   6   7
ENDBRANCH   5   6
ENDBRANCH   3   5
BRANCH   1  29
ATOM     29  C   UNL A   1      -4.035  -5.759  -0.650  0.00  0.00    +0.039 C 
BRANCH  29  30
ATOM     30  C   UNL A   1      -3.582  -4.367  -0.230  0.00  0.00    +0.020 C 
BRANCH  30  33
ATOM     31  C   UNL A   1      -2.089  -2.930  -1.705  0.00  0.00    +0.246 C 
ATOM     32  O   UNL A   1      -2.071  -1.935  -2.426  0.00  0.00    -0.270 OA
ATOM     33  N   UNL A   1      -3.286  -3.522  -1.379  0.00  0.00    -0.311 N 
ATOM     34  H   UNL A   1      -4.034  -3.355  -1.997  0.00  0.00    +0.000 HD
BRANCH  31  40
ATOM     35  C   UNL A   1       0.152  -2.590  -0.641  0.00  0.00    +0.044 A 
ATOM     36  C   UNL A   1       1.309  -3.158  -0.081  0.00  0.00    -0.040 A 
ATOM     37  C   UNL A   1       1.549  -4.533  -0.151  0.00  0.00    -0.060 A 
ATOM     38  C   UNL A   1       0.625  -5.375  -0.763  0.00  0.00    -0.061 A 
ATOM     39  C   UNL A   1      -0.558  -4.846  -1.274  0.00  0.00    -0.048 A 
ATOM     40  C   UNL A   1      -0.815  -3.469  -1.174  0.00  0.00    +0.058 A 
BRANCH  35  41
ATOM     41  N   UNL A   1      -0.102  -1.194  -0.528  0.00  0.00    -0.314 N 
ATOM     42  H   UNL A   1      -1.047  -0.923  -0.469  0.00  0.00    +0.000 HD
BRANCH  41  48
ATOM     43  C   UNL A   1       1.327   3.337   1.054  0.00  0.00    -0.039 C 
ATOM     44  C   UNL A   1       1.533   2.087   0.242  0.00  0.00    -0.046 A 
ATOM     45  C   UNL A   1       2.676   1.991  -0.566  0.00  0.00    -0.058 A 
ATOM     46  C   UNL A   1       2.902   0.862  -1.347  0.00  0.00    -0.060 A 
ATOM     47  C   UNL A   1       1.996  -0.194  -1.316  0.00  0.00    -0.040 A 
ATOM     48  C   UNL A   1       0.861  -0.147  -0.491  0.00  0.00    +0.035 A 
ATOM     49  C   UNL A   1       0.593   1.028   0.249  0.00  0.00    -0.026 A 
ATOM     50  C   UNL A   1      -0.644   1.111   1.111  0.00  0.00    -0.038 C 
ENDBRANCH  41  48
ENDBRANCH  35  41
ENDBRANCH  31  40
ENDBRANCH  30  33
ENDBRANCH  29  30
ENDBRANCH   1  29
TORSDOF 16
