MODEL 1
REMARK VINA RESULT:    -7.329      0.000      0.000
REMARK INTER + INTRA:         -19.237
REMARK INTER:                 -14.184
REMARK INTRA:                  -5.053
REMARK UNBOUND:                -5.053
REMARK  Name = cpd42.pdb
REMARK  18 active torsions:
REMARK  status: ('A' for Active; 'I' for Inactive)
REMARK    1  A    between atoms: C_1  and  C_2
REMARK    2  A    between atoms: C_6  and  N_7
REMARK    3  A    between atoms: N_7  and  C_8
REMARK    4  A    between atoms: C_13  and  C_14
REMARK    5  A    between atoms: N_16  and  C_17
REMARK    6  A    between atoms: C_17  and  C_18
REMARK    7  A    between atoms: C_18  and  C_19
REMARK    8  A    between atoms: N_21  and  C_22
REMARK    9  A    between atoms: C_22  and  C_23
REMARK   10  A    between atoms: C_23  and  C_24
REMARK   11  A    between atoms: C_24  and  C_25
REMARK   12  A    between atoms: C_25  and  C_26
REMARK   13  A    between atoms: C_26  and  C_27
REMARK   14  A    between atoms: C_27  and  C_28
REMARK   15  A    between atoms: C_28  and  C_29
REMARK   16  A    between atoms: C_29  and  N_30
REMARK   17  A    between atoms: N_30  and  C_31
REMARK   18  A    between atoms: C_45  and  C_46
REMARK                            x       y       z     vdW  Elec       q    Type
REMARK                         _______ _______ _______ _____ _____    ______ ____
ROOT
ATOM      1  C   UNL A   1      46.189 -19.193 -34.909  0.00  0.00    +0.215 C 
ATOM      2  O   UNL A   1      46.349 -20.117 -35.697  0.00  0.00    -0.276 OA
ATOM      3  N   UNL A   1      45.090 -19.064 -34.090  0.00  0.00    -0.315 N 
ATOM      4  H   UNL A   1      45.034 -18.282 -33.493  0.00  0.00    +0.000 HD
ENDROOT
BRANCH   3   5
ATOM      5  C   UNL A   1      44.012 -20.034 -34.071  0.00  0.00    +0.012 C 
BRANCH   5   6
ATOM      6  C   UNL A   1      42.955 -19.739 -35.135  0.00  0.00    -0.037 C 
BRANCH   6   7
ATOM      7  C   UNL A   1      42.711 -20.874 -36.137  0.00  0.00    -0.052 C 
BRANCH   7   8
ATOM      8  C   UNL A   1      43.484 -20.689 -37.447  0.00  0.00    -0.053 C 
BRANCH   8   9
ATOM      9  C   UNL A   1      42.540 -20.384 -38.614  0.00  0.00    -0.053 C 
BRANCH   9  10
ATOM     10  C   UNL A   1      42.506 -21.496 -39.668  0.00  0.00    -0.052 C 
BRANCH  10  11
ATOM     11  C   UNL A   1      41.089 -21.969 -39.996  0.00  0.00    -0.037 C 
BRANCH  11  12
ATOM     12  C   UNL A   1      40.394 -22.565 -38.770  0.00  0.00    +0.009 C 
BRANCH  12  13
ATOM     13  N   UNL A   1      39.105 -21.883 -38.589  0.00  0.00    -0.343 N 
ATOM     14  H   UNL A   1      38.335 -21.992 -39.193  0.00  0.00    +0.000 HD
BRANCH  13  15
ATOM     15  C   UNL A   1      39.101 -21.042 -37.438  0.00  0.00    +0.041 A 
ATOM     16  C   UNL A   1      39.228 -19.651 -37.623  0.00  0.00    -0.005 A 
ATOM     17  C   UNL A   1      39.243 -18.843 -36.486  0.00  0.00    +0.047 A 
ATOM     18  N   UNL A   1      39.191 -19.337 -35.227  0.00  0.00    -0.251 NA
ATOM     19  C   UNL A   1      39.094 -20.662 -35.051  0.00  0.00    +0.073 A 
ATOM     20  C   UNL A   1      39.039 -21.138 -33.747  0.00  0.00    -0.036 A 
ATOM     21  C   UNL A   1      38.941 -22.500 -33.460  0.00  0.00    -0.060 A 
ATOM     22  C   UNL A   1      38.898 -23.417 -34.498  0.00  0.00    -0.061 A 
ATOM     23  C   UNL A   1      38.952 -22.963 -35.816  0.00  0.00    -0.051 A 
ATOM     24  C   UNL A   1      39.049 -21.579 -36.120  0.00  0.00    +0.021 A 
ATOM     25  C   UNL A   1      39.373 -17.345 -36.581  0.00  0.00    -0.010 C 
ATOM     26  C   UNL A   1      38.971 -16.790 -37.943  0.00  0.00    -0.047 C 
ATOM     27  C   UNL A   1      39.660 -17.580 -39.045  0.00  0.00    -0.049 C 
ATOM     28  C   UNL A   1      39.225 -19.044 -39.007  0.00  0.00    -0.024 C 
ENDBRANCH  13  15
ENDBRANCH  12  13
ENDBRANCH  11  12
ENDBRANCH  10  11
ENDBRANCH   9  10
ENDBRANCH   8   9
ENDBRANCH   7   8
ENDBRANCH   6   7
ENDBRANCH   5   6
ENDBRANCH   3   5
BRANCH   1  29
ATOM     29  C   UNL A   1      47.177 -18.056 -34.794  0.00  0.00    +0.039 C 
BRANCH  29  30
ATOM     30  C   UNL A   1      47.157 -17.204 -36.057  0.00  0.00    +0.020 C 
BRANCH  30  33
ATOM     31  C   UNL A   1      45.403 -16.146 -37.565  0.00  0.00    +0.246 C 
ATOM     32  O   UNL A   1      44.301 -15.602 -37.572  0.00  0.00    -0.270 OA
ATOM     33  N   UNL A   1      45.799 -16.883 -36.473  0.00  0.00    -0.311 N 
ATOM     34  H   UNL A   1      45.077 -17.236 -35.904  0.00  0.00    +0.000 HD
BRANCH  31  40
ATOM     35  C   UNL A   1      46.161 -16.825 -39.852  0.00  0.00    +0.044 A 
ATOM     36  C   UNL A   1      46.991 -16.578 -40.959  0.00  0.00    -0.040 A 
ATOM     37  C   UNL A   1      48.000 -15.613 -40.909  0.00  0.00    -0.060 A 
ATOM     38  C   UNL A   1      48.187 -14.854 -39.757  0.00  0.00    -0.061 A 
ATOM     39  C   UNL A   1      47.340 -15.036 -38.666  0.00  0.00    -0.048 A 
ATOM     40  C   UNL A   1      46.305 -15.983 -38.728  0.00  0.00    +0.058 A 
BRANCH  35  41
ATOM     41  N   UNL A   1      45.111 -17.782 -39.928  0.00  0.00    -0.314 N 
ATOM     42  H   UNL A   1      44.371 -17.674 -39.287  0.00  0.00    +0.000 HD
BRANCH  41  48
ATOM     43  C   UNL A   1      46.454 -22.405 -41.305  0.00  0.00    -0.039 C 
ATOM     44  C   UNL A   1      45.710 -21.116 -41.527  0.00  0.00    -0.046 A 
ATOM     45  C   UNL A   1      44.960 -20.966 -42.703  0.00  0.00    -0.058 A 
ATOM     46  C   UNL A   1      44.268 -19.787 -42.960  0.00  0.00    -0.060 A 
ATOM     47  C   UNL A   1      44.303 -18.748 -42.035  0.00  0.00    -0.040 A 
ATOM     48  C   UNL A   1      45.013 -18.878 -40.830  0.00  0.00    +0.035 A 
ATOM     49  C   UNL A   1      45.773 -20.048 -40.599  0.00  0.00    -0.026 A 
ATOM     50  C   UNL A   1      46.574 -20.188 -39.327  0.00  0.00    -0.038 C 
ENDBRANCH  41  48
ENDBRANCH  35  41
ENDBRANCH  31  40
ENDBRANCH  30  33
ENDBRANCH  29  30
ENDBRANCH   1  29
TORSDOF 16
ENDMDL
MODEL 2
REMARK VINA RESULT:    -7.289      1.901      4.893
REMARK INTER + INTRA:         -19.159
REMARK INTER:                 -13.466
REMARK INTRA:                  -5.693
REMARK UNBOUND:                -5.053
REMARK  Name = cpd42.pdb
REMARK  18 active torsions:
REMARK  status: ('A' for Active; 'I' for Inactive)
REMARK    1  A    between atoms: C_1  and  C_2
REMARK    2  A    between atoms: C_6  and  N_7
REMARK    3  A    between atoms: N_7  and  C_8
REMARK    4  A    between atoms: C_13  and  C_14
REMARK    5  A    between atoms: N_16  and  C_17
REMARK    6  A    between atoms: C_17  and  C_18
REMARK    7  A    between atoms: C_18  and  C_19
REMARK    8  A    between atoms: N_21  and  C_22
REMARK    9  A    between atoms: C_22  and  C_23
REMARK   10  A    between atoms: C_23  and  C_24
REMARK   11  A    between atoms: C_24  and  C_25
REMARK   12  A    between atoms: C_25  and  C_26
REMARK   13  A    between atoms: C_26  and  C_27
REMARK   14  A    between atoms: C_27  and  C_28
REMARK   15  A    between atoms: C_28  and  C_29
REMARK   16  A    between atoms: C_29  and  N_30
REMARK   17  A    between atoms: N_30  and  C_31
REMARK   18  A    between atoms: C_45  and  C_46
REMARK                            x       y       z     vdW  Elec       q    Type
REMARK                         _______ _______ _______ _____ _____    ______ ____
ROOT
ATOM      1  C   UNL A   1      42.514 -15.413 -39.516  0.00  0.00    +0.215 C 
ATOM      2  O   UNL A   1      42.367 -14.804 -38.463  0.00  0.00    -0.276 OA
ATOM      3  N   UNL A   1      41.536 -16.184 -40.102  0.00  0.00    -0.315 N 
ATOM      4  H   UNL A   1      41.741 -16.651 -40.944  0.00  0.00    +0.000 HD
ENDROOT
BRANCH   3   5
ATOM      5  C   UNL A   1      40.212 -16.335 -39.526  0.00  0.00    +0.012 C 
BRANCH   5   6
ATOM      6  C   UNL A   1      39.936 -17.774 -39.090  0.00  0.00    -0.037 C 
BRANCH   6   7
ATOM      7  C   UNL A   1      40.747 -18.249 -37.879  0.00  0.00    -0.052 C 
BRANCH   7   8
ATOM      8  C   UNL A   1      39.917 -18.312 -36.593  0.00  0.00    -0.053 C 
BRANCH   8   9
ATOM      9  C   UNL A   1      40.739 -17.880 -35.375  0.00  0.00    -0.053 C 
BRANCH   9  10
ATOM     10  C   UNL A   1      42.211 -17.610 -35.707  0.00  0.00    -0.052 C 
BRANCH  10  11
ATOM     11  C   UNL A   1      43.181 -18.399 -34.825  0.00  0.00    -0.037 C 
BRANCH  11  12
ATOM     12  C   UNL A   1      42.465 -19.505 -34.048  0.00  0.00    +0.009 C 
BRANCH  12  13
ATOM     13  N   UNL A   1      42.952 -20.803 -34.533  0.00  0.00    -0.343 N 
ATOM     14  H   UNL A   1      43.791 -21.224 -34.233  0.00  0.00    +0.000 HD
BRANCH  13  15
ATOM     15  C   UNL A   1      42.069 -21.382 -35.491  0.00  0.00    +0.041 A 
ATOM     16  C   UNL A   1      40.929 -22.067 -35.023  0.00  0.00    -0.005 A 
ATOM     17  C   UNL A   1      40.085 -22.646 -35.972  0.00  0.00    +0.047 A 
ATOM     18  N   UNL A   1      40.339 -22.620 -37.301  0.00  0.00    -0.251 NA
ATOM     19  C   UNL A   1      41.435 -21.990 -37.743  0.00  0.00    +0.073 A 
ATOM     20  C   UNL A   1      41.666 -21.979 -39.112  0.00  0.00    -0.036 A 
ATOM     21  C   UNL A   1      42.780 -21.352 -39.671  0.00  0.00    -0.060 A 
ATOM     22  C   UNL A   1      43.695 -20.719 -38.843  0.00  0.00    -0.061 A 
ATOM     23  C   UNL A   1      43.485 -20.717 -37.464  0.00  0.00    -0.051 A 
ATOM     24  C   UNL A   1      42.353 -21.350 -36.886  0.00  0.00    +0.021 A 
ATOM     25  C   UNL A   1      38.842 -23.397 -35.570  0.00  0.00    -0.010 C 
ATOM     26  C   UNL A   1      38.339 -23.029 -34.179  0.00  0.00    -0.047 C 
ATOM     27  C   UNL A   1      39.488 -23.084 -33.184  0.00  0.00    -0.049 C 
ATOM     28  C   UNL A   1      40.567 -22.069 -33.556  0.00  0.00    -0.024 C 
ENDBRANCH  13  15
ENDBRANCH  12  13
ENDBRANCH  11  12
ENDBRANCH  10  11
ENDBRANCH   9  10
ENDBRANCH   8   9
ENDBRANCH   7   8
ENDBRANCH   6   7
ENDBRANCH   5   6
ENDBRANCH   3   5
BRANCH   1  29
ATOM     29  C   UNL A   1      43.828 -15.418 -40.262  0.00  0.00    +0.039 C 
BRANCH  29  30
ATOM     30  C   UNL A   1      44.861 -14.575 -39.527  0.00  0.00    +0.020 C 
BRANCH  30  33
ATOM     31  C   UNL A   1      47.244 -15.458 -39.423  0.00  0.00    +0.246 C 
ATOM     32  O   UNL A   1      48.405 -15.217 -39.747  0.00  0.00    -0.270 OA
ATOM     33  N   UNL A   1      46.207 -14.796 -40.037  0.00  0.00    -0.311 N 
ATOM     34  H   UNL A   1      46.397 -14.427 -40.930  0.00  0.00    +0.000 HD
BRANCH  31  40
ATOM     35  C   UNL A   1      46.883 -17.819 -38.672  0.00  0.00    +0.044 A 
ATOM     36  C   UNL A   1      46.703 -18.723 -37.611  0.00  0.00    -0.040 A 
ATOM     37  C   UNL A   1      46.508 -18.275 -36.302  0.00  0.00    -0.060 A 
ATOM     38  C   UNL A   1      46.511 -16.912 -36.020  0.00  0.00    -0.061 A 
ATOM     39  C   UNL A   1      46.745 -15.996 -37.044  0.00  0.00    -0.048 A 
ATOM     40  C   UNL A   1      46.975 -16.447 -38.354  0.00  0.00    +0.058 A 
BRANCH  35  41
ATOM     41  N   UNL A   1      47.122 -18.287 -39.995  0.00  0.00    -0.314 N 
ATOM     42  H   UNL A   1      48.020 -18.123 -40.363  0.00  0.00    +0.000 HD
BRANCH  41  48
ATOM     43  C   UNL A   1      45.783 -22.381 -42.549  0.00  0.00    -0.039 C 
ATOM     44  C   UNL A   1      45.579 -20.950 -42.131  0.00  0.00    -0.046 A 
ATOM     45  C   UNL A   1      44.489 -20.243 -42.661  0.00  0.00    -0.058 A 
ATOM     46  C   UNL A   1      44.269 -18.914 -42.317  0.00  0.00    -0.060 A 
ATOM     47  C   UNL A   1      45.125 -18.279 -41.422  0.00  0.00    -0.040 A 
ATOM     48  C   UNL A   1      46.203 -18.967 -40.844  0.00  0.00    +0.035 A 
ATOM     49  C   UNL A   1      46.471 -20.296 -41.246  0.00  0.00    -0.026 A 
ATOM     50  C   UNL A   1      47.650 -21.038 -40.664  0.00  0.00    -0.038 C 
ENDBRANCH  41  48
ENDBRANCH  35  41
ENDBRANCH  31  40
ENDBRANCH  30  33
ENDBRANCH  29  30
ENDBRANCH   1  29
TORSDOF 16
ENDMDL
MODEL 3
REMARK VINA RESULT:    -7.047      1.821      3.661
REMARK INTER + INTRA:         -18.691
REMARK INTER:                 -13.770
REMARK INTRA:                  -4.921
REMARK UNBOUND:                -5.053
REMARK  Name = cpd42.pdb
REMARK  18 active torsions:
REMARK  status: ('A' for Active; 'I' for Inactive)
REMARK    1  A    between atoms: C_1  and  C_2
REMARK    2  A    between atoms: C_6  and  N_7
REMARK    3  A    between atoms: N_7  and  C_8
REMARK    4  A    between atoms: C_13  and  C_14
REMARK    5  A    between atoms: N_16  and  C_17
REMARK    6  A    between atoms: C_17  and  C_18
REMARK    7  A    between atoms: C_18  and  C_19
REMARK    8  A    between atoms: N_21  and  C_22
REMARK    9  A    between atoms: C_22  and  C_23
REMARK   10  A    between atoms: C_23  and  C_24
REMARK   11  A    between atoms: C_24  and  C_25
REMARK   12  A    between atoms: C_25  and  C_26
REMARK   13  A    between atoms: C_26  and  C_27
REMARK   14  A    between atoms: C_27  and  C_28
REMARK   15  A    between atoms: C_28  and  C_29
REMARK   16  A    between atoms: C_29  and  N_30
REMARK   17  A    between atoms: N_30  and  C_31
REMARK   18  A    between atoms: C_45  and  C_46
REMARK                            x       y       z     vdW  Elec       q    Type
REMARK                         _______ _______ _______ _____ _____    ______ ____
ROOT
ATOM      1  C   UNL A   1      42.414 -18.632 -34.744  0.00  0.00    +0.215 C 
ATOM      2  O   UNL A   1      43.151 -17.897 -34.098  0.00  0.00    -0.276 OA
ATOM      3  N   UNL A   1      41.567 -19.560 -34.180  0.00  0.00    -0.315 N 
ATOM      4  H   UNL A   1      41.016 -20.120 -34.773  0.00  0.00    +0.000 HD
ENDROOT
BRANCH   3   5
ATOM      5  C   UNL A   1      41.456 -19.743 -32.745  0.00  0.00    +0.012 C 
BRANCH   5   6
ATOM      6  C   UNL A   1      40.237 -19.023 -32.167  0.00  0.00    -0.037 C 
BRANCH   6   7
ATOM      7  C   UNL A   1      39.360 -18.306 -33.200  0.00  0.00    -0.052 C 
BRANCH   7   8
ATOM      8  C   UNL A   1      37.877 -18.291 -32.816  0.00  0.00    -0.053 C 
BRANCH   8   9
ATOM      9  C   UNL A   1      37.016 -17.696 -33.933  0.00  0.00    -0.053 C 
BRANCH   9  10
ATOM     10  C   UNL A   1      37.832 -17.263 -35.157  0.00  0.00    -0.052 C 
BRANCH  10  11
ATOM     11  C   UNL A   1      37.354 -17.913 -36.457  0.00  0.00    -0.037 C 
BRANCH  11  12
ATOM     12  C   UNL A   1      38.511 -18.549 -37.230  0.00  0.00    +0.009 C 
BRANCH  12  13
ATOM     13  N   UNL A   1      38.148 -19.937 -37.549  0.00  0.00    -0.343 N 
ATOM     14  H   UNL A   1      37.311 -20.198 -37.997  0.00  0.00    +0.000 HD
BRANCH  13  15
ATOM     15  C   UNL A   1      39.151 -20.861 -37.133  0.00  0.00    +0.041 A 
ATOM     16  C   UNL A   1      40.185 -21.178 -38.037  0.00  0.00    -0.005 A 
ATOM     17  C   UNL A   1      41.148 -22.100 -37.624  0.00  0.00    +0.047 A 
ATOM     18  N   UNL A   1      41.103 -22.730 -36.426  0.00  0.00    -0.251 NA
ATOM     19  C   UNL A   1      40.106 -22.445 -35.578  0.00  0.00    +0.073 A 
ATOM     20  C   UNL A   1      40.090 -23.105 -34.356  0.00  0.00    -0.036 A 
ATOM     21  C   UNL A   1      39.093 -22.880 -33.406  0.00  0.00    -0.060 A 
ATOM     22  C   UNL A   1      38.081 -21.974 -33.678  0.00  0.00    -0.061 A 
ATOM     23  C   UNL A   1      38.076 -21.298 -34.899  0.00  0.00    -0.051 A 
ATOM     24  C   UNL A   1      39.087 -21.518 -35.871  0.00  0.00    +0.021 A 
ATOM     25  C   UNL A   1      42.293 -22.503 -38.517  0.00  0.00    -0.010 C 
ATOM     26  C   UNL A   1      42.586 -21.487 -39.615  0.00  0.00    -0.047 C 
ATOM     27  C   UNL A   1      41.297 -21.113 -40.329  0.00  0.00    -0.049 C 
ATOM     28  C   UNL A   1      40.317 -20.457 -39.358  0.00  0.00    -0.024 C 
ENDBRANCH  13  15
ENDBRANCH  12  13
ENDBRANCH  11  12
ENDBRANCH  10  11
ENDBRANCH   9  10
ENDBRANCH   8   9
ENDBRANCH   7   8
ENDBRANCH   6   7
ENDBRANCH   5   6
ENDBRANCH   3   5
BRANCH   1  29
ATOM     29  C   UNL A   1      42.400 -18.627 -36.255  0.00  0.00    +0.039 C 
BRANCH  29  30
ATOM     30  C   UNL A   1      43.710 -18.073 -36.797  0.00  0.00    +0.020 C 
BRANCH  30  33
ATOM     31  C   UNL A   1      46.180 -18.646 -36.596  0.00  0.00    +0.246 C 
ATOM     32  O   UNL A   1      46.969 -19.541 -36.300  0.00  0.00    -0.270 OA
ATOM     33  N   UNL A   1      44.866 -18.729 -36.201  0.00  0.00    -0.311 N 
ATOM     34  H   UNL A   1      44.684 -19.299 -35.419  0.00  0.00    +0.000 HD
BRANCH  31  40
ATOM     35  C   UNL A   1      47.021 -17.682 -38.748  0.00  0.00    +0.044 A 
ATOM     36  C   UNL A   1      47.389 -16.544 -39.486  0.00  0.00    -0.040 A 
ATOM     37  C   UNL A   1      47.498 -15.290 -38.880  0.00  0.00    -0.060 A 
ATOM     38  C   UNL A   1      47.219 -15.141 -37.524  0.00  0.00    -0.061 A 
ATOM     39  C   UNL A   1      46.795 -16.240 -36.782  0.00  0.00    -0.048 A 
ATOM     40  C   UNL A   1      46.653 -17.494 -37.399  0.00  0.00    +0.058 A 
BRANCH  35  41
ATOM     41  N   UNL A   1      46.874 -18.947 -39.384  0.00  0.00    -0.314 N 
ATOM     42  H   UNL A   1      47.459 -19.671 -39.063  0.00  0.00    +0.000 HD
BRANCH  41  48
ATOM     43  C   UNL A   1      45.228 -22.184 -42.832  0.00  0.00    -0.039 C 
ATOM     44  C   UNL A   1      45.205 -20.843 -42.150  0.00  0.00    -0.046 A 
ATOM     45  C   UNL A   1      44.319 -19.864 -42.624  0.00  0.00    -0.058 A 
ATOM     46  C   UNL A   1      44.272 -18.603 -42.037  0.00  0.00    -0.060 A 
ATOM     47  C   UNL A   1      45.100 -18.311 -40.957  0.00  0.00    -0.040 A 
ATOM     48  C   UNL A   1      45.973 -19.279 -40.434  0.00  0.00    +0.035 A 
ATOM     49  C   UNL A   1      46.072 -20.537 -41.073  0.00  0.00    -0.026 A 
ATOM     50  C   UNL A   1      47.034 -21.576 -40.549  0.00  0.00    -0.038 C 
ENDBRANCH  41  48
ENDBRANCH  35  41
ENDBRANCH  31  40
ENDBRANCH  30  33
ENDBRANCH  29  30
ENDBRANCH   1  29
TORSDOF 16
ENDMDL
MODEL 4
REMARK VINA RESULT:    -7.031      1.938      4.353
REMARK INTER + INTRA:         -18.661
REMARK INTER:                 -13.225
REMARK INTRA:                  -5.436
REMARK UNBOUND:                -5.053
REMARK  Name = cpd42.pdb
REMARK  18 active torsions:
REMARK  status: ('A' for Active; 'I' for Inactive)
REMARK    1  A    between atoms: C_1  and  C_2
REMARK    2  A    between atoms: C_6  and  N_7
REMARK    3  A    between atoms: N_7  and  C_8
REMARK    4  A    between atoms: C_13  and  C_14
REMARK    5  A    between atoms: N_16  and  C_17
REMARK    6  A    between atoms: C_17  and  C_18
REMARK    7  A    between atoms: C_18  and  C_19
REMARK    8  A    between atoms: N_21  and  C_22
REMARK    9  A    between atoms: C_22  and  C_23
REMARK   10  A    between atoms: C_23  and  C_24
REMARK   11  A    between atoms: C_24  and  C_25
REMARK   12  A    between atoms: C_25  and  C_26
REMARK   13  A    between atoms: C_26  and  C_27
REMARK   14  A    between atoms: C_27  and  C_28
REMARK   15  A    between atoms: C_28  and  C_29
REMARK   16  A    between atoms: C_29  and  N_30
REMARK   17  A    between atoms: N_30  and  C_31
REMARK   18  A    between atoms: C_45  and  C_46
REMARK                            x       y       z     vdW  Elec       q    Type
REMARK                         _______ _______ _______ _____ _____    ______ ____
ROOT
ATOM      1  C   UNL A   1      44.346 -19.607 -34.497  0.00  0.00    +0.215 C 
ATOM      2  O   UNL A   1      45.334 -20.146 -34.013  0.00  0.00    -0.276 OA
ATOM      3  N   UNL A   1      43.724 -18.508 -33.949  0.00  0.00    -0.315 N 
ATOM      4  H   UNL A   1      42.926 -18.143 -34.397  0.00  0.00    +0.000 HD
ENDROOT
BRANCH   3   5
ATOM      5  C   UNL A   1      44.197 -17.867 -32.737  0.00  0.00    +0.012 C 
BRANCH   5   6
ATOM      6  C   UNL A   1      44.366 -16.358 -32.912  0.00  0.00    -0.037 C 
BRANCH   6   7
ATOM      7  C   UNL A   1      44.160 -15.847 -34.343  0.00  0.00    -0.052 C 
BRANCH   7   8
ATOM      8  C   UNL A   1      43.085 -14.761 -34.440  0.00  0.00    -0.053 C 
BRANCH   8   9
ATOM      9  C   UNL A   1      41.695 -15.322 -34.126  0.00  0.00    -0.053 C 
BRANCH   9  10
ATOM     10  C   UNL A   1      41.145 -16.225 -35.236  0.00  0.00    -0.052 C 
BRANCH  10  11
ATOM     11  C   UNL A   1      39.907 -17.016 -34.808  0.00  0.00    -0.037 C 
BRANCH  11  12
ATOM     12  C   UNL A   1      40.140 -18.525 -34.904  0.00  0.00    +0.009 C 
BRANCH  12  13
ATOM     13  N   UNL A   1      39.272 -19.063 -35.960  0.00  0.00    -0.343 N 
ATOM     14  H   UNL A   1      38.561 -18.546 -36.404  0.00  0.00    +0.000 HD
BRANCH  13  15
ATOM     15  C   UNL A   1      39.581 -20.420 -36.268  0.00  0.00    +0.041 A 
ATOM     16  C   UNL A   1      39.081 -21.429 -35.421  0.00  0.00    -0.005 A 
ATOM     17  C   UNL A   1      39.408 -22.752 -35.722  0.00  0.00    +0.047 A 
ATOM     18  N   UNL A   1      40.216 -23.097 -36.752  0.00  0.00    -0.251 NA
ATOM     19  C   UNL A   1      40.710 -22.135 -37.543  0.00  0.00    +0.073 A 
ATOM     20  C   UNL A   1      41.533 -22.522 -38.593  0.00  0.00    -0.036 A 
ATOM     21  C   UNL A   1      42.099 -21.596 -39.470  0.00  0.00    -0.060 A 
ATOM     22  C   UNL A   1      41.842 -20.245 -39.297  0.00  0.00    -0.061 A 
ATOM     23  C   UNL A   1      41.018 -19.832 -38.249  0.00  0.00    -0.051 A 
ATOM     24  C   UNL A   1      40.436 -20.766 -37.353  0.00  0.00    +0.021 A 
ATOM     25  C   UNL A   1      38.920 -23.900 -34.877  0.00  0.00    -0.010 C 
ATOM     26  C   UNL A   1      37.688 -23.557 -34.048  0.00  0.00    -0.047 C 
ATOM     27  C   UNL A   1      37.913 -22.248 -33.308  0.00  0.00    -0.049 C 
ATOM     28  C   UNL A   1      38.124 -21.103 -34.297  0.00  0.00    -0.024 C 
ENDBRANCH  13  15
ENDBRANCH  12  13
ENDBRANCH  11  12
ENDBRANCH  10  11
ENDBRANCH   9  10
ENDBRANCH   8   9
ENDBRANCH   7   8
ENDBRANCH   6   7
ENDBRANCH   5   6
ENDBRANCH   3   5
BRANCH   1  29
ATOM     29  C   UNL A   1      43.672 -20.137 -35.742  0.00  0.00    +0.039 C 
BRANCH  29  30
ATOM     30  C   UNL A   1      44.671 -20.231 -36.888  0.00  0.00    +0.020 C 
BRANCH  30  33
ATOM     31  C   UNL A   1      45.803 -18.095 -37.679  0.00  0.00    +0.246 C 
ATOM     32  O   UNL A   1      46.890 -17.531 -37.786  0.00  0.00    -0.270 OA
ATOM     33  N   UNL A   1      45.665 -19.168 -36.831  0.00  0.00    -0.311 N 
ATOM     34  H   UNL A   1      46.317 -19.225 -36.096  0.00  0.00    +0.000 HD
BRANCH  31  40
ATOM     35  C   UNL A   1      44.655 -17.817 -39.887  0.00  0.00    +0.044 A 
ATOM     36  C   UNL A   1      43.509 -17.422 -40.598  0.00  0.00    -0.040 A 
ATOM     37  C   UNL A   1      42.455 -16.759 -39.965  0.00  0.00    -0.060 A 
ATOM     38  C   UNL A   1      42.512 -16.497 -38.599  0.00  0.00    -0.061 A 
ATOM     39  C   UNL A   1      43.610 -16.930 -37.859  0.00  0.00    -0.048 A 
ATOM     40  C   UNL A   1      44.655 -17.625 -38.489  0.00  0.00    +0.058 A 
BRANCH  35  41
ATOM     41  N   UNL A   1      45.705 -18.527 -40.534  0.00  0.00    -0.314 N 
ATOM     42  H   UNL A   1      46.604 -18.130 -40.478  0.00  0.00    +0.000 HD
BRANCH  41  48
ATOM     43  C   UNL A   1      47.079 -23.292 -41.231  0.00  0.00    -0.039 C 
ATOM     44  C   UNL A   1      46.308 -22.061 -41.623  0.00  0.00    -0.046 A 
ATOM     45  C   UNL A   1      45.521 -22.101 -42.783  0.00  0.00    -0.058 A 
ATOM     46  C   UNL A   1      44.803 -20.983 -43.195  0.00  0.00    -0.060 A 
ATOM     47  C   UNL A   1      44.849 -19.814 -42.441  0.00  0.00    -0.040 A 
ATOM     48  C   UNL A   1      45.597 -19.750 -41.254  0.00  0.00    +0.035 A 
ATOM     49  C   UNL A   1      46.383 -20.862 -40.872  0.00  0.00    -0.026 A 
ATOM     50  C   UNL A   1      47.225 -20.797 -39.620  0.00  0.00    -0.038 C 
ENDBRANCH  41  48
ENDBRANCH  35  41
ENDBRANCH  31  40
ENDBRANCH  30  33
ENDBRANCH  29  30
ENDBRANCH   1  29
TORSDOF 16
ENDMDL
MODEL 5
REMARK VINA RESULT:    -6.964      2.032      3.828
REMARK INTER + INTRA:         -18.532
REMARK INTER:                 -12.797
REMARK INTRA:                  -5.735
REMARK UNBOUND:                -5.053
REMARK  Name = cpd42.pdb
REMARK  18 active torsions:
REMARK  status: ('A' for Active; 'I' for Inactive)
REMARK    1  A    between atoms: C_1  and  C_2
REMARK    2  A    between atoms: C_6  and  N_7
REMARK    3  A    between atoms: N_7  and  C_8
REMARK    4  A    between atoms: C_13  and  C_14
REMARK    5  A    between atoms: N_16  and  C_17
REMARK    6  A    between atoms: C_17  and  C_18
REMARK    7  A    between atoms: C_18  and  C_19
REMARK    8  A    between atoms: N_21  and  C_22
REMARK    9  A    between atoms: C_22  and  C_23
REMARK   10  A    between atoms: C_23  and  C_24
REMARK   11  A    between atoms: C_24  and  C_25
REMARK   12  A    between atoms: C_25  and  C_26
REMARK   13  A    between atoms: C_26  and  C_27
REMARK   14  A    between atoms: C_27  and  C_28
REMARK   15  A    between atoms: C_28  and  C_29
REMARK   16  A    between atoms: C_29  and  N_30
REMARK   17  A    between atoms: N_30  and  C_31
REMARK   18  A    between atoms: C_45  and  C_46
REMARK                            x       y       z     vdW  Elec       q    Type
REMARK                         _______ _______ _______ _____ _____    ______ ____
ROOT
ATOM      1  C   UNL A   1      44.280 -19.175 -34.207  0.00  0.00    +0.215 C 
ATOM      2  O   UNL A   1      45.357 -19.542 -33.752  0.00  0.00    -0.276 OA
ATOM      3  N   UNL A   1      43.612 -18.047 -33.785  0.00  0.00    -0.315 N 
ATOM      4  H   UNL A   1      42.744 -17.830 -34.196  0.00  0.00    +0.000 HD
ENDROOT
BRANCH   3   5
ATOM      5  C   UNL A   1      44.139 -17.167 -32.760  0.00  0.00    +0.012 C 
BRANCH   5   6
ATOM      6  C   UNL A   1      44.171 -15.708 -33.216  0.00  0.00    -0.037 C 
BRANCH   6   7
ATOM      7  C   UNL A   1      43.074 -15.318 -34.214  0.00  0.00    -0.052 C 
BRANCH   7   8
ATOM      8  C   UNL A   1      41.958 -14.485 -33.577  0.00  0.00    -0.053 C 
BRANCH   8   9
ATOM      9  C   UNL A   1      40.670 -15.299 -33.425  0.00  0.00    -0.053 C 
BRANCH   9  10
ATOM     10  C   UNL A   1      40.126 -15.822 -34.760  0.00  0.00    -0.052 C 
BRANCH  10  11
ATOM     11  C   UNL A   1      39.730 -17.298 -34.710  0.00  0.00    -0.037 C 
BRANCH  11  12
ATOM     12  C   UNL A   1      40.462 -18.116 -35.776  0.00  0.00    +0.009 C 
BRANCH  12  13
ATOM     13  N   UNL A   1      39.464 -18.858 -36.558  0.00  0.00    -0.343 N 
ATOM     14  H   UNL A   1      38.688 -18.441 -36.997  0.00  0.00    +0.000 HD
BRANCH  13  15
ATOM     15  C   UNL A   1      39.750 -20.254 -36.605  0.00  0.00    +0.041 A 
ATOM     16  C   UNL A   1      40.580 -20.733 -37.639  0.00  0.00    -0.005 A 
ATOM     17  C   UNL A   1      40.836 -22.104 -37.685  0.00  0.00    +0.047 A 
ATOM     18  N   UNL A   1      40.287 -22.987 -36.818  0.00  0.00    -0.251 NA
ATOM     19  C   UNL A   1      39.479 -22.534 -35.850  0.00  0.00    +0.073 A 
ATOM     20  C   UNL A   1      38.934 -23.465 -34.975  0.00  0.00    -0.036 A 
ATOM     21  C   UNL A   1      38.080 -23.093 -33.936  0.00  0.00    -0.060 A 
ATOM     22  C   UNL A   1      37.755 -21.757 -33.763  0.00  0.00    -0.061 A 
ATOM     23  C   UNL A   1      38.289 -20.803 -34.630  0.00  0.00    -0.051 A 
ATOM     24  C   UNL A   1      39.161 -21.171 -35.688  0.00  0.00    +0.021 A 
ATOM     25  C   UNL A   1      41.711 -22.710 -38.751  0.00  0.00    -0.010 C 
ATOM     26  C   UNL A   1      42.657 -21.706 -39.398  0.00  0.00    -0.047 C 
ATOM     27  C   UNL A   1      41.883 -20.463 -39.813  0.00  0.00    -0.049 C 
ATOM     28  C   UNL A   1      41.268 -19.782 -38.592  0.00  0.00    -0.024 C 
ENDBRANCH  13  15
ENDBRANCH  12  13
ENDBRANCH  11  12
ENDBRANCH  10  11
ENDBRANCH   9  10
ENDBRANCH   8   9
ENDBRANCH   7   8
ENDBRANCH   6   7
ENDBRANCH   5   6
ENDBRANCH   3   5
BRANCH   1  29
ATOM     29  C   UNL A   1      43.542 -19.968 -35.260  0.00  0.00    +0.039 C 
BRANCH  29  30
ATOM     30  C   UNL A   1      44.386 -20.091 -36.521  0.00  0.00    +0.020 C 
BRANCH  30  33
ATOM     31  C   UNL A   1      45.727 -18.122 -37.411  0.00  0.00    +0.246 C 
ATOM     32  O   UNL A   1      46.867 -17.688 -37.567  0.00  0.00    -0.270 OA
ATOM     33  N   UNL A   1      45.496 -19.148 -36.527  0.00  0.00    -0.311 N 
ATOM     34  H   UNL A   1      46.162 -19.260 -35.809  0.00  0.00    +0.000 HD
BRANCH  31  40
ATOM     35  C   UNL A   1      44.612 -17.668 -39.607  0.00  0.00    +0.044 A 
ATOM     36  C   UNL A   1      43.496 -17.171 -40.301  0.00  0.00    -0.040 A 
ATOM     37  C   UNL A   1      42.478 -16.479 -39.639  0.00  0.00    -0.060 A 
ATOM     38  C   UNL A   1      42.543 -16.287 -38.262  0.00  0.00    -0.061 A 
ATOM     39  C   UNL A   1      43.608 -16.820 -37.541  0.00  0.00    -0.048 A 
ATOM     40  C   UNL A   1      44.614 -17.545 -38.201  0.00  0.00    +0.058 A 
BRANCH  35  41
ATOM     41  N   UNL A   1      45.622 -18.407 -40.284  0.00  0.00    -0.314 N 
ATOM     42  H   UNL A   1      46.540 -18.055 -40.223  0.00  0.00    +0.000 HD
BRANCH  41  48
ATOM     43  C   UNL A   1      46.743 -23.214 -41.126  0.00  0.00    -0.039 C 
ATOM     44  C   UNL A   1      46.039 -21.933 -41.480  0.00  0.00    -0.046 A 
ATOM     45  C   UNL A   1      45.252 -21.896 -42.641  0.00  0.00    -0.058 A 
ATOM     46  C   UNL A   1      44.595 -20.729 -43.018  0.00  0.00    -0.060 A 
ATOM     47  C   UNL A   1      44.701 -19.588 -42.229  0.00  0.00    -0.040 A 
ATOM     48  C   UNL A   1      45.450 -19.600 -41.041  0.00  0.00    +0.035 A 
ATOM     49  C   UNL A   1      46.176 -20.763 -40.694  0.00  0.00    -0.026 A 
ATOM     50  C   UNL A   1      47.019 -20.780 -39.441  0.00  0.00    -0.038 C 
ENDBRANCH  41  48
ENDBRANCH  35  41
ENDBRANCH  31  40
ENDBRANCH  30  33
ENDBRANCH  29  30
ENDBRANCH   1  29
TORSDOF 16
ENDMDL
MODEL 6
REMARK VINA RESULT:    -6.951      2.495      8.350
REMARK INTER + INTRA:         -18.506
REMARK INTER:                 -12.401
REMARK INTRA:                  -6.105
REMARK UNBOUND:                -5.053
REMARK  Name = cpd42.pdb
REMARK  18 active torsions:
REMARK  status: ('A' for Active; 'I' for Inactive)
REMARK    1  A    between atoms: C_1  and  C_2
REMARK    2  A    between atoms: C_6  and  N_7
REMARK    3  A    between atoms: N_7  and  C_8
REMARK    4  A    between atoms: C_13  and  C_14
REMARK    5  A    between atoms: N_16  and  C_17
REMARK    6  A    between atoms: C_17  and  C_18
REMARK    7  A    between atoms: C_18  and  C_19
REMARK    8  A    between atoms: N_21  and  C_22
REMARK    9  A    between atoms: C_22  and  C_23
REMARK   10  A    between atoms: C_23  and  C_24
REMARK   11  A    between atoms: C_24  and  C_25
REMARK   12  A    between atoms: C_25  and  C_26
REMARK   13  A    between atoms: C_26  and  C_27
REMARK   14  A    between atoms: C_27  and  C_28
REMARK   15  A    between atoms: C_28  and  C_29
REMARK   16  A    between atoms: C_29  and  N_30
REMARK   17  A    between atoms: N_30  and  C_31
REMARK   18  A    between atoms: C_45  and  C_46
REMARK                            x       y       z     vdW  Elec       q    Type
REMARK                         _______ _______ _______ _____ _____    ______ ____
ROOT
ATOM      1  C   UNL A   1      40.728 -21.912 -37.355  0.00  0.00    +0.215 C 
ATOM      2  O   UNL A   1      39.603 -21.427 -37.382  0.00  0.00    -0.276 OA
ATOM      3  N   UNL A   1      41.605 -21.880 -38.415  0.00  0.00    -0.315 N 
ATOM      4  H   UNL A   1      42.487 -22.305 -38.314  0.00  0.00    +0.000 HD
ENDROOT
BRANCH   3   5
ATOM      5  C   UNL A   1      41.279 -21.244 -39.678  0.00  0.00    +0.012 C 
BRANCH   5   6
ATOM      6  C   UNL A   1      41.730 -19.783 -39.719  0.00  0.00    -0.037 C 
BRANCH   6   7
ATOM      7  C   UNL A   1      43.239 -19.578 -39.892  0.00  0.00    -0.052 C 
BRANCH   7   8
ATOM      8  C   UNL A   1      43.581 -18.540 -40.965  0.00  0.00    -0.053 C 
BRANCH   8   9
ATOM      9  C   UNL A   1      43.860 -17.167 -40.346  0.00  0.00    -0.053 C 
BRANCH   9  10
ATOM     10  C   UNL A   1      44.623 -16.226 -41.285  0.00  0.00    -0.052 C 
BRANCH  10  11
ATOM     11  C   UNL A   1      46.031 -15.893 -40.787  0.00  0.00    -0.037 C 
BRANCH  11  12
ATOM     12  C   UNL A   1      46.237 -16.334 -39.337  0.00  0.00    +0.009 C 
BRANCH  12  13
ATOM     13  N   UNL A   1      47.385 -17.250 -39.289  0.00  0.00    -0.343 N 
ATOM     14  H   UNL A   1      48.294 -17.008 -39.580  0.00  0.00    +0.000 HD
BRANCH  13  15
ATOM     15  C   UNL A   1      47.028 -18.529 -38.772  0.00  0.00    +0.041 A 
ATOM     16  C   UNL A   1      46.823 -19.586 -39.682  0.00  0.00    -0.005 A 
ATOM     17  C   UNL A   1      46.454 -20.828 -39.162  0.00  0.00    +0.047 A 
ATOM     18  N   UNL A   1      46.240 -21.044 -37.843  0.00  0.00    -0.251 NA
ATOM     19  C   UNL A   1      46.412 -20.032 -36.982  0.00  0.00    +0.073 A 
ATOM     20  C   UNL A   1      46.188 -20.286 -35.635  0.00  0.00    -0.036 A 
ATOM     21  C   UNL A   1      46.338 -19.299 -34.660  0.00  0.00    -0.060 A 
ATOM     22  C   UNL A   1      46.719 -18.020 -35.035  0.00  0.00    -0.061 A 
ATOM     23  C   UNL A   1      46.950 -17.741 -36.382  0.00  0.00    -0.051 A 
ATOM     24  C   UNL A   1      46.803 -18.738 -37.381  0.00  0.00    +0.021 A 
ATOM     25  C   UNL A   1      46.213 -22.018 -40.054  0.00  0.00    -0.010 C 
ATOM     26  C   UNL A   1      46.885 -21.896 -41.417  0.00  0.00    -0.047 C 
ATOM     27  C   UNL A   1      46.564 -20.542 -42.030  0.00  0.00    -0.049 C 
ATOM     28  C   UNL A   1      47.110 -19.415 -41.156  0.00  0.00    -0.024 C 
ENDBRANCH  13  15
ENDBRANCH  12  13
ENDBRANCH  11  12
ENDBRANCH  10  11
ENDBRANCH   9  10
ENDBRANCH   8   9
ENDBRANCH   7   8
ENDBRANCH   6   7
ENDBRANCH   5   6
ENDBRANCH   3   5
BRANCH   1  29
ATOM     29  C   UNL A   1      41.254 -22.652 -36.146  0.00  0.00    +0.039 C 
BRANCH  29  30
ATOM     30  C   UNL A   1      40.114 -22.997 -35.197  0.00  0.00    +0.020 C 
BRANCH  30  33
ATOM     31  C   UNL A   1      40.676 -22.165 -32.860  0.00  0.00    +0.246 C 
ATOM     32  O   UNL A   1      41.451 -22.309 -31.917  0.00  0.00    -0.270 OA
ATOM     33  N   UNL A   1      40.576 -23.141 -33.823  0.00  0.00    -0.311 N 
ATOM     34  H   UNL A   1      40.849 -24.047 -33.551  0.00  0.00    +0.000 HD
BRANCH  31  40
ATOM     35  C   UNL A   1      40.470 -19.737 -33.436  0.00  0.00    +0.044 A 
ATOM     36  C   UNL A   1      39.646 -18.609 -33.585  0.00  0.00    -0.040 A 
ATOM     37  C   UNL A   1      38.312 -18.625 -33.171  0.00  0.00    -0.060 A 
ATOM     38  C   UNL A   1      37.764 -19.780 -32.619  0.00  0.00    -0.061 A 
ATOM     39  C   UNL A   1      38.542 -20.931 -32.514  0.00  0.00    -0.048 A 
ATOM     40  C   UNL A   1      39.873 -20.924 -32.961  0.00  0.00    +0.058 A 
BRANCH  35  41
ATOM     41  N   UNL A   1      41.816 -19.722 -33.899  0.00  0.00    -0.314 N 
ATOM     42  H   UNL A   1      42.380 -20.485 -33.634  0.00  0.00    +0.000 HD
BRANCH  41  48
ATOM     43  C   UNL A   1      44.272 -15.377 -34.304  0.00  0.00    -0.039 C 
ATOM     44  C   UNL A   1      43.590 -16.578 -34.900  0.00  0.00    -0.046 A 
ATOM     45  C   UNL A   1      43.494 -16.673 -36.297  0.00  0.00    -0.058 A 
ATOM     46  C   UNL A   1      42.858 -17.756 -36.894  0.00  0.00    -0.060 A 
ATOM     47  C   UNL A   1      42.325 -18.769 -36.103  0.00  0.00    -0.040 A 
ATOM     48  C   UNL A   1      42.436 -18.725 -34.704  0.00  0.00    +0.035 A 
ATOM     49  C   UNL A   1      43.019 -17.591 -34.092  0.00  0.00    -0.026 A 
ATOM     50  C   UNL A   1      43.110 -17.509 -32.587  0.00  0.00    -0.038 C 
ENDBRANCH  41  48
ENDBRANCH  35  41
ENDBRANCH  31  40
ENDBRANCH  30  33
ENDBRANCH  29  30
ENDBRANCH   1  29
TORSDOF 16
ENDMDL
MODEL 7
REMARK VINA RESULT:    -6.930      1.831      4.318
REMARK INTER + INTRA:         -18.465
REMARK INTER:                 -13.580
REMARK INTRA:                  -4.885
REMARK UNBOUND:                -5.053
REMARK  Name = cpd42.pdb
REMARK  18 active torsions:
REMARK  status: ('A' for Active; 'I' for Inactive)
REMARK    1  A    between atoms: C_1  and  C_2
REMARK    2  A    between atoms: C_6  and  N_7
REMARK    3  A    between atoms: N_7  and  C_8
REMARK    4  A    between atoms: C_13  and  C_14
REMARK    5  A    between atoms: N_16  and  C_17
REMARK    6  A    between atoms: C_17  and  C_18
REMARK    7  A    between atoms: C_18  and  C_19
REMARK    8  A    between atoms: N_21  and  C_22
REMARK    9  A    between atoms: C_22  and  C_23
REMARK   10  A    between atoms: C_23  and  C_24
REMARK   11  A    between atoms: C_24  and  C_25
REMARK   12  A    between atoms: C_25  and  C_26
REMARK   13  A    between atoms: C_26  and  C_27
REMARK   14  A    between atoms: C_27  and  C_28
REMARK   15  A    between atoms: C_28  and  C_29
REMARK   16  A    between atoms: C_29  and  N_30
REMARK   17  A    between atoms: N_30  and  C_31
REMARK   18  A    between atoms: C_45  and  C_46
REMARK                            x       y       z     vdW  Elec       q    Type
REMARK                         _______ _______ _______ _____ _____    ______ ____
ROOT
ATOM      1  C   UNL A   1      42.361 -18.668 -34.716  0.00  0.00    +0.215 C 
ATOM      2  O   UNL A   1      43.071 -17.954 -34.019  0.00  0.00    -0.276 OA
ATOM      3  N   UNL A   1      41.535 -19.651 -34.218  0.00  0.00    -0.315 N 
ATOM      4  H   UNL A   1      41.005 -20.189 -34.849  0.00  0.00    +0.000 HD
ENDROOT
BRANCH   3   5
ATOM      5  C   UNL A   1      41.416 -19.923 -32.798  0.00  0.00    +0.012 C 
BRANCH   5   6
ATOM      6  C   UNL A   1      40.231 -19.190 -32.169  0.00  0.00    -0.037 C 
BRANCH   6   7
ATOM      7  C   UNL A   1      39.390 -18.362 -33.148  0.00  0.00    -0.052 C 
BRANCH   7   8
ATOM      8  C   UNL A   1      37.913 -18.285 -32.749  0.00  0.00    -0.053 C 
BRANCH   8   9
ATOM      9  C   UNL A   1      37.075 -17.606 -33.835  0.00  0.00    -0.053 C 
BRANCH   9  10
ATOM     10  C   UNL A   1      37.893 -17.213 -35.070  0.00  0.00    -0.052 C 
BRANCH  10  11
ATOM     11  C   UNL A   1      37.377 -17.852 -36.361  0.00  0.00    -0.037 C 
BRANCH  11  12
ATOM     12  C   UNL A   1      38.494 -18.566 -37.124  0.00  0.00    +0.009 C 
BRANCH  12  13
ATOM     13  N   UNL A   1      38.066 -19.946 -37.392  0.00  0.00    -0.343 N 
ATOM     14  H   UNL A   1      37.178 -20.188 -37.742  0.00  0.00    +0.000 HD
BRANCH  13  15
ATOM     15  C   UNL A   1      39.086 -20.892 -37.084  0.00  0.00    +0.041 A 
ATOM     16  C   UNL A   1      39.037 -21.548 -35.837  0.00  0.00    -0.005 A 
ATOM     17  C   UNL A   1      40.053 -22.457 -35.541  0.00  0.00    +0.047 A 
ATOM     18  N   UNL A   1      41.097 -22.694 -36.369  0.00  0.00    -0.251 NA
ATOM     19  C   UNL A   1      41.156 -22.052 -37.543  0.00  0.00    +0.073 A 
ATOM     20  C   UNL A   1      42.238 -22.320 -38.372  0.00  0.00    -0.036 A 
ATOM     21  C   UNL A   1      42.391 -21.701 -39.613  0.00  0.00    -0.060 A 
ATOM     22  C   UNL A   1      41.442 -20.786 -40.043  0.00  0.00    -0.061 A 
ATOM     23  C   UNL A   1      40.346 -20.501 -39.228  0.00  0.00    -0.051 A 
ATOM     24  C   UNL A   1      40.180 -21.127 -37.964  0.00  0.00    +0.021 A 
ATOM     25  C   UNL A   1      40.087 -23.208 -34.235  0.00  0.00    -0.010 C 
ATOM     26  C   UNL A   1      38.727 -23.288 -33.551  0.00  0.00    -0.047 C 
ATOM     27  C   UNL A   1      38.096 -21.906 -33.495  0.00  0.00    -0.049 C 
ATOM     28  C   UNL A   1      37.861 -21.367 -34.905  0.00  0.00    -0.024 C 
ENDBRANCH  13  15
ENDBRANCH  12  13
ENDBRANCH  11  12
ENDBRANCH  10  11
ENDBRANCH   9  10
ENDBRANCH   8   9
ENDBRANCH   7   8
ENDBRANCH   6   7
ENDBRANCH   5   6
ENDBRANCH   3   5
BRANCH   1  29
ATOM     29  C   UNL A   1      42.359 -18.573 -36.224  0.00  0.00    +0.039 C 
BRANCH  29  30
ATOM     30  C   UNL A   1      43.695 -18.037 -36.724  0.00  0.00    +0.020 C 
BRANCH  30  33
ATOM     31  C   UNL A   1      46.140 -18.710 -36.526  0.00  0.00    +0.246 C 
ATOM     32  O   UNL A   1      46.891 -19.644 -36.255  0.00  0.00    -0.270 OA
ATOM     33  N   UNL A   1      44.820 -18.755 -36.142  0.00  0.00    -0.311 N 
ATOM     34  H   UNL A   1      44.611 -19.345 -35.382  0.00  0.00    +0.000 HD
BRANCH  31  40
ATOM     35  C   UNL A   1      47.037 -17.708 -38.638  0.00  0.00    +0.044 A 
ATOM     36  C   UNL A   1      47.452 -16.561 -39.336  0.00  0.00    -0.040 A 
ATOM     37  C   UNL A   1      47.599 -15.332 -38.688  0.00  0.00    -0.060 A 
ATOM     38  C   UNL A   1      47.311 -15.216 -37.331  0.00  0.00    -0.061 A 
ATOM     39  C   UNL A   1      46.841 -16.323 -36.629  0.00  0.00    -0.048 A 
ATOM     40  C   UNL A   1      46.661 -17.550 -37.287  0.00  0.00    +0.058 A 
BRANCH  35  41
ATOM     41  N   UNL A   1      46.851 -18.946 -39.316  0.00  0.00    -0.314 N 
ATOM     42  H   UNL A   1      47.429 -19.692 -39.034  0.00  0.00    +0.000 HD
BRANCH  41  48
ATOM     43  C   UNL A   1      45.051 -22.036 -42.821  0.00  0.00    -0.039 C 
ATOM     44  C   UNL A   1      45.078 -20.714 -42.102  0.00  0.00    -0.046 A 
ATOM     45  C   UNL A   1      44.210 -19.698 -42.529  0.00  0.00    -0.058 A 
ATOM     46  C   UNL A   1      44.210 -18.454 -41.905  0.00  0.00    -0.060 A 
ATOM     47  C   UNL A   1      45.066 -18.217 -40.834  0.00  0.00    -0.040 A 
ATOM     48  C   UNL A   1      45.921 -19.223 -40.357  0.00  0.00    +0.035 A 
ATOM     49  C   UNL A   1      45.973 -20.463 -41.034  0.00  0.00    -0.026 A 
ATOM     50  C   UNL A   1      46.916 -21.543 -40.558  0.00  0.00    -0.038 C 
ENDBRANCH  41  48
ENDBRANCH  35  41
ENDBRANCH  31  40
ENDBRANCH  30  33
ENDBRANCH  29  30
ENDBRANCH   1  29
TORSDOF 16
ENDMDL
MODEL 8
REMARK VINA RESULT:    -6.913      0.587      2.759
REMARK INTER + INTRA:         -18.432
REMARK INTER:                 -13.424
REMARK INTRA:                  -5.008
REMARK UNBOUND:                -5.053
REMARK  Name = cpd42.pdb
REMARK  18 active torsions:
REMARK  status: ('A' for Active; 'I' for Inactive)
REMARK    1  A    between atoms: C_1  and  C_2
REMARK    2  A    between atoms: C_6  and  N_7
REMARK    3  A    between atoms: N_7  and  C_8
REMARK    4  A    between atoms: C_13  and  C_14
REMARK    5  A    between atoms: N_16  and  C_17
REMARK    6  A    between atoms: C_17  and  C_18
REMARK    7  A    between atoms: C_18  and  C_19
REMARK    8  A    between atoms: N_21  and  C_22
REMARK    9  A    between atoms: C_22  and  C_23
REMARK   10  A    between atoms: C_23  and  C_24
REMARK   11  A    between atoms: C_24  and  C_25
REMARK   12  A    between atoms: C_25  and  C_26
REMARK   13  A    between atoms: C_26  and  C_27
REMARK   14  A    between atoms: C_27  and  C_28
REMARK   15  A    between atoms: C_28  and  C_29
REMARK   16  A    between atoms: C_29  and  N_30
REMARK   17  A    between atoms: N_30  and  C_31
REMARK   18  A    between atoms: C_45  and  C_46
REMARK                            x       y       z     vdW  Elec       q    Type
REMARK                         _______ _______ _______ _____ _____    ______ ____
ROOT
ATOM      1  C   UNL A   1      45.418 -18.806 -34.583  0.00  0.00    +0.215 C 
ATOM      2  O   UNL A   1      45.813 -19.921 -34.903  0.00  0.00    -0.276 OA
ATOM      3  N   UNL A   1      44.121 -18.527 -34.215  0.00  0.00    -0.315 N 
ATOM      4  H   UNL A   1      43.883 -17.600 -33.984  0.00  0.00    +0.000 HD
ENDROOT
BRANCH   3   5
ATOM      5  C   UNL A   1      43.091 -19.547 -34.154  0.00  0.00    +0.012 C 
BRANCH   5   6
ATOM      6  C   UNL A   1      42.338 -19.684 -35.477  0.00  0.00    -0.037 C 
BRANCH   6   7
ATOM      7  C   UNL A   1      42.664 -20.950 -36.278  0.00  0.00    -0.052 C 
BRANCH   7   8
ATOM      8  C   UNL A   1      43.473 -20.662 -37.546  0.00  0.00    -0.053 C 
BRANCH   8   9
ATOM      9  C   UNL A   1      42.558 -20.339 -38.731  0.00  0.00    -0.053 C 
BRANCH   9  10
ATOM     10  C   UNL A   1      42.638 -21.379 -39.855  0.00  0.00    -0.052 C 
BRANCH  10  11
ATOM     11  C   UNL A   1      41.305 -22.083 -40.117  0.00  0.00    -0.037 C 
BRANCH  11  12
ATOM     12  C   UNL A   1      40.733 -22.704 -38.842  0.00  0.00    +0.009 C 
BRANCH  12  13
ATOM     13  N   UNL A   1      39.330 -22.287 -38.711  0.00  0.00    -0.343 N 
ATOM     14  H   UNL A   1      38.597 -22.642 -39.265  0.00  0.00    +0.000 HD
BRANCH  13  15
ATOM     15  C   UNL A   1      39.155 -21.308 -37.690  0.00  0.00    +0.041 A 
ATOM     16  C   UNL A   1      39.001 -21.749 -36.360  0.00  0.00    -0.005 A 
ATOM     17  C   UNL A   1      38.810 -20.780 -35.373  0.00  0.00    +0.047 A 
ATOM     18  N   UNL A   1      38.720 -19.457 -35.643  0.00  0.00    -0.251 NA
ATOM     19  C   UNL A   1      38.843 -19.041 -36.911  0.00  0.00    +0.073 A 
ATOM     20  C   UNL A   1      38.748 -17.678 -37.156  0.00  0.00    -0.036 A 
ATOM     21  C   UNL A   1      38.860 -17.146 -38.441  0.00  0.00    -0.060 A 
ATOM     22  C   UNL A   1      39.070 -17.995 -39.516  0.00  0.00    -0.061 A 
ATOM     23  C   UNL A   1      39.168 -19.370 -39.296  0.00  0.00    -0.051 A 
ATOM     24  C   UNL A   1      39.058 -19.920 -37.992  0.00  0.00    +0.021 A 
ATOM     25  C   UNL A   1      38.637 -21.152 -33.923  0.00  0.00    -0.010 C 
ATOM     26  C   UNL A   1      39.189 -22.531 -33.584  0.00  0.00    -0.047 C 
ATOM     27  C   UNL A   1      38.676 -23.552 -34.588  0.00  0.00    -0.049 C 
ATOM     28  C   UNL A   1      39.158 -23.207 -35.997  0.00  0.00    -0.024 C 
ENDBRANCH  13  15
ENDBRANCH  12  13
ENDBRANCH  11  12
ENDBRANCH  10  11
ENDBRANCH   9  10
ENDBRANCH   8   9
ENDBRANCH   7   8
ENDBRANCH   6   7
ENDBRANCH   5   6
ENDBRANCH   3   5
BRANCH   1  29
ATOM     29  C   UNL A   1      46.322 -17.596 -34.612  0.00  0.00    +0.039 C 
BRANCH  29  30
ATOM     30  C   UNL A   1      46.518 -17.113 -36.043  0.00  0.00    +0.020 C 
BRANCH  30  33
ATOM     31  C   UNL A   1      45.096 -15.887 -37.759  0.00  0.00    +0.246 C 
ATOM     32  O   UNL A   1      44.053 -15.254 -37.911  0.00  0.00    -0.270 OA
ATOM     33  N   UNL A   1      45.266 -16.674 -36.645  0.00  0.00    -0.311 N 
ATOM     34  H   UNL A   1      44.442 -16.978 -36.200  0.00  0.00    +0.000 HD
BRANCH  31  40
ATOM     35  C   UNL A   1      46.185 -16.646 -39.881  0.00  0.00    +0.044 A 
ATOM     36  C   UNL A   1      47.183 -16.448 -40.851  0.00  0.00    -0.040 A 
ATOM     37  C   UNL A   1      48.193 -15.500 -40.670  0.00  0.00    -0.060 A 
ATOM     38  C   UNL A   1      48.216 -14.711 -39.523  0.00  0.00    -0.061 A 
ATOM     39  C   UNL A   1      47.206 -14.845 -38.573  0.00  0.00    -0.048 A 
ATOM     40  C   UNL A   1      46.172 -15.775 -38.771  0.00  0.00    +0.058 A 
BRANCH  35  41
ATOM     41  N   UNL A   1      45.138 -17.586 -40.095  0.00  0.00    -0.314 N 
ATOM     42  H   UNL A   1      44.250 -17.340 -39.747  0.00  0.00    +0.000 HD
BRANCH  41  48
ATOM     43  C   UNL A   1      46.957 -22.245 -40.322  0.00  0.00    -0.039 C 
ATOM     44  C   UNL A   1      46.165 -21.099 -40.890  0.00  0.00    -0.046 A 
ATOM     45  C   UNL A   1      45.571 -21.253 -42.152  0.00  0.00    -0.058 A 
ATOM     46  C   UNL A   1      44.842 -20.216 -42.725  0.00  0.00    -0.060 A 
ATOM     47  C   UNL A   1      44.684 -19.017 -42.036  0.00  0.00    -0.040 A 
ATOM     48  C   UNL A   1      45.234 -18.842 -40.756  0.00  0.00    +0.035 A 
ATOM     49  C   UNL A   1      46.034 -19.868 -40.202  0.00  0.00    -0.026 A 
ATOM     50  C   UNL A   1      46.666 -19.682 -38.844  0.00  0.00    -0.038 C 
ENDBRANCH  41  48
ENDBRANCH  35  41
ENDBRANCH  31  40
ENDBRANCH  30  33
ENDBRANCH  29  30
ENDBRANCH   1  29
TORSDOF 16
ENDMDL
MODEL 9
REMARK VINA RESULT:    -6.892      2.235      7.475
REMARK INTER + INTRA:         -18.392
REMARK INTER:                 -12.060
REMARK INTRA:                  -6.332
REMARK UNBOUND:                -5.053
REMARK  Name = cpd42.pdb
REMARK  18 active torsions:
REMARK  status: ('A' for Active; 'I' for Inactive)
REMARK    1  A    between atoms: C_1  and  C_2
REMARK    2  A    between atoms: C_6  and  N_7
REMARK    3  A    between atoms: N_7  and  C_8
REMARK    4  A    between atoms: C_13  and  C_14
REMARK    5  A    between atoms: N_16  and  C_17
REMARK    6  A    between atoms: C_17  and  C_18
REMARK    7  A    between atoms: C_18  and  C_19
REMARK    8  A    between atoms: N_21  and  C_22
REMARK    9  A    between atoms: C_22  and  C_23
REMARK   10  A    between atoms: C_23  and  C_24
REMARK   11  A    between atoms: C_24  and  C_25
REMARK   12  A    between atoms: C_25  and  C_26
REMARK   13  A    between atoms: C_26  and  C_27
REMARK   14  A    between atoms: C_27  and  C_28
REMARK   15  A    between atoms: C_28  and  C_29
REMARK   16  A    between atoms: C_29  and  N_30
REMARK   17  A    between atoms: N_30  and  C_31
REMARK   18  A    between atoms: C_45  and  C_46
REMARK                            x       y       z     vdW  Elec       q    Type
REMARK                         _______ _______ _______ _____ _____    ______ ____
ROOT
ATOM      1  C   UNL A   1      40.452 -21.975 -36.962  0.00  0.00    +0.215 C 
ATOM      2  O   UNL A   1      41.255 -22.770 -36.488  0.00  0.00    -0.276 OA
ATOM      3  N   UNL A   1      40.265 -21.785 -38.312  0.00  0.00    -0.315 N 
ATOM      4  H   UNL A   1      39.606 -21.116 -38.610  0.00  0.00    +0.000 HD
ENDROOT
BRANCH   3   5
ATOM      5  C   UNL A   1      41.000 -22.533 -39.315  0.00  0.00    +0.012 C 
BRANCH   5   6
ATOM      6  C   UNL A   1      42.272 -21.808 -39.755  0.00  0.00    -0.037 C 
BRANCH   6   7
ATOM      7  C   UNL A   1      42.211 -20.279 -39.656  0.00  0.00    -0.052 C 
BRANCH   7   8
ATOM      8  C   UNL A   1      43.171 -19.711 -38.606  0.00  0.00    -0.053 C 
BRANCH   8   9
ATOM      9  C   UNL A   1      44.145 -20.780 -38.102  0.00  0.00    -0.053 C 
BRANCH   9  10
ATOM     10  C   UNL A   1      45.096 -20.264 -37.016  0.00  0.00    -0.052 C 
BRANCH  10  11
ATOM     11  C   UNL A   1      46.543 -20.135 -37.498  0.00  0.00    -0.037 C 
BRANCH  11  12
ATOM     12  C   UNL A   1      46.853 -18.716 -37.979  0.00  0.00    +0.009 C 
BRANCH  12  13
ATOM     13  N   UNL A   1      47.392 -18.797 -39.344  0.00  0.00    -0.343 N 
ATOM     14  H   UNL A   1      48.353 -18.840 -39.555  0.00  0.00    +0.000 HD
BRANCH  13  15
ATOM     15  C   UNL A   1      46.360 -18.804 -40.327  0.00  0.00    +0.041 A 
ATOM     16  C   UNL A   1      45.589 -17.636 -40.498  0.00  0.00    -0.005 A 
ATOM     17  C   UNL A   1      44.569 -17.665 -41.450  0.00  0.00    +0.047 A 
ATOM     18  N   UNL A   1      44.261 -18.769 -42.171  0.00  0.00    -0.251 NA
ATOM     19  C   UNL A   1      44.979 -19.886 -41.990  0.00  0.00    +0.073 A 
ATOM     20  C   UNL A   1      44.640 -21.000 -42.747  0.00  0.00    -0.036 A 
ATOM     21  C   UNL A   1      45.325 -22.210 -42.631  0.00  0.00    -0.060 A 
ATOM     22  C   UNL A   1      46.375 -22.317 -41.733  0.00  0.00    -0.061 A 
ATOM     23  C   UNL A   1      46.734 -21.212 -40.961  0.00  0.00    -0.051 A 
ATOM     24  C   UNL A   1      46.046 -19.975 -41.074  0.00  0.00    +0.021 A 
ATOM     25  C   UNL A   1      43.693 -16.466 -41.707  0.00  0.00    -0.010 C 
ATOM     26  C   UNL A   1      44.322 -15.153 -41.257  0.00  0.00    -0.047 C 
ATOM     27  C   UNL A   1      44.843 -15.291 -39.835  0.00  0.00    -0.049 C 
ATOM     28  C   UNL A   1      45.933 -16.360 -39.766  0.00  0.00    -0.024 C 
ENDBRANCH  13  15
ENDBRANCH  12  13
ENDBRANCH  11  12
ENDBRANCH  10  11
ENDBRANCH   9  10
ENDBRANCH   8   9
ENDBRANCH   7   8
ENDBRANCH   6   7
ENDBRANCH   5   6
ENDBRANCH   3   5
BRANCH   1  29
ATOM     29  C   UNL A   1      39.609 -21.072 -36.092  0.00  0.00    +0.039 C 
BRANCH  29  30
ATOM     30  C   UNL A   1      38.518 -20.406 -36.919  0.00  0.00    +0.020 C 
BRANCH  30  33
ATOM     31  C   UNL A   1      38.324 -17.931 -36.364  0.00  0.00    +0.246 C 
ATOM     32  O   UNL A   1      38.077 -17.135 -35.461  0.00  0.00    -0.270 OA
ATOM     33  N   UNL A   1      37.951 -19.248 -36.240  0.00  0.00    -0.311 N 
ATOM     34  H   UNL A   1      37.211 -19.432 -35.617  0.00  0.00    +0.000 HD
BRANCH  31  40
ATOM     35  C   UNL A   1      40.419 -17.155 -37.494  0.00  0.00    +0.044 A 
ATOM     36  C   UNL A   1      41.071 -16.791 -38.684  0.00  0.00    -0.040 A 
ATOM     37  C   UNL A   1      40.364 -16.628 -39.879  0.00  0.00    -0.060 A 
ATOM     38  C   UNL A   1      38.991 -16.849 -39.915  0.00  0.00    -0.061 A 
ATOM     39  C   UNL A   1      38.328 -17.268 -38.764  0.00  0.00    -0.048 A 
ATOM     40  C   UNL A   1      39.044 -17.464 -37.571  0.00  0.00    +0.058 A 
BRANCH  35  41
ATOM     41  N   UNL A   1      41.154 -17.358 -36.293  0.00  0.00    -0.314 N 
ATOM     42  H   UNL A   1      40.678 -17.806 -35.556  0.00  0.00    +0.000 HD
BRANCH  41  48
ATOM     43  C   UNL A   1      45.521 -18.162 -33.977  0.00  0.00    -0.039 C 
ATOM     44  C   UNL A   1      44.619 -17.352 -34.868  0.00  0.00    -0.046 A 
ATOM     45  C   UNL A   1      45.104 -16.147 -35.399  0.00  0.00    -0.058 A 
ATOM     46  C   UNL A   1      44.302 -15.355 -36.215  0.00  0.00    -0.060 A 
ATOM     47  C   UNL A   1      43.009 -15.768 -36.524  0.00  0.00    -0.040 A 
ATOM     48  C   UNL A   1      42.504 -16.985 -36.040  0.00  0.00    +0.035 A 
ATOM     49  C   UNL A   1      43.292 -17.756 -35.154  0.00  0.00    -0.026 A 
ATOM     50  C   UNL A   1      42.750 -19.048 -34.592  0.00  0.00    -0.038 C 
ENDBRANCH  41  48
ENDBRANCH  35  41
ENDBRANCH  31  40
ENDBRANCH  30  33
ENDBRANCH  29  30
ENDBRANCH   1  29
TORSDOF 16
ENDMDL
MODEL 10
REMARK VINA RESULT:    -6.750      1.850      5.193
REMARK INTER + INTRA:         -18.118
REMARK INTER:                 -12.003
REMARK INTRA:                  -6.115
REMARK UNBOUND:                -5.053
REMARK  Name = cpd42.pdb
REMARK  18 active torsions:
REMARK  status: ('A' for Active; 'I' for Inactive)
REMARK    1  A    between atoms: C_1  and  C_2
REMARK    2  A    between atoms: C_6  and  N_7
REMARK    3  A    between atoms: N_7  and  C_8
REMARK    4  A    between atoms: C_13  and  C_14
REMARK    5  A    between atoms: N_16  and  C_17
REMARK    6  A    between atoms: C_17  and  C_18
REMARK    7  A    between atoms: C_18  and  C_19
REMARK    8  A    between atoms: N_21  and  C_22
REMARK    9  A    between atoms: C_22  and  C_23
REMARK   10  A    between atoms: C_23  and  C_24
REMARK   11  A    between atoms: C_24  and  C_25
REMARK   12  A    between atoms: C_25  and  C_26
REMARK   13  A    between atoms: C_26  and  C_27
REMARK   14  A    between atoms: C_27  and  C_28
REMARK   15  A    between atoms: C_28  and  C_29
REMARK   16  A    between atoms: C_29  and  N_30
REMARK   17  A    between atoms: N_30  and  C_31
REMARK   18  A    between atoms: C_45  and  C_46
REMARK                            x       y       z     vdW  Elec       q    Type
REMARK                         _______ _______ _______ _____ _____    ______ ____
ROOT
ATOM      1  C   UNL A   1      46.464 -15.074 -39.327  0.00  0.00    +0.215 C 
ATOM      2  O   UNL A   1      47.100 -15.923 -39.940  0.00  0.00    -0.276 OA
ATOM      3  N   UNL A   1      45.466 -14.308 -39.886  0.00  0.00    -0.315 N 
ATOM      4  H   UNL A   1      45.012 -13.638 -39.325  0.00  0.00    +0.000 HD
ENDROOT
BRANCH   3   5
ATOM      5  C   UNL A   1      45.057 -14.451 -41.271  0.00  0.00    +0.012 C 
BRANCH   5   6
ATOM      6  C   UNL A   1      43.537 -14.508 -41.419  0.00  0.00    -0.037 C 
BRANCH   6   7
ATOM      7  C   UNL A   1      42.771 -14.784 -40.119  0.00  0.00    -0.052 C 
BRANCH   7   8
ATOM      8  C   UNL A   1      41.349 -15.298 -40.363  0.00  0.00    -0.053 C 
BRANCH   8   9
ATOM      9  C   UNL A   1      41.060 -16.556 -39.538  0.00  0.00    -0.053 C 
BRANCH   9  10
ATOM     10  C   UNL A   1      39.567 -16.766 -39.263  0.00  0.00    -0.052 C 
BRANCH  10  11
ATOM     11  C   UNL A   1      39.221 -16.734 -37.773  0.00  0.00    -0.037 C 
BRANCH  11  12
ATOM     12  C   UNL A   1      39.032 -18.142 -37.206  0.00  0.00    +0.009 C 
BRANCH  12  13
ATOM     13  N   UNL A   1      40.286 -18.555 -36.560  0.00  0.00    -0.343 N 
ATOM     14  H   UNL A   1      40.929 -17.928 -36.157  0.00  0.00    +0.000 HD
BRANCH  13  15
ATOM     15  C   UNL A   1      40.461 -19.969 -36.585  0.00  0.00    +0.041 A 
ATOM     16  C   UNL A   1      40.207 -20.697 -35.404  0.00  0.00    -0.005 A 
ATOM     17  C   UNL A   1      40.402 -22.078 -35.438  0.00  0.00    +0.047 A 
ATOM     18  N   UNL A   1      40.866 -22.733 -36.528  0.00  0.00    -0.251 NA
ATOM     19  C   UNL A   1      41.129 -22.037 -37.643  0.00  0.00    +0.073 A 
ATOM     20  C   UNL A   1      41.600 -22.738 -38.745  0.00  0.00    -0.036 A 
ATOM     21  C   UNL A   1      41.905 -22.105 -39.951  0.00  0.00    -0.060 A 
ATOM     22  C   UNL A   1      41.740 -20.734 -40.063  0.00  0.00    -0.061 A 
ATOM     23  C   UNL A   1      41.269 -20.007 -38.969  0.00  0.00    -0.051 A 
ATOM     24  C   UNL A   1      40.953 -20.643 -37.739  0.00  0.00    +0.021 A 
ATOM     25  C   UNL A   1      40.158 -22.941 -34.227  0.00  0.00    -0.010 C 
ATOM     26  C   UNL A   1      39.230 -22.296 -33.205  0.00  0.00    -0.047 C 
ATOM     27  C   UNL A   1      39.690 -20.876 -32.915  0.00  0.00    -0.049 C 
ATOM     28  C   UNL A   1      39.629 -20.023 -34.181  0.00  0.00    -0.024 C 
ENDBRANCH  13  15
ENDBRANCH  12  13
ENDBRANCH  11  12
ENDBRANCH  10  11
ENDBRANCH   9  10
ENDBRANCH   8   9
ENDBRANCH   7   8
ENDBRANCH   6   7
ENDBRANCH   5   6
ENDBRANCH   3   5
BRANCH   1  29
ATOM     29  C   UNL A   1      46.754 -14.742 -37.881  0.00  0.00    +0.039 C 
BRANCH  29  30
ATOM     30  C   UNL A   1      46.338 -15.896 -36.978  0.00  0.00    +0.020 C 
BRANCH  30  33
ATOM     31  C   UNL A   1      47.296 -18.139 -36.258  0.00  0.00    +0.246 C 
ATOM     32  O   UNL A   1      48.342 -18.743 -36.031  0.00  0.00    -0.270 OA
ATOM     33  N   UNL A   1      47.319 -16.973 -36.985  0.00  0.00    -0.311 N 
ATOM     34  H   UNL A   1      48.091 -16.850 -37.583  0.00  0.00    +0.000 HD
BRANCH  31  40
ATOM     35  C   UNL A   1      45.258 -19.576 -36.489  0.00  0.00    +0.044 A 
ATOM     36  C   UNL A   1      44.095 -20.105 -35.905  0.00  0.00    -0.040 A 
ATOM     37  C   UNL A   1      43.643 -19.662 -34.659  0.00  0.00    -0.060 A 
ATOM     38  C   UNL A   1      44.359 -18.695 -33.957  0.00  0.00    -0.061 A 
ATOM     39  C   UNL A   1      45.547 -18.197 -34.487  0.00  0.00    -0.048 A 
ATOM     40  C   UNL A   1      46.019 -18.667 -35.723  0.00  0.00    +0.058 A 
BRANCH  35  41
ATOM     41  N   UNL A   1      45.731 -20.064 -37.740  0.00  0.00    -0.314 N 
ATOM     42  H   UNL A   1      46.468 -20.716 -37.706  0.00  0.00    +0.000 HD
BRANCH  41  48
ATOM     43  C   UNL A   1      45.200 -21.117 -42.606  0.00  0.00    -0.039 C 
ATOM     44  C   UNL A   1      45.043 -20.206 -41.419  0.00  0.00    -0.046 A 
ATOM     45  C   UNL A   1      44.480 -18.936 -41.616  0.00  0.00    -0.058 A 
ATOM     46  C   UNL A   1      44.329 -18.052 -40.552  0.00  0.00    -0.060 A 
ATOM     47  C   UNL A   1      44.722 -18.435 -39.273  0.00  0.00    -0.040 A 
ATOM     48  C   UNL A   1      45.255 -19.711 -39.034  0.00  0.00    +0.035 A 
ATOM     49  C   UNL A   1      45.475 -20.584 -40.125  0.00  0.00    -0.026 A 
ATOM     50  C   UNL A   1      46.083 -21.946 -39.891  0.00  0.00    -0.038 C 
ENDBRANCH  41  48
ENDBRANCH  35  41
ENDBRANCH  31  40
ENDBRANCH  30  33
ENDBRANCH  29  30
ENDBRANCH   1  29
TORSDOF 16
ENDMDL
MODEL 11
REMARK VINA RESULT:    -6.622      1.859      4.611
REMARK INTER + INTRA:         -17.869
REMARK INTER:                 -12.112
REMARK INTRA:                  -5.757
REMARK UNBOUND:                -5.053
REMARK  Name = cpd42.pdb
REMARK  18 active torsions:
REMARK  status: ('A' for Active; 'I' for Inactive)
REMARK    1  A    between atoms: C_1  and  C_2
REMARK    2  A    between atoms: C_6  and  N_7
REMARK    3  A    between atoms: N_7  and  C_8
REMARK    4  A    between atoms: C_13  and  C_14
REMARK    5  A    between atoms: N_16  and  C_17
REMARK    6  A    between atoms: C_17  and  C_18
REMARK    7  A    between atoms: C_18  and  C_19
REMARK    8  A    between atoms: N_21  and  C_22
REMARK    9  A    between atoms: C_22  and  C_23
REMARK   10  A    between atoms: C_23  and  C_24
REMARK   11  A    between atoms: C_24  and  C_25
REMARK   12  A    between atoms: C_25  and  C_26
REMARK   13  A    between atoms: C_26  and  C_27
REMARK   14  A    between atoms: C_27  and  C_28
REMARK   15  A    between atoms: C_28  and  C_29
REMARK   16  A    between atoms: C_29  and  N_30
REMARK   17  A    between atoms: N_30  and  C_31
REMARK   18  A    between atoms: C_45  and  C_46
REMARK                            x       y       z     vdW  Elec       q    Type
REMARK                         _______ _______ _______ _____ _____    ______ ____
ROOT
ATOM      1  C   UNL A   1      46.504 -15.221 -39.163  0.00  0.00    +0.215 C 
ATOM      2  O   UNL A   1      47.102 -16.100 -39.770  0.00  0.00    -0.276 OA
ATOM      3  N   UNL A   1      45.511 -14.443 -39.716  0.00  0.00    -0.315 N 
ATOM      4  H   UNL A   1      45.089 -13.748 -39.160  0.00  0.00    +0.000 HD
ENDROOT
BRANCH   3   5
ATOM      5  C   UNL A   1      45.064 -14.608 -41.086  0.00  0.00    +0.012 C 
BRANCH   5   6
ATOM      6  C   UNL A   1      43.549 -14.451 -41.220  0.00  0.00    -0.037 C 
BRANCH   6   7
ATOM      7  C   UNL A   1      42.723 -15.537 -40.520  0.00  0.00    -0.052 C 
BRANCH   7   8
ATOM      8  C   UNL A   1      41.259 -15.135 -40.320  0.00  0.00    -0.053 C 
BRANCH   8   9
ATOM      9  C   UNL A   1      40.622 -15.907 -39.161  0.00  0.00    -0.053 C 
BRANCH   9  10
ATOM     10  C   UNL A   1      41.445 -15.842 -37.869  0.00  0.00    -0.052 C 
BRANCH  10  11
ATOM     11  C   UNL A   1      41.783 -17.222 -37.303  0.00  0.00    -0.037 C 
BRANCH  11  12
ATOM     12  C   UNL A   1      40.768 -17.664 -36.246  0.00  0.00    +0.009 C 
BRANCH  12  13
ATOM     13  N   UNL A   1      39.799 -18.566 -36.882  0.00  0.00    -0.343 N 
ATOM     14  H   UNL A   1      38.991 -18.261 -37.355  0.00  0.00    +0.000 HD
BRANCH  13  15
ATOM     15  C   UNL A   1      40.165 -19.936 -36.733  0.00  0.00    +0.041 A 
ATOM     16  C   UNL A   1      40.662 -20.622 -37.859  0.00  0.00    -0.005 A 
ATOM     17  C   UNL A   1      40.998 -21.968 -37.703  0.00  0.00    +0.047 A 
ATOM     18  N   UNL A   1      40.821 -22.645 -36.544  0.00  0.00    -0.251 NA
ATOM     19  C   UNL A   1      40.326 -21.997 -35.481  0.00  0.00    +0.073 A 
ATOM     20  C   UNL A   1      40.160 -22.718 -34.306  0.00  0.00    -0.036 A 
ATOM     21  C   UNL A   1      39.649 -22.135 -33.145  0.00  0.00    -0.060 A 
ATOM     22  C   UNL A   1      39.291 -20.797 -33.153  0.00  0.00    -0.061 A 
ATOM     23  C   UNL A   1      39.448 -20.051 -34.322  0.00  0.00    -0.051 A 
ATOM     24  C   UNL A   1      39.969 -20.634 -35.507  0.00  0.00    +0.021 A 
ATOM     25  C   UNL A   1      41.538 -22.786 -38.847  0.00  0.00    -0.010 C 
ATOM     26  C   UNL A   1      42.150 -21.940 -39.957  0.00  0.00    -0.047 C 
ATOM     27  C   UNL A   1      41.190 -20.825 -40.344  0.00  0.00    -0.049 C 
ATOM     28  C   UNL A   1      40.938 -19.898 -39.157  0.00  0.00    -0.024 C 
ENDBRANCH  13  15
ENDBRANCH  12  13
ENDBRANCH  11  12
ENDBRANCH  10  11
ENDBRANCH   9  10
ENDBRANCH   8   9
ENDBRANCH   7   8
ENDBRANCH   6   7
ENDBRANCH   5   6
ENDBRANCH   3   5
BRANCH   1  29
ATOM     29  C   UNL A   1      46.838 -14.863 -37.733  0.00  0.00    +0.039 C 
BRANCH  29  30
ATOM     30  C   UNL A   1      46.524 -16.030 -36.806  0.00  0.00    +0.020 C 
BRANCH  30  33
ATOM     31  C   UNL A   1      47.438 -18.375 -36.441  0.00  0.00    +0.246 C 
ATOM     32  O   UNL A   1      48.459 -19.013 -36.195  0.00  0.00    -0.270 OA
ATOM     33  N   UNL A   1      47.528 -17.081 -36.895  0.00  0.00    -0.311 N 
ATOM     34  H   UNL A   1      48.374 -16.834 -37.335  0.00  0.00    +0.000 HD
BRANCH  31  40
ATOM     35  C   UNL A   1      45.473 -19.679 -37.282  0.00  0.00    +0.044 A 
ATOM     36  C   UNL A   1      44.256 -20.323 -37.001  0.00  0.00    -0.040 A 
ATOM     37  C   UNL A   1      43.644 -20.204 -35.750  0.00  0.00    -0.060 A 
ATOM     38  C   UNL A   1      44.248 -19.456 -34.743  0.00  0.00    -0.061 A 
ATOM     39  C   UNL A   1      45.483 -18.856 -34.976  0.00  0.00    -0.048 A 
ATOM     40  C   UNL A   1      46.115 -19.004 -36.222  0.00  0.00    +0.058 A 
BRANCH  35  41
ATOM     41  N   UNL A   1      46.108 -19.841 -38.545  0.00  0.00    -0.314 N 
ATOM     42  H   UNL A   1      47.088 -19.941 -38.535  0.00  0.00    +0.000 HD
BRANCH  41  48
ATOM     43  C   UNL A   1      45.206 -22.178 -42.881  0.00  0.00    -0.039 C 
ATOM     44  C   UNL A   1      45.085 -20.995 -41.959  0.00  0.00    -0.046 A 
ATOM     45  C   UNL A   1      44.398 -19.859 -42.410  0.00  0.00    -0.058 A 
ATOM     46  C   UNL A   1      44.273 -18.735 -41.600  0.00  0.00    -0.060 A 
ATOM     47  C   UNL A   1      44.819 -18.740 -40.320  0.00  0.00    -0.040 A 
ATOM     48  C   UNL A   1      45.481 -19.873 -39.822  0.00  0.00    +0.035 A 
ATOM     49  C   UNL A   1      45.670 -20.990 -40.670  0.00  0.00    -0.026 A 
ATOM     50  C   UNL A   1      46.415 -22.203 -40.164  0.00  0.00    -0.038 C 
ENDBRANCH  41  48
ENDBRANCH  35  41
ENDBRANCH  31  40
ENDBRANCH  30  33
ENDBRANCH  29  30
ENDBRANCH   1  29
TORSDOF 16
ENDMDL
MODEL 12
REMARK VINA RESULT:    -6.564      2.179      4.734
REMARK INTER + INTRA:         -17.757
REMARK INTER:                 -11.751
REMARK INTRA:                  -6.005
REMARK UNBOUND:                -5.053
REMARK  Name = cpd42.pdb
REMARK  18 active torsions:
REMARK  status: ('A' for Active; 'I' for Inactive)
REMARK    1  A    between atoms: C_1  and  C_2
REMARK    2  A    between atoms: C_6  and  N_7
REMARK    3  A    between atoms: N_7  and  C_8
REMARK    4  A    between atoms: C_13  and  C_14
REMARK    5  A    between atoms: N_16  and  C_17
REMARK    6  A    between atoms: C_17  and  C_18
REMARK    7  A    between atoms: C_18  and  C_19
REMARK    8  A    between atoms: N_21  and  C_22
REMARK    9  A    between atoms: C_22  and  C_23
REMARK   10  A    between atoms: C_23  and  C_24
REMARK   11  A    between atoms: C_24  and  C_25
REMARK   12  A    between atoms: C_25  and  C_26
REMARK   13  A    between atoms: C_26  and  C_27
REMARK   14  A    between atoms: C_27  and  C_28
REMARK   15  A    between atoms: C_28  and  C_29
REMARK   16  A    between atoms: C_29  and  N_30
REMARK   17  A    between atoms: N_30  and  C_31
REMARK   18  A    between atoms: C_45  and  C_46
REMARK                            x       y       z     vdW  Elec       q    Type
REMARK                         _______ _______ _______ _____ _____    ______ ____
ROOT
ATOM      1  C   UNL A   1      45.038 -14.111 -36.930  0.00  0.00    +0.215 C 
ATOM      2  O   UNL A   1      44.588 -12.989 -36.734  0.00  0.00    -0.276 OA
ATOM      3  N   UNL A   1      44.343 -15.273 -36.678  0.00  0.00    -0.315 N 
ATOM      4  H   UNL A   1      44.784 -16.136 -36.854  0.00  0.00    +0.000 HD
ENDROOT
BRANCH   3   5
ATOM      5  C   UNL A   1      42.986 -15.274 -36.164  0.00  0.00    +0.012 C 
BRANCH   5   6
ATOM      6  C   UNL A   1      42.389 -16.681 -36.121  0.00  0.00    -0.037 C 
BRANCH   6   7
ATOM      7  C   UNL A   1      40.935 -16.781 -36.597  0.00  0.00    -0.052 C 
BRANCH   7   8
ATOM      8  C   UNL A   1      40.219 -18.027 -36.069  0.00  0.00    -0.053 C 
BRANCH   8   9
ATOM      9  C   UNL A   1      39.980 -17.937 -34.559  0.00  0.00    -0.053 C 
BRANCH   9  10
ATOM     10  C   UNL A   1      39.192 -19.128 -34.002  0.00  0.00    -0.052 C 
BRANCH  10  11
ATOM     11  C   UNL A   1      39.889 -19.811 -32.824  0.00  0.00    -0.037 C 
BRANCH  11  12
ATOM     12  C   UNL A   1      41.362 -19.409 -32.729  0.00  0.00    +0.009 C 
BRANCH  12  13
ATOM     13  N   UNL A   1      42.184 -20.563 -33.118  0.00  0.00    -0.343 N 
ATOM     14  H   UNL A   1      42.311 -21.363 -32.557  0.00  0.00    +0.000 HD
BRANCH  13  15
ATOM     15  C   UNL A   1      42.777 -20.389 -34.402  0.00  0.00    +0.041 A 
ATOM     16  C   UNL A   1      43.894 -19.536 -34.515  0.00  0.00    -0.005 A 
ATOM     17  C   UNL A   1      44.451 -19.359 -35.782  0.00  0.00    +0.047 A 
ATOM     18  N   UNL A   1      43.941 -19.927 -36.900  0.00  0.00    -0.251 NA
ATOM     19  C   UNL A   1      42.865 -20.719 -36.795  0.00  0.00    +0.073 A 
ATOM     20  C   UNL A   1      42.368 -21.289 -37.960  0.00  0.00    -0.036 A 
ATOM     21  C   UNL A   1      41.251 -22.125 -37.957  0.00  0.00    -0.060 A 
ATOM     22  C   UNL A   1      40.608 -22.402 -36.761  0.00  0.00    -0.061 A 
ATOM     23  C   UNL A   1      41.089 -21.841 -35.577  0.00  0.00    -0.051 A 
ATOM     24  C   UNL A   1      42.226 -20.990 -35.569  0.00  0.00    +0.021 A 
ATOM     25  C   UNL A   1      45.646 -18.468 -36.003  0.00  0.00    -0.010 C 
ATOM     26  C   UNL A   1      46.460 -18.227 -34.737  0.00  0.00    -0.047 C 
ATOM     27  C   UNL A   1      45.537 -17.815 -33.601  0.00  0.00    -0.049 C 
ATOM     28  C   UNL A   1      44.540 -18.930 -33.290  0.00  0.00    -0.024 C 
ENDBRANCH  13  15
ENDBRANCH  12  13
ENDBRANCH  11  12
ENDBRANCH  10  11
ENDBRANCH   9  10
ENDBRANCH   8   9
ENDBRANCH   7   8
ENDBRANCH   6   7
ENDBRANCH   5   6
ENDBRANCH   3   5
BRANCH   1  29
ATOM     29  C   UNL A   1      46.446 -14.335 -37.432  0.00  0.00    +0.039 C 
BRANCH  29  30
ATOM     30  C   UNL A   1      46.708 -15.821 -37.633  0.00  0.00    +0.020 C 
BRANCH  30  33
ATOM     31  C   UNL A   1      46.437 -16.659 -40.019  0.00  0.00    +0.246 C 
ATOM     32  O   UNL A   1      47.014 -17.235 -40.938  0.00  0.00    -0.270 OA
ATOM     33  N   UNL A   1      47.162 -16.115 -38.986  0.00  0.00    -0.311 N 
ATOM     34  H   UNL A   1      48.101 -15.897 -39.183  0.00  0.00    +0.000 HD
BRANCH  31  40
ATOM     35  C   UNL A   1      44.189 -17.746 -39.842  0.00  0.00    +0.044 A 
ATOM     36  C   UNL A   1      42.792 -17.603 -39.778  0.00  0.00    -0.040 A 
ATOM     37  C   UNL A   1      42.179 -16.367 -40.001  0.00  0.00    -0.060 A 
ATOM     38  C   UNL A   1      42.951 -15.241 -40.270  0.00  0.00    -0.061 A 
ATOM     39  C   UNL A   1      44.340 -15.343 -40.281  0.00  0.00    -0.048 A 
ATOM     40  C   UNL A   1      44.958 -16.577 -40.024  0.00  0.00    +0.058 A 
BRANCH  35  41
ATOM     41  N   UNL A   1      44.805 -19.001 -39.573  0.00  0.00    -0.314 N 
ATOM     42  H   UNL A   1      45.153 -19.133 -38.661  0.00  0.00    +0.000 HD
BRANCH  41  48
ATOM     43  C   UNL A   1      47.152 -23.219 -40.906  0.00  0.00    -0.039 C 
ATOM     44  C   UNL A   1      46.157 -22.117 -41.152  0.00  0.00    -0.046 A 
ATOM     45  C   UNL A   1      45.433 -22.121 -42.354  0.00  0.00    -0.058 A 
ATOM     46  C   UNL A   1      44.515 -21.114 -42.634  0.00  0.00    -0.060 A 
ATOM     47  C   UNL A   1      44.295 -20.100 -41.707  0.00  0.00    -0.040 A 
ATOM     48  C   UNL A   1      44.974 -20.085 -40.479  0.00  0.00    +0.035 A 
ATOM     49  C   UNL A   1      45.959 -21.067 -40.223  0.00  0.00    -0.026 A 
ATOM     50  C   UNL A   1      46.728 -21.044 -38.923  0.00  0.00    -0.038 C 
ENDBRANCH  41  48
ENDBRANCH  35  41
ENDBRANCH  31  40
ENDBRANCH  30  33
ENDBRANCH  29  30
ENDBRANCH   1  29
TORSDOF 16
ENDMDL
MODEL 13
REMARK VINA RESULT:    -6.494      2.002      4.315
REMARK INTER + INTRA:         -17.621
REMARK INTER:                 -11.539
REMARK INTRA:                  -6.082
REMARK UNBOUND:                -5.053
REMARK  Name = cpd42.pdb
REMARK  18 active torsions:
REMARK  status: ('A' for Active; 'I' for Inactive)
REMARK    1  A    between atoms: C_1  and  C_2
REMARK    2  A    between atoms: C_6  and  N_7
REMARK    3  A    between atoms: N_7  and  C_8
REMARK    4  A    between atoms: C_13  and  C_14
REMARK    5  A    between atoms: N_16  and  C_17
REMARK    6  A    between atoms: C_17  and  C_18
REMARK    7  A    between atoms: C_18  and  C_19
REMARK    8  A    between atoms: N_21  and  C_22
REMARK    9  A    between atoms: C_22  and  C_23
REMARK   10  A    between atoms: C_23  and  C_24
REMARK   11  A    between atoms: C_24  and  C_25
REMARK   12  A    between atoms: C_25  and  C_26
REMARK   13  A    between atoms: C_26  and  C_27
REMARK   14  A    between atoms: C_27  and  C_28
REMARK   15  A    between atoms: C_28  and  C_29
REMARK   16  A    between atoms: C_29  and  N_30
REMARK   17  A    between atoms: N_30  and  C_31
REMARK   18  A    between atoms: C_45  and  C_46
REMARK                            x       y       z     vdW  Elec       q    Type
REMARK                         _______ _______ _______ _____ _____    ______ ____
ROOT
ATOM      1  C   UNL A   1      45.126 -14.767 -36.803  0.00  0.00    +0.215 C 
ATOM      2  O   UNL A   1      44.793 -13.602 -36.619  0.00  0.00    -0.276 OA
ATOM      3  N   UNL A   1      44.263 -15.836 -36.714  0.00  0.00    -0.315 N 
ATOM      4  H   UNL A   1      44.615 -16.743 -36.865  0.00  0.00    +0.000 HD
ENDROOT
BRANCH   3   5
ATOM      5  C   UNL A   1      42.854 -15.677 -36.407  0.00  0.00    +0.012 C 
BRANCH   5   6
ATOM      6  C   UNL A   1      42.004 -16.796 -37.009  0.00  0.00    -0.037 C 
BRANCH   6   7
ATOM      7  C   UNL A   1      40.521 -16.454 -37.193  0.00  0.00    -0.052 C 
BRANCH   7   8
ATOM      8  C   UNL A   1      39.587 -17.565 -36.703  0.00  0.00    -0.053 C 
BRANCH   8   9
ATOM      9  C   UNL A   1      39.436 -17.536 -35.180  0.00  0.00    -0.053 C 
BRANCH   9  10
ATOM     10  C   UNL A   1      38.219 -18.322 -34.680  0.00  0.00    -0.052 C 
BRANCH  10  11
ATOM     11  C   UNL A   1      38.595 -19.519 -33.805  0.00  0.00    -0.037 C 
BRANCH  11  12
ATOM     12  C   UNL A   1      40.111 -19.647 -33.643  0.00  0.00    +0.009 C 
BRANCH  12  13
ATOM     13  N   UNL A   1      40.547 -20.884 -34.305  0.00  0.00    -0.343 N 
ATOM     14  H   UNL A   1      40.260 -21.785 -34.031  0.00  0.00    +0.000 HD
BRANCH  13  15
ATOM     15  C   UNL A   1      41.434 -20.626 -35.390  0.00  0.00    +0.041 A 
ATOM     16  C   UNL A   1      40.963 -20.829 -36.703  0.00  0.00    -0.005 A 
ATOM     17  C   UNL A   1      41.850 -20.592 -37.755  0.00  0.00    +0.047 A 
ATOM     18  N   UNL A   1      43.140 -20.227 -37.567  0.00  0.00    -0.251 NA
ATOM     19  C   UNL A   1      43.593 -20.058 -36.317  0.00  0.00    +0.073 A 
ATOM     20  C   UNL A   1      44.920 -19.680 -36.158  0.00  0.00    -0.036 A 
ATOM     21  C   UNL A   1      45.487 -19.481 -34.898  0.00  0.00    -0.060 A 
ATOM     22  C   UNL A   1      44.713 -19.665 -33.763  0.00  0.00    -0.061 A 
ATOM     23  C   UNL A   1      43.377 -20.044 -33.898  0.00  0.00    -0.051 A 
ATOM     24  C   UNL A   1      42.790 -20.247 -35.175  0.00  0.00    +0.021 A 
ATOM     25  C   UNL A   1      41.440 -20.780 -39.193  0.00  0.00    -0.010 C 
ATOM     26  C   UNL A   1      39.930 -20.729 -39.400  0.00  0.00    -0.047 C 
ATOM     27  C   UNL A   1      39.241 -21.641 -38.397  0.00  0.00    -0.049 C 
ATOM     28  C   UNL A   1      39.516 -21.173 -36.970  0.00  0.00    -0.024 C 
ENDBRANCH  13  15
ENDBRANCH  12  13
ENDBRANCH  11  12
ENDBRANCH  10  11
ENDBRANCH   9  10
ENDBRANCH   8   9
ENDBRANCH   7   8
ENDBRANCH   6   7
ENDBRANCH   5   6
ENDBRANCH   3   5
BRANCH   1  29
ATOM     29  C   UNL A   1      46.555 -15.156 -37.101  0.00  0.00    +0.039 C 
BRANCH  29  30
ATOM     30  C   UNL A   1      46.645 -16.640 -37.429  0.00  0.00    +0.020 C 
BRANCH  30  33
ATOM     31  C   UNL A   1      46.731 -17.170 -39.916  0.00  0.00    +0.246 C 
ATOM     32  O   UNL A   1      47.382 -17.749 -40.783  0.00  0.00    -0.270 OA
ATOM     33  N   UNL A   1      47.310 -16.876 -38.704  0.00  0.00    -0.311 N 
ATOM     34  H   UNL A   1      48.292 -16.817 -38.696  0.00  0.00    +0.000 HD
BRANCH  31  40
ATOM     35  C   UNL A   1      44.326 -17.821 -40.163  0.00  0.00    +0.044 A 
ATOM     36  C   UNL A   1      42.991 -17.421 -40.343  0.00  0.00    -0.040 A 
ATOM     37  C   UNL A   1      42.665 -16.095 -40.641  0.00  0.00    -0.060 A 
ATOM     38  C   UNL A   1      43.666 -15.133 -40.743  0.00  0.00    -0.061 A 
ATOM     39  C   UNL A   1      44.992 -15.491 -40.511  0.00  0.00    -0.048 A 
ATOM     40  C   UNL A   1      45.317 -16.816 -40.179  0.00  0.00    +0.058 A 
BRANCH  35  41
ATOM     41  N   UNL A   1      44.644 -19.165 -39.820  0.00  0.00    -0.314 N 
ATOM     42  H   UNL A   1      44.646 -19.384 -38.860  0.00  0.00    +0.000 HD
BRANCH  41  48
ATOM     43  C   UNL A   1      47.378 -23.196 -40.981  0.00  0.00    -0.039 C 
ATOM     44  C   UNL A   1      46.330 -22.165 -41.300  0.00  0.00    -0.046 A 
ATOM     45  C   UNL A   1      45.702 -22.210 -42.554  0.00  0.00    -0.058 A 
ATOM     46  C   UNL A   1      44.738 -21.268 -42.901  0.00  0.00    -0.060 A 
ATOM     47  C   UNL A   1      44.377 -20.280 -41.990  0.00  0.00    -0.040 A 
ATOM     48  C   UNL A   1      44.958 -20.227 -40.713  0.00  0.00    +0.035 A 
ATOM     49  C   UNL A   1      45.988 -21.140 -40.385  0.00  0.00    -0.026 A 
ATOM     50  C   UNL A   1      46.651 -21.073 -39.031  0.00  0.00    -0.038 C 
ENDBRANCH  41  48
ENDBRANCH  35  41
ENDBRANCH  31  40
ENDBRANCH  30  33
ENDBRANCH  29  30
ENDBRANCH   1  29
TORSDOF 16
ENDMDL
MODEL 14
REMARK VINA RESULT:    -6.483      1.965      7.982
REMARK INTER + INTRA:         -17.601
REMARK INTER:                 -12.458
REMARK INTRA:                  -5.143
REMARK UNBOUND:                -5.053
REMARK  Name = cpd42.pdb
REMARK  18 active torsions:
REMARK  status: ('A' for Active; 'I' for Inactive)
REMARK    1  A    between atoms: C_1  and  C_2
REMARK    2  A    between atoms: C_6  and  N_7
REMARK    3  A    between atoms: N_7  and  C_8
REMARK    4  A    between atoms: C_13  and  C_14
REMARK    5  A    between atoms: N_16  and  C_17
REMARK    6  A    between atoms: C_17  and  C_18
REMARK    7  A    between atoms: C_18  and  C_19
REMARK    8  A    between atoms: N_21  and  C_22
REMARK    9  A    between atoms: C_22  and  C_23
REMARK   10  A    between atoms: C_23  and  C_24
REMARK   11  A    between atoms: C_24  and  C_25
REMARK   12  A    between atoms: C_25  and  C_26
REMARK   13  A    between atoms: C_26  and  C_27
REMARK   14  A    between atoms: C_27  and  C_28
REMARK   15  A    between atoms: C_28  and  C_29
REMARK   16  A    between atoms: C_29  and  N_30
REMARK   17  A    between atoms: N_30  and  C_31
REMARK   18  A    between atoms: C_45  and  C_46
REMARK                            x       y       z     vdW  Elec       q    Type
REMARK                         _______ _______ _______ _____ _____    ______ ____
ROOT
ATOM      1  C   UNL A   1      40.662 -16.490 -35.919  0.00  0.00    +0.215 C 
ATOM      2  O   UNL A   1      39.770 -15.698 -35.638  0.00  0.00    -0.276 OA
ATOM      3  N   UNL A   1      40.487 -17.589 -36.730  0.00  0.00    -0.315 N 
ATOM      4  H   UNL A   1      41.256 -18.182 -36.895  0.00  0.00    +0.000 HD
ENDROOT
BRANCH   3   5
ATOM      5  C   UNL A   1      39.215 -17.905 -37.351  0.00  0.00    +0.012 C 
BRANCH   5   6
ATOM      6  C   UNL A   1      39.310 -17.932 -38.876  0.00  0.00    -0.037 C 
BRANCH   6   7
ATOM      7  C   UNL A   1      38.761 -16.684 -39.579  0.00  0.00    -0.052 C 
BRANCH   7   8
ATOM      8  C   UNL A   1      39.779 -16.036 -40.523  0.00  0.00    -0.053 C 
BRANCH   8   9
ATOM      9  C   UNL A   1      40.984 -15.488 -39.753  0.00  0.00    -0.053 C 
BRANCH   9  10
ATOM     10  C   UNL A   1      42.250 -15.386 -40.611  0.00  0.00    -0.052 C 
BRANCH  10  11
ATOM     11  C   UNL A   1      43.369 -16.318 -40.143  0.00  0.00    -0.037 C 
BRANCH  11  12
ATOM     12  C   UNL A   1      43.771 -17.311 -41.235  0.00  0.00    +0.009 C 
BRANCH  12  13
ATOM     13  N   UNL A   1      45.238 -17.360 -41.301  0.00  0.00    -0.343 N 
ATOM     14  H   UNL A   1      45.788 -16.715 -41.803  0.00  0.00    +0.000 HD
BRANCH  13  15
ATOM     15  C   UNL A   1      45.772 -18.450 -40.555  0.00  0.00    +0.041 A 
ATOM     16  C   UNL A   1      45.651 -19.750 -41.087  0.00  0.00    -0.005 A 
ATOM     17  C   UNL A   1      46.160 -20.809 -40.335  0.00  0.00    +0.047 A 
ATOM     18  N   UNL A   1      46.714 -20.648 -39.110  0.00  0.00    -0.251 NA
ATOM     19  C   UNL A   1      46.807 -19.415 -38.595  0.00  0.00    +0.073 A 
ATOM     20  C   UNL A   1      47.383 -19.283 -37.338  0.00  0.00    -0.036 A 
ATOM     21  C   UNL A   1      47.523 -18.042 -36.715  0.00  0.00    -0.060 A 
ATOM     22  C   UNL A   1      47.076 -16.899 -37.359  0.00  0.00    -0.061 A 
ATOM     23  C   UNL A   1      46.493 -17.007 -38.622  0.00  0.00    -0.051 A 
ATOM     24  C   UNL A   1      46.348 -18.264 -39.266  0.00  0.00    +0.021 A 
ATOM     25  C   UNL A   1      46.078 -22.234 -40.820  0.00  0.00    -0.010 C 
ATOM     26  C   UNL A   1      45.896 -22.347 -42.329  0.00  0.00    -0.047 C 
ATOM     27  C   UNL A   1      44.766 -21.435 -42.781  0.00  0.00    -0.049 C 
ATOM     28  C   UNL A   1      45.099 -19.976 -42.476  0.00  0.00    -0.024 C 
ENDBRANCH  13  15
ENDBRANCH  12  13
ENDBRANCH  11  12
ENDBRANCH  10  11
ENDBRANCH   9  10
ENDBRANCH   8   9
ENDBRANCH   7   8
ENDBRANCH   6   7
ENDBRANCH   5   6
ENDBRANCH   3   5
BRANCH   1  29
ATOM     29  C   UNL A   1      42.056 -16.363 -35.350  0.00  0.00    +0.039 C 
BRANCH  29  30
ATOM     30  C   UNL A   1      43.083 -16.913 -36.331  0.00  0.00    +0.020 C 
BRANCH  30  33
ATOM     31  C   UNL A   1      43.819 -19.258 -35.677  0.00  0.00    +0.246 C 
ATOM     32  O   UNL A   1      44.363 -19.916 -34.793  0.00  0.00    -0.270 OA
ATOM     33  N   UNL A   1      43.963 -17.892 -35.706  0.00  0.00    -0.311 N 
ATOM     34  H   UNL A   1      44.756 -17.530 -35.250  0.00  0.00    +0.000 HD
BRANCH  31  40
ATOM     35  C   UNL A   1      42.055 -20.925 -36.293  0.00  0.00    +0.044 A 
ATOM     36  C   UNL A   1      41.241 -21.494 -37.287  0.00  0.00    -0.040 A 
ATOM     37  C   UNL A   1      41.428 -21.191 -38.639  0.00  0.00    -0.060 A 
ATOM     38  C   UNL A   1      42.419 -20.293 -39.024  0.00  0.00    -0.061 A 
ATOM     39  C   UNL A   1      43.201 -19.669 -38.054  0.00  0.00    -0.048 A 
ATOM     40  C   UNL A   1      42.991 -19.948 -36.694  0.00  0.00    +0.058 A 
BRANCH  35  41
ATOM     41  N   UNL A   1      41.829 -21.209 -34.916  0.00  0.00    -0.314 N 
ATOM     42  H   UNL A   1      42.473 -21.814 -34.481  0.00  0.00    +0.000 HD
BRANCH  41  48
ATOM     43  C   UNL A   1      37.303 -21.784 -32.851  0.00  0.00    -0.039 C 
ATOM     44  C   UNL A   1      38.542 -20.978 -33.135  0.00  0.00    -0.046 A 
ATOM     45  C   UNL A   1      38.617 -19.666 -32.643  0.00  0.00    -0.058 A 
ATOM     46  C   UNL A   1      39.735 -18.876 -32.894  0.00  0.00    -0.060 A 
ATOM     47  C   UNL A   1      40.799 -19.394 -33.625  0.00  0.00    -0.040 A 
ATOM     48  C   UNL A   1      40.773 -20.715 -34.100  0.00  0.00    +0.035 A 
ATOM     49  C   UNL A   1      39.609 -21.496 -33.908  0.00  0.00    -0.026 A 
ATOM     50  C   UNL A   1      39.549 -22.905 -34.447  0.00  0.00    -0.038 C 
ENDBRANCH  41  48
ENDBRANCH  35  41
ENDBRANCH  31  40
ENDBRANCH  30  33
ENDBRANCH  29  30
ENDBRANCH   1  29
TORSDOF 16
ENDMDL
MODEL 15
REMARK VINA RESULT:    -6.422      2.820      7.957
REMARK INTER + INTRA:         -17.482
REMARK INTER:                 -11.658
REMARK INTRA:                  -5.824
REMARK UNBOUND:                -5.053
REMARK  Name = cpd42.pdb
REMARK  18 active torsions:
REMARK  status: ('A' for Active; 'I' for Inactive)
REMARK    1  A    between atoms: C_1  and  C_2
REMARK    2  A    between atoms: C_6  and  N_7
REMARK    3  A    between atoms: N_7  and  C_8
REMARK    4  A    between atoms: C_13  and  C_14
REMARK    5  A    between atoms: N_16  and  C_17
REMARK    6  A    between atoms: C_17  and  C_18
REMARK    7  A    between atoms: C_18  and  C_19
REMARK    8  A    between atoms: N_21  and  C_22
REMARK    9  A    between atoms: C_22  and  C_23
REMARK   10  A    between atoms: C_23  and  C_24
REMARK   11  A    between atoms: C_24  and  C_25
REMARK   12  A    between atoms: C_25  and  C_26
REMARK   13  A    between atoms: C_26  and  C_27
REMARK   14  A    between atoms: C_27  and  C_28
REMARK   15  A    between atoms: C_28  and  C_29
REMARK   16  A    between atoms: C_29  and  N_30
REMARK   17  A    between atoms: N_30  and  C_31
REMARK   18  A    between atoms: C_45  and  C_46
REMARK                            x       y       z     vdW  Elec       q    Type
REMARK                         _______ _______ _______ _____ _____    ______ ____
ROOT
ATOM      1  C   UNL A   1      40.254 -21.723 -37.133  0.00  0.00    +0.215 C 
ATOM      2  O   UNL A   1      40.360 -22.867 -37.561  0.00  0.00    -0.276 OA
ATOM      3  N   UNL A   1      41.072 -20.683 -37.512  0.00  0.00    -0.315 N 
ATOM      4  H   UNL A   1      40.926 -19.795 -37.110  0.00  0.00    +0.000 HD
ENDROOT
BRANCH   3   5
ATOM      5  C   UNL A   1      42.141 -20.843 -38.479  0.00  0.00    +0.012 C 
BRANCH   5   6
ATOM      6  C   UNL A   1      43.497 -21.059 -37.807  0.00  0.00    -0.037 C 
BRANCH   6   7
ATOM      7  C   UNL A   1      44.046 -19.842 -37.054  0.00  0.00    -0.052 C 
BRANCH   7   8
ATOM      8  C   UNL A   1      44.628 -20.201 -35.684  0.00  0.00    -0.053 C 
BRANCH   8   9
ATOM      9  C   UNL A   1      46.150 -20.030 -35.661  0.00  0.00    -0.053 C 
BRANCH   9  10
ATOM     10  C   UNL A   1      46.598 -18.708 -35.029  0.00  0.00    -0.052 C 
BRANCH  10  11
ATOM     11  C   UNL A   1      47.417 -17.834 -35.982  0.00  0.00    -0.037 C 
BRANCH  11  12
ATOM     12  C   UNL A   1      46.536 -17.182 -37.049  0.00  0.00    +0.009 C 
BRANCH  12  13
ATOM     13  N   UNL A   1      47.192 -17.341 -38.354  0.00  0.00    -0.343 N 
ATOM     14  H   UNL A   1      48.132 -17.104 -38.529  0.00  0.00    +0.000 HD
BRANCH  13  15
ATOM     15  C   UNL A   1      46.309 -17.876 -39.336  0.00  0.00    +0.041 A 
ATOM     16  C   UNL A   1      45.383 -17.009 -39.948  0.00  0.00    -0.005 A 
ATOM     17  C   UNL A   1      44.511 -17.551 -40.893  0.00  0.00    +0.047 A 
ATOM     18  N   UNL A   1      44.485 -18.868 -41.205  0.00  0.00    -0.251 NA
ATOM     19  C   UNL A   1      45.350 -19.697 -40.604  0.00  0.00    +0.073 A 
ATOM     20  C   UNL A   1      45.301 -21.041 -40.947  0.00  0.00    -0.036 A 
ATOM     21  C   UNL A   1      46.157 -21.984 -40.376  0.00  0.00    -0.060 A 
ATOM     22  C   UNL A   1      47.088 -21.578 -39.434  0.00  0.00    -0.061 A 
ATOM     23  C   UNL A   1      47.157 -20.232 -39.072  0.00  0.00    -0.051 A 
ATOM     24  C   UNL A   1      46.292 -19.266 -39.649  0.00  0.00    +0.021 A 
ATOM     25  C   UNL A   1      43.486 -16.704 -41.602  0.00  0.00    -0.010 C 
ATOM     26  C   UNL A   1      43.825 -15.218 -41.597  0.00  0.00    -0.047 C 
ATOM     27  C   UNL A   1      44.178 -14.775 -40.186  0.00  0.00    -0.049 C 
ATOM     28  C   UNL A   1      45.413 -15.521 -39.683  0.00  0.00    -0.024 C 
ENDBRANCH  13  15
ENDBRANCH  12  13
ENDBRANCH  11  12
ENDBRANCH  10  11
ENDBRANCH   9  10
ENDBRANCH   8   9
ENDBRANCH   7   8
ENDBRANCH   6   7
ENDBRANCH   5   6
ENDBRANCH   3   5
BRANCH   1  29
ATOM     29  C   UNL A   1      39.226 -21.348 -36.091  0.00  0.00    +0.039 C 
BRANCH  29  30
ATOM     30  C   UNL A   1      39.786 -20.290 -35.150  0.00  0.00    +0.020 C 
BRANCH  30  33
ATOM     31  C   UNL A   1      39.202 -17.814 -35.151  0.00  0.00    +0.246 C 
ATOM     32  O   UNL A   1      38.491 -16.963 -34.620  0.00  0.00    -0.270 OA
ATOM     33  N   UNL A   1      38.891 -19.147 -35.024  0.00  0.00    -0.311 N 
ATOM     34  H   UNL A   1      37.950 -19.355 -34.824  0.00  0.00    +0.000 HD
BRANCH  31  40
ATOM     35  C   UNL A   1      41.585 -17.049 -35.214  0.00  0.00    +0.044 A 
ATOM     36  C   UNL A   1      42.719 -16.729 -35.980  0.00  0.00    -0.040 A 
ATOM     37  C   UNL A   1      42.653 -16.642 -37.373  0.00  0.00    -0.060 A 
ATOM     38  C   UNL A   1      41.454 -16.895 -38.034  0.00  0.00    -0.061 A 
ATOM     39  C   UNL A   1      40.329 -17.271 -37.304  0.00  0.00    -0.048 A 
ATOM     40  C   UNL A   1      40.404 -17.392 -35.907  0.00  0.00    +0.058 A 
BRANCH  35  41
ATOM     41  N   UNL A   1      41.674 -17.175 -33.799  0.00  0.00    -0.314 N 
ATOM     42  H   UNL A   1      40.870 -17.508 -33.337  0.00  0.00    +0.000 HD
BRANCH  41  48
ATOM     43  C   UNL A   1      44.443 -13.847 -31.283  0.00  0.00    -0.039 C 
ATOM     44  C   UNL A   1      44.175 -15.237 -31.795  0.00  0.00    -0.046 A 
ATOM     45  C   UNL A   1      45.109 -16.247 -31.518  0.00  0.00    -0.058 A 
ATOM     46  C   UNL A   1      44.912 -17.543 -31.983  0.00  0.00    -0.060 A 
ATOM     47  C   UNL A   1      43.770 -17.850 -32.716  0.00  0.00    -0.040 A 
ATOM     48  C   UNL A   1      42.797 -16.873 -32.979  0.00  0.00    +0.035 A 
ATOM     49  C   UNL A   1      43.029 -15.540 -32.569  0.00  0.00    -0.026 A 
ATOM     50  C   UNL A   1      42.011 -14.468 -32.878  0.00  0.00    -0.038 C 
ENDBRANCH  41  48
ENDBRANCH  35  41
ENDBRANCH  31  40
ENDBRANCH  30  33
ENDBRANCH  29  30
ENDBRANCH   1  29
TORSDOF 16
ENDMDL
MODEL 16
REMARK VINA RESULT:    -6.387      1.687      2.802
REMARK INTER + INTRA:         -17.415
REMARK INTER:                 -10.726
REMARK INTRA:                  -6.689
REMARK UNBOUND:                -5.053
REMARK  Name = cpd42.pdb
REMARK  18 active torsions:
REMARK  status: ('A' for Active; 'I' for Inactive)
REMARK    1  A    between atoms: C_1  and  C_2
REMARK    2  A    between atoms: C_6  and  N_7
REMARK    3  A    between atoms: N_7  and  C_8
REMARK    4  A    between atoms: C_13  and  C_14
REMARK    5  A    between atoms: N_16  and  C_17
REMARK    6  A    between atoms: C_17  and  C_18
REMARK    7  A    between atoms: C_18  and  C_19
REMARK    8  A    between atoms: N_21  and  C_22
REMARK    9  A    between atoms: C_22  and  C_23
REMARK   10  A    between atoms: C_23  and  C_24
REMARK   11  A    between atoms: C_24  and  C_25
REMARK   12  A    between atoms: C_25  and  C_26
REMARK   13  A    between atoms: C_26  and  C_27
REMARK   14  A    between atoms: C_27  and  C_28
REMARK   15  A    between atoms: C_28  and  C_29
REMARK   16  A    between atoms: C_29  and  N_30
REMARK   17  A    between atoms: N_30  and  C_31
REMARK   18  A    between atoms: C_45  and  C_46
REMARK                            x       y       z     vdW  Elec       q    Type
REMARK                         _______ _______ _______ _____ _____    ______ ____
ROOT
ATOM      1  C   UNL A   1      44.755 -16.093 -36.187  0.00  0.00    +0.215 C 
ATOM      2  O   UNL A   1      43.572 -15.844 -36.387  0.00  0.00    -0.276 OA
ATOM      3  N   UNL A   1      45.199 -17.089 -35.346  0.00  0.00    -0.315 N 
ATOM      4  H   UNL A   1      46.169 -17.216 -35.232  0.00  0.00    +0.000 HD
ENDROOT
BRANCH   3   5
ATOM      5  C   UNL A   1      44.292 -17.960 -34.622  0.00  0.00    +0.012 C 
BRANCH   5   6
ATOM      6  C   UNL A   1      44.332 -19.395 -35.146  0.00  0.00    -0.037 C 
BRANCH   6   7
ATOM      7  C   UNL A   1      43.021 -19.892 -35.767  0.00  0.00    -0.052 C 
BRANCH   7   8
ATOM      8  C   UNL A   1      43.007 -19.787 -37.295  0.00  0.00    -0.053 C 
BRANCH   8   9
ATOM      9  C   UNL A   1      42.808 -21.158 -37.948  0.00  0.00    -0.053 C 
BRANCH   9  10
ATOM     10  C   UNL A   1      42.543 -21.074 -39.456  0.00  0.00    -0.052 C 
BRANCH  10  11
ATOM     11  C   UNL A   1      41.053 -21.046 -39.803  0.00  0.00    -0.037 C 
BRANCH  11  12
ATOM     12  C   UNL A   1      40.257 -22.044 -38.961  0.00  0.00    +0.009 C 
BRANCH  12  13
ATOM     13  N   UNL A   1      38.945 -21.456 -38.661  0.00  0.00    -0.343 N 
ATOM     14  H   UNL A   1      38.105 -21.737 -39.091  0.00  0.00    +0.000 HD
BRANCH  13  15
ATOM     15  C   UNL A   1      39.030 -20.431 -37.675  0.00  0.00    +0.041 A 
ATOM     16  C   UNL A   1      38.828 -19.095 -38.078  0.00  0.00    -0.005 A 
ATOM     17  C   UNL A   1      38.935 -18.100 -37.106  0.00  0.00    +0.047 A 
ATOM     18  N   UNL A   1      39.269 -18.356 -35.819  0.00  0.00    -0.251 NA
ATOM     19  C   UNL A   1      39.484 -19.624 -35.442  0.00  0.00    +0.073 A 
ATOM     20  C   UNL A   1      39.821 -19.854 -34.115  0.00  0.00    -0.036 A 
ATOM     21  C   UNL A   1      40.067 -21.138 -33.625  0.00  0.00    -0.060 A 
ATOM     22  C   UNL A   1      39.977 -22.224 -34.480  0.00  0.00    -0.061 A 
ATOM     23  C   UNL A   1      39.641 -22.018 -35.819  0.00  0.00    -0.051 A 
ATOM     24  C   UNL A   1      39.386 -20.717 -36.326  0.00  0.00    +0.021 A 
ATOM     25  C   UNL A   1      38.736 -16.644 -37.439  0.00  0.00    -0.010 C 
ATOM     26  C   UNL A   1      37.934 -16.422 -38.716  0.00  0.00    -0.047 C 
ATOM     27  C   UNL A   1      38.502 -17.279 -39.836  0.00  0.00    -0.049 C 
ATOM     28  C   UNL A   1      38.392 -18.762 -39.486  0.00  0.00    -0.024 C 
ENDBRANCH  13  15
ENDBRANCH  12  13
ENDBRANCH  11  12
ENDBRANCH  10  11
ENDBRANCH   9  10
ENDBRANCH   8   9
ENDBRANCH   7   8
ENDBRANCH   6   7
ENDBRANCH   5   6
ENDBRANCH   3   5
BRANCH   1  29
ATOM     29  C   UNL A   1      45.864 -15.283 -36.817  0.00  0.00    +0.039 C 
BRANCH  29  30
ATOM     30  C   UNL A   1      45.315 -13.978 -37.378  0.00  0.00    +0.020 C 
BRANCH  30  33
ATOM     31  C   UNL A   1      45.321 -14.517 -39.864  0.00  0.00    +0.246 C 
ATOM     32  O   UNL A   1      46.019 -14.523 -40.875  0.00  0.00    -0.270 OA
ATOM     33  N   UNL A   1      45.702 -13.779 -38.769  0.00  0.00    -0.311 N 
ATOM     34  H   UNL A   1      46.311 -13.026 -38.945  0.00  0.00    +0.000 HD
BRANCH  31  40
ATOM     35  C   UNL A   1      44.133 -16.705 -40.128  0.00  0.00    +0.044 A 
ATOM     36  C   UNL A   1      42.943 -17.442 -40.006  0.00  0.00    -0.040 A 
ATOM     37  C   UNL A   1      41.728 -16.816 -39.714  0.00  0.00    -0.060 A 
ATOM     38  C   UNL A   1      41.680 -15.440 -39.513  0.00  0.00    -0.061 A 
ATOM     39  C   UNL A   1      42.855 -14.693 -39.569  0.00  0.00    -0.048 A 
ATOM     40  C   UNL A   1      44.080 -15.326 -39.830  0.00  0.00    +0.058 A 
BRANCH  35  41
ATOM     41  N   UNL A   1      45.371 -17.358 -40.386  0.00  0.00    -0.314 N 
ATOM     42  H   UNL A   1      45.979 -16.912 -41.019  0.00  0.00    +0.000 HD
BRANCH  41  48
ATOM     43  C   UNL A   1      46.077 -22.301 -40.763  0.00  0.00    -0.039 C 
ATOM     44  C   UNL A   1      46.122 -21.007 -39.997  0.00  0.00    -0.046 A 
ATOM     45  C   UNL A   1      46.552 -21.031 -38.661  0.00  0.00    -0.058 A 
ATOM     46  C   UNL A   1      46.596 -19.863 -37.907  0.00  0.00    -0.060 A 
ATOM     47  C   UNL A   1      46.226 -18.652 -38.484  0.00  0.00    -0.040 A 
ATOM     48  C   UNL A   1      45.826 -18.586 -39.828  0.00  0.00    +0.035 A 
ATOM     49  C   UNL A   1      45.714 -19.781 -40.575  0.00  0.00    -0.026 A 
ATOM     50  C   UNL A   1      45.247 -19.732 -42.011  0.00  0.00    -0.038 C 
ENDBRANCH  41  48
ENDBRANCH  35  41
ENDBRANCH  31  40
ENDBRANCH  30  33
ENDBRANCH  29  30
ENDBRANCH   1  29
TORSDOF 16
ENDMDL
MODEL 17
REMARK VINA RESULT:    -6.292      2.087      3.936
REMARK INTER + INTRA:         -17.231
REMARK INTER:                 -11.499
REMARK INTRA:                  -5.732
REMARK UNBOUND:                -5.053
REMARK  Name = cpd42.pdb
REMARK  18 active torsions:
REMARK  status: ('A' for Active; 'I' for Inactive)
REMARK    1  A    between atoms: C_1  and  C_2
REMARK    2  A    between atoms: C_6  and  N_7
REMARK    3  A    between atoms: N_7  and  C_8
REMARK    4  A    between atoms: C_13  and  C_14
REMARK    5  A    between atoms: N_16  and  C_17
REMARK    6  A    between atoms: C_17  and  C_18
REMARK    7  A    between atoms: C_18  and  C_19
REMARK    8  A    between atoms: N_21  and  C_22
REMARK    9  A    between atoms: C_22  and  C_23
REMARK   10  A    between atoms: C_23  and  C_24
REMARK   11  A    between atoms: C_24  and  C_25
REMARK   12  A    between atoms: C_25  and  C_26
REMARK   13  A    between atoms: C_26  and  C_27
REMARK   14  A    between atoms: C_27  and  C_28
REMARK   15  A    between atoms: C_28  and  C_29
REMARK   16  A    between atoms: C_29  and  N_30
REMARK   17  A    between atoms: N_30  and  C_31
REMARK   18  A    between atoms: C_45  and  C_46
REMARK                            x       y       z     vdW  Elec       q    Type
REMARK                         _______ _______ _______ _____ _____    ______ ____
ROOT
ATOM      1  C   UNL A   1      42.597 -19.404 -33.972  0.00  0.00    +0.215 C 
ATOM      2  O   UNL A   1      42.701 -19.022 -32.812  0.00  0.00    -0.276 OA
ATOM      3  N   UNL A   1      41.862 -20.503 -34.356  0.00  0.00    -0.315 N 
ATOM      4  H   UNL A   1      41.840 -20.748 -35.310  0.00  0.00    +0.000 HD
ENDROOT
BRANCH   3   5
ATOM      5  C   UNL A   1      41.118 -21.313 -33.410  0.00  0.00    +0.012 C 
BRANCH   5   6
ATOM      6  C   UNL A   1      39.683 -21.565 -33.873  0.00  0.00    -0.037 C 
BRANCH   6   7
ATOM      7  C   UNL A   1      39.388 -21.150 -35.320  0.00  0.00    -0.052 C 
BRANCH   7   8
ATOM      8  C   UNL A   1      39.368 -22.336 -36.288  0.00  0.00    -0.053 C 
BRANCH   8   9
ATOM      9  C   UNL A   1      40.625 -22.365 -37.163  0.00  0.00    -0.053 C 
BRANCH   9  10
ATOM     10  C   UNL A   1      40.332 -22.111 -38.646  0.00  0.00    -0.052 C 
BRANCH  10  11
ATOM     11  C   UNL A   1      39.853 -20.686 -38.928  0.00  0.00    -0.037 C 
BRANCH  11  12
ATOM     12  C   UNL A   1      40.827 -19.642 -38.376  0.00  0.00    +0.009 C 
BRANCH  12  13
ATOM     13  N   UNL A   1      40.289 -18.306 -38.667  0.00  0.00    -0.343 N 
ATOM     14  H   UNL A   1      39.528 -18.138 -39.267  0.00  0.00    +0.000 HD
BRANCH  13  15
ATOM     15  C   UNL A   1      41.001 -17.282 -37.977  0.00  0.00    +0.041 A 
ATOM     16  C   UNL A   1      42.082 -16.659 -38.634  0.00  0.00    -0.005 A 
ATOM     17  C   UNL A   1      42.782 -15.671 -37.940  0.00  0.00    +0.047 A 
ATOM     18  N   UNL A   1      42.502 -15.327 -36.661  0.00  0.00    -0.251 NA
ATOM     19  C   UNL A   1      41.490 -15.937 -36.029  0.00  0.00    +0.073 A 
ATOM     20  C   UNL A   1      41.225 -15.559 -34.719  0.00  0.00    -0.036 A 
ATOM     21  C   UNL A   1      40.195 -16.136 -33.976  0.00  0.00    -0.060 A 
ATOM     22  C   UNL A   1      39.405 -17.120 -34.550  0.00  0.00    -0.061 A 
ATOM     23  C   UNL A   1      39.652 -17.516 -35.865  0.00  0.00    -0.051 A 
ATOM     24  C   UNL A   1      40.696 -16.934 -36.631  0.00  0.00    +0.021 A 
ATOM     25  C   UNL A   1      43.951 -14.948 -38.557  0.00  0.00    -0.010 C 
ATOM     26  C   UNL A   1      43.956 -15.001 -40.080  0.00  0.00    -0.047 C 
ATOM     27  C   UNL A   1      43.752 -16.434 -40.547  0.00  0.00    -0.049 C 
ATOM     28  C   UNL A   1      42.395 -16.961 -40.082  0.00  0.00    -0.024 C 
ENDBRANCH  13  15
ENDBRANCH  12  13
ENDBRANCH  11  12
ENDBRANCH  10  11
ENDBRANCH   9  10
ENDBRANCH   8   9
ENDBRANCH   7   8
ENDBRANCH   6   7
ENDBRANCH   5   6
ENDBRANCH   3   5
BRANCH   1  29
ATOM     29  C   UNL A   1      43.320 -18.721 -35.109  0.00  0.00    +0.039 C 
BRANCH  29  30
ATOM     30  C   UNL A   1      44.510 -17.930 -34.584  0.00  0.00    +0.020 C 
BRANCH  30  33
ATOM     31  C   UNL A   1      46.634 -19.103 -35.347  0.00  0.00    +0.246 C 
ATOM     32  O   UNL A   1      47.309 -20.120 -35.206  0.00  0.00    -0.270 OA
ATOM     33  N   UNL A   1      45.687 -18.770 -34.408  0.00  0.00    -0.311 N 
ATOM     34  H   UNL A   1      45.820 -19.145 -33.507  0.00  0.00    +0.000 HD
BRANCH  31  40
ATOM     35  C   UNL A   1      46.531 -18.769 -37.826  0.00  0.00    +0.044 A 
ATOM     36  C   UNL A   1      46.664 -17.900 -38.923  0.00  0.00    -0.040 A 
ATOM     37  C   UNL A   1      47.186 -16.613 -38.769  0.00  0.00    -0.060 A 
ATOM     38  C   UNL A   1      47.564 -16.156 -37.510  0.00  0.00    -0.061 A 
ATOM     39  C   UNL A   1      47.388 -16.975 -36.397  0.00  0.00    -0.048 A 
ATOM     40  C   UNL A   1      46.833 -18.257 -36.547  0.00  0.00    +0.058 A 
BRANCH  35  41
ATOM     41  N   UNL A   1      45.960 -20.063 -37.988  0.00  0.00    -0.314 N 
ATOM     42  H   UNL A   1      45.963 -20.646 -37.194  0.00  0.00    +0.000 HD
BRANCH  41  48
ATOM     43  C   UNL A   1      46.410 -22.722 -42.207  0.00  0.00    -0.039 C 
ATOM     44  C   UNL A   1      45.622 -21.862 -41.256  0.00  0.00    -0.046 A 
ATOM     45  C   UNL A   1      44.303 -21.522 -41.592  0.00  0.00    -0.058 A 
ATOM     46  C   UNL A   1      43.541 -20.716 -40.752  0.00  0.00    -0.060 A 
ATOM     47  C   UNL A   1      44.082 -20.255 -39.556  0.00  0.00    -0.040 A 
ATOM     48  C   UNL A   1      45.386 -20.606 -39.171  0.00  0.00    +0.035 A 
ATOM     49  C   UNL A   1      46.186 -21.366 -40.055  0.00  0.00    -0.026 A 
ATOM     50  C   UNL A   1      47.604 -21.720 -39.675  0.00  0.00    -0.038 C 
ENDBRANCH  41  48
ENDBRANCH  35  41
ENDBRANCH  31  40
ENDBRANCH  30  33
ENDBRANCH  29  30
ENDBRANCH   1  29
TORSDOF 16
ENDMDL
MODEL 18
REMARK VINA RESULT:    -6.237      2.121      5.650
REMARK INTER + INTRA:         -17.124
REMARK INTER:                 -11.128
REMARK INTRA:                  -5.997
REMARK UNBOUND:                -5.053
REMARK  Name = cpd42.pdb
REMARK  18 active torsions:
REMARK  status: ('A' for Active; 'I' for Inactive)
REMARK    1  A    between atoms: C_1  and  C_2
REMARK    2  A    between atoms: C_6  and  N_7
REMARK    3  A    between atoms: N_7  and  C_8
REMARK    4  A    between atoms: C_13  and  C_14
REMARK    5  A    between atoms: N_16  and  C_17
REMARK    6  A    between atoms: C_17  and  C_18
REMARK    7  A    between atoms: C_18  and  C_19
REMARK    8  A    between atoms: N_21  and  C_22
REMARK    9  A    between atoms: C_22  and  C_23
REMARK   10  A    between atoms: C_23  and  C_24
REMARK   11  A    between atoms: C_24  and  C_25
REMARK   12  A    between atoms: C_25  and  C_26
REMARK   13  A    between atoms: C_26  and  C_27
REMARK   14  A    between atoms: C_27  and  C_28
REMARK   15  A    between atoms: C_28  and  C_29
REMARK   16  A    between atoms: C_29  and  N_30
REMARK   17  A    between atoms: N_30  and  C_31
REMARK   18  A    between atoms: C_45  and  C_46
REMARK                            x       y       z     vdW  Elec       q    Type
REMARK                         _______ _______ _______ _____ _____    ______ ____
ROOT
ATOM      1  C   UNL A   1      41.863 -14.839 -38.383  0.00  0.00    +0.215 C 
ATOM      2  O   UNL A   1      42.097 -13.808 -39.002  0.00  0.00    -0.276 OA
ATOM      3  N   UNL A   1      42.210 -15.039 -37.065  0.00  0.00    -0.315 N 
ATOM      4  H   UNL A   1      41.995 -15.904 -36.645  0.00  0.00    +0.000 HD
ENDROOT
BRANCH   3   5
ATOM      5  C   UNL A   1      42.879 -14.026 -36.272  0.00  0.00    +0.012 C 
BRANCH   5   6
ATOM      6  C   UNL A   1      42.581 -14.174 -34.780  0.00  0.00    -0.037 C 
BRANCH   6   7
ATOM      7  C   UNL A   1      42.480 -15.621 -34.282  0.00  0.00    -0.052 C 
BRANCH   7   8
ATOM      8  C   UNL A   1      41.210 -15.885 -33.468  0.00  0.00    -0.053 C 
BRANCH   8   9
ATOM      9  C   UNL A   1      41.196 -17.306 -32.898  0.00  0.00    -0.053 C 
BRANCH   9  10
ATOM     10  C   UNL A   1      40.445 -18.304 -33.786  0.00  0.00    -0.052 C 
BRANCH  10  11
ATOM     11  C   UNL A   1      39.553 -17.626 -34.829  0.00  0.00    -0.037 C 
BRANCH  11  12
ATOM     12  C   UNL A   1      39.828 -18.156 -36.237  0.00  0.00    +0.009 C 
BRANCH  12  13
ATOM     13  N   UNL A   1      38.753 -19.089 -36.601  0.00  0.00    -0.343 N 
ATOM     14  H   UNL A   1      37.826 -18.814 -36.791  0.00  0.00    +0.000 HD
BRANCH  13  15
ATOM     15  C   UNL A   1      39.208 -20.439 -36.647  0.00  0.00    +0.041 A 
ATOM     16  C   UNL A   1      38.879 -21.293 -35.575  0.00  0.00    -0.005 A 
ATOM     17  C   UNL A   1      39.349 -22.606 -35.624  0.00  0.00    +0.047 A 
ATOM     18  N   UNL A   1      40.138 -23.073 -36.620  0.00  0.00    -0.251 NA
ATOM     19  C   UNL A   1      40.470 -22.253 -37.626  0.00  0.00    +0.073 A 
ATOM     20  C   UNL A   1      41.277 -22.762 -38.634  0.00  0.00    -0.036 A 
ATOM     21  C   UNL A   1      41.680 -21.988 -39.723  0.00  0.00    -0.060 A 
ATOM     22  C   UNL A   1      41.270 -20.667 -39.812  0.00  0.00    -0.061 A 
ATOM     23  C   UNL A   1      40.458 -20.133 -38.811  0.00  0.00    -0.051 A 
ATOM     24  C   UNL A   1      40.041 -20.913 -37.700  0.00  0.00    +0.021 A 
ATOM     25  C   UNL A   1      39.049 -23.595 -34.527  0.00  0.00    -0.010 C 
ATOM     26  C   UNL A   1      37.829 -23.219 -33.694  0.00  0.00    -0.047 C 
ATOM     27  C   UNL A   1      37.931 -21.766 -33.257  0.00  0.00    -0.049 C 
ATOM     28  C   UNL A   1      37.950 -20.841 -34.472  0.00  0.00    -0.024 C 
ENDBRANCH  13  15
ENDBRANCH  12  13
ENDBRANCH  11  12
ENDBRANCH  10  11
ENDBRANCH   9  10
ENDBRANCH   8   9
ENDBRANCH   7   8
ENDBRANCH   6   7
ENDBRANCH   5   6
ENDBRANCH   3   5
BRANCH   1  29
ATOM     29  C   UNL A   1      41.204 -16.034 -39.032  0.00  0.00    +0.039 C 
BRANCH  29  30
ATOM     30  C   UNL A   1      42.255 -17.036 -39.491  0.00  0.00    +0.020 C 
BRANCH  30  33
ATOM     31  C   UNL A   1      44.685 -16.972 -40.237  0.00  0.00    +0.246 C 
ATOM     32  O   UNL A   1      45.735 -16.339 -40.141  0.00  0.00    -0.270 OA
ATOM     33  N   UNL A   1      43.493 -16.382 -39.892  0.00  0.00    -0.311 N 
ATOM     34  H   UNL A   1      43.472 -15.398 -39.918  0.00  0.00    +0.000 HD
BRANCH  31  40
ATOM     35  C   UNL A   1      45.294 -19.375 -39.889  0.00  0.00    +0.044 A 
ATOM     36  C   UNL A   1      45.234 -20.703 -40.345  0.00  0.00    -0.040 A 
ATOM     37  C   UNL A   1      44.729 -21.013 -41.611  0.00  0.00    -0.060 A 
ATOM     38  C   UNL A   1      44.251 -20.003 -42.441  0.00  0.00    -0.061 A 
ATOM     39  C   UNL A   1      44.244 -18.685 -41.990  0.00  0.00    -0.048 A 
ATOM     40  C   UNL A   1      44.721 -18.377 -40.705  0.00  0.00    +0.058 A 
BRANCH  35  41
ATOM     41  N   UNL A   1      45.773 -19.075 -38.582  0.00  0.00    -0.314 N 
ATOM     42  H   UNL A   1      46.719 -18.810 -38.511  0.00  0.00    +0.000 HD
BRANCH  41  48
ATOM     43  C   UNL A   1      45.324 -17.921 -33.730  0.00  0.00    -0.039 C 
ATOM     44  C   UNL A   1      44.842 -18.595 -34.986  0.00  0.00    -0.046 A 
ATOM     45  C   UNL A   1      43.664 -19.356 -34.930  0.00  0.00    -0.058 A 
ATOM     46  C   UNL A   1      43.187 -20.011 -36.061  0.00  0.00    -0.060 A 
ATOM     47  C   UNL A   1      43.872 -19.899 -37.267  0.00  0.00    -0.040 A 
ATOM     48  C   UNL A   1      45.033 -19.117 -37.367  0.00  0.00    +0.035 A 
ATOM     49  C   UNL A   1      45.559 -18.508 -36.204  0.00  0.00    -0.026 A 
ATOM     50  C   UNL A   1      46.829 -17.695 -36.286  0.00  0.00    -0.038 C 
ENDBRANCH  41  48
ENDBRANCH  35  41
ENDBRANCH  31  40
ENDBRANCH  30  33
ENDBRANCH  29  30
ENDBRANCH   1  29
TORSDOF 16
ENDMDL
MODEL 19
REMARK VINA RESULT:    -6.209      2.391      5.305
REMARK INTER + INTRA:         -17.071
REMARK INTER:                 -10.260
REMARK INTRA:                  -6.810
REMARK UNBOUND:                -5.053
REMARK  Name = cpd42.pdb
REMARK  18 active torsions:
REMARK  status: ('A' for Active; 'I' for Inactive)
REMARK    1  A    between atoms: C_1  and  C_2
REMARK    2  A    between atoms: C_6  and  N_7
REMARK    3  A    between atoms: N_7  and  C_8
REMARK    4  A    between atoms: C_13  and  C_14
REMARK    5  A    between atoms: N_16  and  C_17
REMARK    6  A    between atoms: C_17  and  C_18
REMARK    7  A    between atoms: C_18  and  C_19
REMARK    8  A    between atoms: N_21  and  C_22
REMARK    9  A    between atoms: C_22  and  C_23
REMARK   10  A    between atoms: C_23  and  C_24
REMARK   11  A    between atoms: C_24  and  C_25
REMARK   12  A    between atoms: C_25  and  C_26
REMARK   13  A    between atoms: C_26  and  C_27
REMARK   14  A    between atoms: C_27  and  C_28
REMARK   15  A    between atoms: C_28  and  C_29
REMARK   16  A    between atoms: C_29  and  N_30
REMARK   17  A    between atoms: N_30  and  C_31
REMARK   18  A    between atoms: C_45  and  C_46
REMARK                            x       y       z     vdW  Elec       q    Type
REMARK                         _______ _______ _______ _____ _____    ______ ____
ROOT
ATOM      1  C   UNL A   1      46.765 -19.158 -35.571  0.00  0.00    +0.215 C 
ATOM      2  O   UNL A   1      47.238 -18.230 -34.926  0.00  0.00    -0.276 OA
ATOM      3  N   UNL A   1      45.784 -20.001 -35.099  0.00  0.00    -0.315 N 
ATOM      4  H   UNL A   1      45.468 -20.731 -35.680  0.00  0.00    +0.000 HD
ENDROOT
BRANCH   3   5
ATOM      5  C   UNL A   1      45.198 -19.854 -33.780  0.00  0.00    +0.012 C 
BRANCH   5   6
ATOM      6  C   UNL A   1      44.069 -18.823 -33.764  0.00  0.00    -0.037 C 
BRANCH   6   7
ATOM      7  C   UNL A   1      44.291 -17.638 -32.817  0.00  0.00    -0.052 C 
BRANCH   7   8
ATOM      8  C   UNL A   1      44.345 -16.293 -33.548  0.00  0.00    -0.053 C 
BRANCH   8   9
ATOM      9  C   UNL A   1      43.993 -16.448 -35.030  0.00  0.00    -0.053 C 
BRANCH   9  10
ATOM     10  C   UNL A   1      42.623 -15.861 -35.389  0.00  0.00    -0.052 C 
BRANCH  10  11
ATOM     11  C   UNL A   1      41.804 -15.456 -34.161  0.00  0.00    -0.037 C 
BRANCH  11  12
ATOM     12  C   UNL A   1      40.602 -16.379 -33.954  0.00  0.00    +0.009 C 
BRANCH  12  13
ATOM     13  N   UNL A   1      40.810 -17.598 -34.747  0.00  0.00    -0.343 N 
ATOM     14  H   UNL A   1      41.697 -17.952 -34.989  0.00  0.00    +0.000 HD
BRANCH  13  15
ATOM     15  C   UNL A   1      39.578 -18.207 -35.126  0.00  0.00    +0.041 A 
ATOM     16  C   UNL A   1      39.112 -19.302 -34.371  0.00  0.00    -0.005 A 
ATOM     17  C   UNL A   1      37.915 -19.901 -34.766  0.00  0.00    +0.047 A 
ATOM     18  N   UNL A   1      37.218 -19.510 -35.858  0.00  0.00    -0.251 NA
ATOM     19  C   UNL A   1      37.675 -18.484 -36.589  0.00  0.00    +0.073 A 
ATOM     20  C   UNL A   1      36.935 -18.104 -37.702  0.00  0.00    -0.036 A 
ATOM     21  C   UNL A   1      37.328 -17.051 -38.528  0.00  0.00    -0.060 A 
ATOM     22  C   UNL A   1      38.491 -16.354 -38.241  0.00  0.00    -0.061 A 
ATOM     23  C   UNL A   1      39.251 -16.717 -37.129  0.00  0.00    -0.051 A 
ATOM     24  C   UNL A   1      38.859 -17.786 -36.281  0.00  0.00    +0.021 A 
ATOM     25  C   UNL A   1      37.336 -21.076 -34.022  0.00  0.00    -0.010 C 
ATOM     26  C   UNL A   1      37.849 -21.197 -32.592  0.00  0.00    -0.047 C 
ATOM     27  C   UNL A   1      39.367 -21.097 -32.579  0.00  0.00    -0.049 C 
ATOM     28  C   UNL A   1      39.818 -19.736 -33.107  0.00  0.00    -0.024 C 
ENDBRANCH  13  15
ENDBRANCH  12  13
ENDBRANCH  11  12
ENDBRANCH  10  11
ENDBRANCH   9  10
ENDBRANCH   8   9
ENDBRANCH   7   8
ENDBRANCH   6   7
ENDBRANCH   5   6
ENDBRANCH   3   5
BRANCH   1  29
ATOM     29  C   UNL A   1      47.259 -19.506 -36.956  0.00  0.00    +0.039 C 
BRANCH  29  30
ATOM     30  C   UNL A   1      46.345 -18.902 -38.014  0.00  0.00    +0.020 C 
BRANCH  30  33
ATOM     31  C   UNL A   1      44.567 -19.874 -39.551  0.00  0.00    +0.246 C 
ATOM     32  O   UNL A   1      44.006 -20.916 -39.883  0.00  0.00    -0.270 OA
ATOM     33  N   UNL A   1      45.764 -19.921 -38.877  0.00  0.00    -0.311 N 
ATOM     34  H   UNL A   1      46.293 -20.744 -38.991  0.00  0.00    +0.000 HD
BRANCH  31  40
ATOM     35  C   UNL A   1      42.824 -18.132 -39.107  0.00  0.00    +0.044 A 
ATOM     36  C   UNL A   1      42.307 -16.857 -39.394  0.00  0.00    -0.040 A 
ATOM     37  C   UNL A   1      42.795 -16.099 -40.462  0.00  0.00    -0.060 A 
ATOM     38  C   UNL A   1      43.828 -16.590 -41.255  0.00  0.00    -0.061 A 
ATOM     39  C   UNL A   1      44.399 -17.825 -40.957  0.00  0.00    -0.048 A 
ATOM     40  C   UNL A   1      43.932 -18.572 -39.863  0.00  0.00    +0.058 A 
BRANCH  35  41
ATOM     41  N   UNL A   1      42.348 -18.877 -37.992  0.00  0.00    -0.314 N 
ATOM     42  H   UNL A   1      42.830 -18.752 -37.142  0.00  0.00    +0.000 HD
BRANCH  41  48
ATOM     43  C   UNL A   1      40.004 -22.809 -35.962  0.00  0.00    -0.039 C 
ATOM     44  C   UNL A   1      40.137 -21.736 -37.009  0.00  0.00    -0.046 A 
ATOM     45  C   UNL A   1      39.189 -21.685 -38.042  0.00  0.00    -0.058 A 
ATOM     46  C   UNL A   1      39.279 -20.722 -39.042  0.00  0.00    -0.060 A 
ATOM     47  C   UNL A   1      40.309 -19.785 -39.011  0.00  0.00    -0.040 A 
ATOM     48  C   UNL A   1      41.252 -19.785 -37.972  0.00  0.00    +0.035 A 
ATOM     49  C   UNL A   1      41.204 -20.806 -36.994  0.00  0.00    -0.026 A 
ATOM     50  C   UNL A   1      42.235 -20.844 -35.891  0.00  0.00    -0.038 C 
ENDBRANCH  41  48
ENDBRANCH  35  41
ENDBRANCH  31  40
ENDBRANCH  30  33
ENDBRANCH  29  30
ENDBRANCH   1  29
TORSDOF 16
ENDMDL
MODEL 20
REMARK VINA RESULT:    -6.189      2.093      4.535
REMARK INTER + INTRA:         -17.030
REMARK INTER:                 -11.410
REMARK INTRA:                  -5.620
REMARK UNBOUND:                -5.053
REMARK  Name = cpd42.pdb
REMARK  18 active torsions:
REMARK  status: ('A' for Active; 'I' for Inactive)
REMARK    1  A    between atoms: C_1  and  C_2
REMARK    2  A    between atoms: C_6  and  N_7
REMARK    3  A    between atoms: N_7  and  C_8
REMARK    4  A    between atoms: C_13  and  C_14
REMARK    5  A    between atoms: N_16  and  C_17
REMARK    6  A    between atoms: C_17  and  C_18
REMARK    7  A    between atoms: C_18  and  C_19
REMARK    8  A    between atoms: N_21  and  C_22
REMARK    9  A    between atoms: C_22  and  C_23
REMARK   10  A    between atoms: C_23  and  C_24
REMARK   11  A    between atoms: C_24  and  C_25
REMARK   12  A    between atoms: C_25  and  C_26
REMARK   13  A    between atoms: C_26  and  C_27
REMARK   14  A    between atoms: C_27  and  C_28
REMARK   15  A    between atoms: C_28  and  C_29
REMARK   16  A    between atoms: C_29  and  N_30
REMARK   17  A    between atoms: N_30  and  C_31
REMARK   18  A    between atoms: C_45  and  C_46
REMARK                            x       y       z     vdW  Elec       q    Type
REMARK                         _______ _______ _______ _____ _____    ______ ____
ROOT
ATOM      1  C   UNL A   1      42.573 -19.309 -33.989  0.00  0.00    +0.215 C 
ATOM      2  O   UNL A   1      42.679 -18.954 -32.821  0.00  0.00    -0.276 OA
ATOM      3  N   UNL A   1      41.864 -20.418 -34.395  0.00  0.00    -0.315 N 
ATOM      4  H   UNL A   1      41.840 -20.640 -35.354  0.00  0.00    +0.000 HD
ENDROOT
BRANCH   3   5
ATOM      5  C   UNL A   1      41.152 -21.272 -33.463  0.00  0.00    +0.012 C 
BRANCH   5   6
ATOM      6  C   UNL A   1      39.716 -21.543 -33.914  0.00  0.00    -0.037 C 
BRANCH   6   7
ATOM      7  C   UNL A   1      39.409 -21.146 -35.363  0.00  0.00    -0.052 C 
BRANCH   7   8
ATOM      8  C   UNL A   1      39.392 -22.344 -36.318  0.00  0.00    -0.053 C 
BRANCH   8   9
ATOM      9  C   UNL A   1      40.647 -22.377 -37.195  0.00  0.00    -0.053 C 
BRANCH   9  10
ATOM     10  C   UNL A   1      40.352 -22.131 -38.679  0.00  0.00    -0.052 C 
BRANCH  10  11
ATOM     11  C   UNL A   1      39.867 -20.709 -38.967  0.00  0.00    -0.037 C 
BRANCH  11  12
ATOM     12  C   UNL A   1      40.869 -19.661 -38.481  0.00  0.00    +0.009 C 
BRANCH  12  13
ATOM     13  N   UNL A   1      40.349 -18.329 -38.821  0.00  0.00    -0.343 N 
ATOM     14  H   UNL A   1      39.546 -18.175 -39.369  0.00  0.00    +0.000 HD
BRANCH  13  15
ATOM     15  C   UNL A   1      41.144 -17.286 -38.262  0.00  0.00    +0.041 A 
ATOM     16  C   UNL A   1      40.820 -16.812 -36.975  0.00  0.00    -0.005 A 
ATOM     17  C   UNL A   1      41.595 -15.777 -36.450  0.00  0.00    +0.047 A 
ATOM     18  N   UNL A   1      42.599 -15.183 -37.136  0.00  0.00    -0.251 NA
ATOM     19  C   UNL A   1      42.891 -15.618 -38.370  0.00  0.00    +0.073 A 
ATOM     20  C   UNL A   1      43.929 -14.992 -39.047  0.00  0.00    -0.036 A 
ATOM     21  C   UNL A   1      44.308 -15.370 -40.335  0.00  0.00    -0.060 A 
ATOM     22  C   UNL A   1      43.634 -16.400 -40.971  0.00  0.00    -0.061 A 
ATOM     23  C   UNL A   1      42.587 -17.045 -40.312  0.00  0.00    -0.051 A 
ATOM     24  C   UNL A   1      42.196 -16.670 -39.000  0.00  0.00    +0.021 A 
ATOM     25  C   UNL A   1      41.327 -15.204 -35.082  0.00  0.00    -0.010 C 
ATOM     26  C   UNL A   1      40.545 -16.148 -34.176  0.00  0.00    -0.047 C 
ATOM     27  C   UNL A   1      39.326 -16.679 -34.915  0.00  0.00    -0.049 C 
ATOM     28  C   UNL A   1      39.751 -17.482 -36.143  0.00  0.00    -0.024 C 
ENDBRANCH  13  15
ENDBRANCH  12  13
ENDBRANCH  11  12
ENDBRANCH  10  11
ENDBRANCH   9  10
ENDBRANCH   8   9
ENDBRANCH   7   8
ENDBRANCH   6   7
ENDBRANCH   5   6
ENDBRANCH   3   5
BRANCH   1  29
ATOM     29  C   UNL A   1      43.267 -18.579 -35.116  0.00  0.00    +0.039 C 
BRANCH  29  30
ATOM     30  C   UNL A   1      44.439 -17.767 -34.581  0.00  0.00    +0.020 C 
BRANCH  30  33
ATOM     31  C   UNL A   1      46.595 -18.957 -35.219  0.00  0.00    +0.246 C 
ATOM     32  O   UNL A   1      47.265 -19.968 -35.021  0.00  0.00    -0.270 OA
ATOM     33  N   UNL A   1      45.608 -18.600 -34.332  0.00  0.00    -0.311 N 
ATOM     34  H   UNL A   1      45.702 -18.950 -33.416  0.00  0.00    +0.000 HD
BRANCH  31  40
ATOM     35  C   UNL A   1      46.591 -18.686 -37.709  0.00  0.00    +0.044 A 
ATOM     36  C   UNL A   1      46.772 -17.846 -38.821  0.00  0.00    -0.040 A 
ATOM     37  C   UNL A   1      47.294 -16.557 -38.680  0.00  0.00    -0.060 A 
ATOM     38  C   UNL A   1      47.625 -16.070 -37.419  0.00  0.00    -0.061 A 
ATOM     39  C   UNL A   1      47.401 -16.859 -36.293  0.00  0.00    -0.048 A 
ATOM     40  C   UNL A   1      46.845 -18.142 -36.431  0.00  0.00    +0.058 A 
BRANCH  35  41
ATOM     41  N   UNL A   1      46.021 -19.981 -37.859  0.00  0.00    -0.314 N 
ATOM     42  H   UNL A   1      46.020 -20.556 -37.059  0.00  0.00    +0.000 HD
BRANCH  41  48
ATOM     43  C   UNL A   1      46.515 -22.598 -42.100  0.00  0.00    -0.039 C 
ATOM     44  C   UNL A   1      45.709 -21.771 -41.135  0.00  0.00    -0.046 A 
ATOM     45  C   UNL A   1      44.376 -21.474 -41.454  0.00  0.00    -0.058 A 
ATOM     46  C   UNL A   1      43.595 -20.700 -40.601  0.00  0.00    -0.060 A 
ATOM     47  C   UNL A   1      44.134 -20.228 -39.408  0.00  0.00    -0.040 A 
ATOM     48  C   UNL A   1      45.453 -20.537 -39.039  0.00  0.00    +0.035 A 
ATOM     49  C   UNL A   1      46.269 -21.263 -39.937  0.00  0.00    -0.026 A 
ATOM     50  C   UNL A   1      47.702 -21.570 -39.574  0.00  0.00    -0.038 C 
ENDBRANCH  41  48
ENDBRANCH  35  41
ENDBRANCH  31  40
ENDBRANCH  30  33
ENDBRANCH  29  30
ENDBRANCH   1  29
TORSDOF 16
ENDMDL
