MODEL 1
REMARK VINA RESULT:    -7.618      0.000      0.000
REMARK INTER + INTRA:          -9.523
REMARK INTER:                  -8.953
REMARK INTRA:                  -0.569
REMARK UNBOUND:                -0.569
REMARK  Name = cpd162.pdb
REMARK  6 active torsions:
REMARK  status: ('A' for Active; 'I' for Inactive)
REMARK    1  A    between atoms: C_1  and  C_2
REMARK    2  A    between atoms: C_2  and  C_3
REMARK    3  A    between atoms: C_2  and  C_4
REMARK    4  A    between atoms: C_2  and  C_5
REMARK    5  A    between atoms: C_9  and  C_10
REMARK    6  A    between atoms: C_10  and  C_12
REMARK                            x       y       z     vdW  Elec       q    Type
REMARK                         _______ _______ _______ _____ _____    ______ ____
ROOT
ATOM      1  C   UNL A   1      37.801 -36.764 -30.109  0.00  0.00    -0.041 A 
ATOM      2  C   UNL A   1      36.929 -35.721 -30.462  0.00  0.00    -0.058 A 
ATOM      3  C   UNL A   1      37.333 -34.688 -31.312  0.00  0.00    -0.061 A 
ATOM      4  C   UNL A   1      38.619 -34.676 -31.847  0.00  0.00    -0.051 A 
ATOM      5  C   UNL A   1      39.503 -35.719 -31.555  0.00  0.00    +0.027 A 
ATOM      6  C   UNL A   1      39.080 -36.755 -30.699  0.00  0.00    -0.047 A 
ENDROOT
BRANCH   1   8
ATOM      7  C   UNL A   1      36.522 -37.335 -27.958  0.00  0.00    -0.056 C 
ATOM      8  C   UNL A   1      37.368 -37.876 -29.135  0.00  0.00    -0.013 C 
ATOM      9  C   UNL A   1      36.503 -38.952 -29.833  0.00  0.00    -0.056 C 
ATOM     10  C   UNL A   1      38.626 -38.553 -28.560  0.00  0.00    -0.056 C 
ENDBRANCH   1   8
BRANCH   5  11
ATOM     11  C   UNL A   1      40.893 -35.782 -32.107  0.00  0.00    +0.265 C 
ATOM     12  O   UNL A   1      41.054 -35.626 -33.320  0.00  0.00    -0.283 OA
BRANCH  11  13
ATOM     13  C   UNL A   1      42.037 -36.055 -31.146  0.00  0.00    +0.455 C 
ATOM     14  F   UNL A   1      43.233 -35.611 -31.629  0.00  0.00    -0.163 F 
ATOM     15  F   UNL A   1      42.203 -37.385 -30.894  0.00  0.00    -0.163 F 
ATOM     16  F   UNL A   1      41.874 -35.460 -29.933  0.00  0.00    -0.163 F 
ENDBRANCH  11  13
ENDBRANCH   5  11
TORSDOF 3
ENDMDL
MODEL 2
REMARK VINA RESULT:    -7.597      1.570      2.876
REMARK INTER + INTRA:          -9.498
REMARK INTER:                  -8.966
REMARK INTRA:                  -0.533
REMARK UNBOUND:                -0.569
REMARK  Name = cpd162.pdb
REMARK  6 active torsions:
REMARK  status: ('A' for Active; 'I' for Inactive)
REMARK    1  A    between atoms: C_1  and  C_2
REMARK    2  A    between atoms: C_2  and  C_3
REMARK    3  A    between atoms: C_2  and  C_4
REMARK    4  A    between atoms: C_2  and  C_5
REMARK    5  A    between atoms: C_9  and  C_10
REMARK    6  A    between atoms: C_10  and  C_12
REMARK                            x       y       z     vdW  Elec       q    Type
REMARK                         _______ _______ _______ _____ _____    ______ ____
ROOT
ATOM      1  C   UNL A   1      38.006 -37.270 -29.479  0.00  0.00    -0.041 A 
ATOM      2  C   UNL A   1      38.493 -37.995 -28.379  0.00  0.00    -0.058 A 
ATOM      3  C   UNL A   1      39.834 -38.377 -28.294  0.00  0.00    -0.061 A 
ATOM      4  C   UNL A   1      40.732 -38.032 -29.301  0.00  0.00    -0.051 A 
ATOM      5  C   UNL A   1      40.297 -37.274 -30.390  0.00  0.00    +0.027 A 
ATOM      6  C   UNL A   1      38.942 -36.893 -30.461  0.00  0.00    -0.047 A 
ENDROOT
BRANCH   1   8
ATOM      7  C   UNL A   1      35.819 -36.814 -28.215  0.00  0.00    -0.056 C 
ATOM      8  C   UNL A   1      36.517 -36.890 -29.593  0.00  0.00    -0.013 C 
ATOM      9  C   UNL A   1      36.323 -35.505 -30.255  0.00  0.00    -0.056 C 
ATOM     10  C   UNL A   1      35.797 -37.949 -30.448  0.00  0.00    -0.056 C 
ENDBRANCH   1   8
BRANCH   5  11
ATOM     11  C   UNL A   1      41.208 -36.851 -31.500  0.00  0.00    +0.265 C 
ATOM     12  O   UNL A   1      41.963 -37.690 -31.997  0.00  0.00    -0.283 OA
BRANCH  11  13
ATOM     13  C   UNL A   1      41.172 -35.400 -31.947  0.00  0.00    +0.455 C 
ATOM     14  F   UNL A   1      40.920 -34.548 -30.913  0.00  0.00    -0.163 F 
ATOM     15  F   UNL A   1      40.202 -35.162 -32.876  0.00  0.00    -0.163 F 
ATOM     16  F   UNL A   1      42.339 -34.981 -32.509  0.00  0.00    -0.163 F 
ENDBRANCH  11  13
ENDBRANCH   5  11
TORSDOF 3
ENDMDL
MODEL 3
REMARK VINA RESULT:    -7.515      1.836      2.521
REMARK INTER + INTRA:          -9.402
REMARK INTER:                  -9.047
REMARK INTRA:                  -0.355
REMARK UNBOUND:                -0.569
REMARK  Name = cpd162.pdb
REMARK  6 active torsions:
REMARK  status: ('A' for Active; 'I' for Inactive)
REMARK    1  A    between atoms: C_1  and  C_2
REMARK    2  A    between atoms: C_2  and  C_3
REMARK    3  A    between atoms: C_2  and  C_4
REMARK    4  A    between atoms: C_2  and  C_5
REMARK    5  A    between atoms: C_9  and  C_10
REMARK    6  A    between atoms: C_10  and  C_12
REMARK                            x       y       z     vdW  Elec       q    Type
REMARK                         _______ _______ _______ _____ _____    ______ ____
ROOT
ATOM      1  C   UNL A   1      37.843 -36.325 -30.704  0.00  0.00    -0.041 A 
ATOM      2  C   UNL A   1      38.023 -35.411 -31.755  0.00  0.00    -0.058 A 
ATOM      3  C   UNL A   1      39.277 -35.202 -32.332  0.00  0.00    -0.061 A 
ATOM      4  C   UNL A   1      40.389 -35.912 -31.884  0.00  0.00    -0.051 A 
ATOM      5  C   UNL A   1      40.243 -36.862 -30.870  0.00  0.00    +0.027 A 
ATOM      6  C   UNL A   1      38.971 -37.065 -30.299  0.00  0.00    -0.047 A 
ENDROOT
BRANCH   1   8
ATOM      7  C   UNL A   1      35.633 -35.217 -30.009  0.00  0.00    -0.056 C 
ATOM      8  C   UNL A   1      36.467 -36.520 -30.037  0.00  0.00    -0.013 C 
ATOM      9  C   UNL A   1      35.608 -37.570 -30.782  0.00  0.00    -0.056 C 
ATOM     10  C   UNL A   1      36.679 -36.995 -28.588  0.00  0.00    -0.056 C 
ENDBRANCH   1   8
BRANCH   5  11
ATOM     11  C   UNL A   1      41.388 -37.675 -30.350  0.00  0.00    +0.265 C 
ATOM     12  O   UNL A   1      41.361 -38.050 -29.176  0.00  0.00    -0.283 OA
BRANCH  11  13
ATOM     13  C   UNL A   1      42.538 -37.982 -31.293  0.00  0.00    +0.455 C 
ATOM     14  F   UNL A   1      43.132 -39.177 -31.011  0.00  0.00    -0.163 F 
ATOM     15  F   UNL A   1      43.529 -37.047 -31.233  0.00  0.00    -0.163 F 
ATOM     16  F   UNL A   1      42.161 -38.046 -32.600  0.00  0.00    -0.163 F 
ENDBRANCH  11  13
ENDBRANCH   5  11
TORSDOF 3
ENDMDL
MODEL 4
REMARK VINA RESULT:    -7.515      1.554      2.792
REMARK INTER + INTRA:          -9.402
REMARK INTER:                  -9.110
REMARK INTRA:                  -0.292
REMARK UNBOUND:                -0.569
REMARK  Name = cpd162.pdb
REMARK  6 active torsions:
REMARK  status: ('A' for Active; 'I' for Inactive)
REMARK    1  A    between atoms: C_1  and  C_2
REMARK    2  A    between atoms: C_2  and  C_3
REMARK    3  A    between atoms: C_2  and  C_4
REMARK    4  A    between atoms: C_2  and  C_5
REMARK    5  A    between atoms: C_9  and  C_10
REMARK    6  A    between atoms: C_10  and  C_12
REMARK                            x       y       z     vdW  Elec       q    Type
REMARK                         _______ _______ _______ _____ _____    ______ ____
ROOT
ATOM      1  C   UNL A   1      37.857 -37.120 -29.790  0.00  0.00    -0.041 A 
ATOM      2  C   UNL A   1      38.145 -37.934 -28.682  0.00  0.00    -0.058 A 
ATOM      3  C   UNL A   1      39.450 -38.342 -28.397  0.00  0.00    -0.061 A 
ATOM      4  C   UNL A   1      40.510 -37.935 -29.204  0.00  0.00    -0.051 A 
ATOM      5  C   UNL A   1      40.271 -37.089 -30.290  0.00  0.00    +0.027 A 
ATOM      6  C   UNL A   1      38.950 -36.683 -30.564  0.00  0.00    -0.047 A 
ENDROOT
BRANCH   1   8
ATOM      7  C   UNL A   1      36.351 -35.517 -31.114  0.00  0.00    -0.056 C 
ATOM      8  C   UNL A   1      36.411 -36.709 -30.130  0.00  0.00    -0.013 C 
ATOM      9  C   UNL A   1      35.625 -37.863 -30.797  0.00  0.00    -0.056 C 
ATOM     10  C   UNL A   1      35.689 -36.308 -28.831  0.00  0.00    -0.056 C 
ENDBRANCH   1   8
BRANCH   5  11
ATOM     11  C   UNL A   1      41.362 -36.597 -31.190  0.00  0.00    +0.265 C 
ATOM     12  O   UNL A   1      41.461 -35.384 -31.390  0.00  0.00    -0.283 OA
BRANCH  11  13
ATOM     13  C   UNL A   1      42.284 -37.621 -31.829  0.00  0.00    +0.455 C 
ATOM     14  F   UNL A   1      43.594 -37.247 -31.764  0.00  0.00    -0.163 F 
ATOM     15  F   UNL A   1      42.013 -37.816 -33.151  0.00  0.00    -0.163 F 
ATOM     16  F   UNL A   1      42.212 -38.849 -31.245  0.00  0.00    -0.163 F 
ENDBRANCH  11  13
ENDBRANCH   5  11
TORSDOF 3
ENDMDL
MODEL 5
REMARK VINA RESULT:    -7.269      3.524      5.277
REMARK INTER + INTRA:          -9.113
REMARK INTER:                  -8.514
REMARK INTRA:                  -0.600
REMARK UNBOUND:                -0.569
REMARK  Name = cpd162.pdb
REMARK  6 active torsions:
REMARK  status: ('A' for Active; 'I' for Inactive)
REMARK    1  A    between atoms: C_1  and  C_2
REMARK    2  A    between atoms: C_2  and  C_3
REMARK    3  A    between atoms: C_2  and  C_4
REMARK    4  A    between atoms: C_2  and  C_5
REMARK    5  A    between atoms: C_9  and  C_10
REMARK    6  A    between atoms: C_10  and  C_12
REMARK                            x       y       z     vdW  Elec       q    Type
REMARK                         _______ _______ _______ _____ _____    ______ ____
ROOT
ATOM      1  C   UNL A   1      39.731 -36.332 -31.427  0.00  0.00    -0.041 A 
ATOM      2  C   UNL A   1      38.758 -35.345 -31.655  0.00  0.00    -0.058 A 
ATOM      3  C   UNL A   1      37.557 -35.327 -30.944  0.00  0.00    -0.061 A 
ATOM      4  C   UNL A   1      37.298 -36.288 -29.969  0.00  0.00    -0.051 A 
ATOM      5  C   UNL A   1      38.259 -37.261 -29.681  0.00  0.00    +0.027 A 
ATOM      6  C   UNL A   1      39.468 -37.265 -30.405  0.00  0.00    -0.047 A 
ENDROOT
BRANCH   1   8
ATOM      7  C   UNL A   1      41.937 -37.573 -31.855  0.00  0.00    -0.056 C 
ATOM      8  C   UNL A   1      41.036 -36.378 -32.246  0.00  0.00    -0.013 C 
ATOM      9  C   UNL A   1      40.761 -36.518 -33.762  0.00  0.00    -0.056 C 
ATOM     10  C   UNL A   1      41.820 -35.075 -32.006  0.00  0.00    -0.056 C 
ENDBRANCH   1   8
BRANCH   5  11
ATOM     11  C   UNL A   1      38.058 -38.314 -28.636  0.00  0.00    +0.265 C 
ATOM     12  O   UNL A   1      38.789 -38.307 -27.643  0.00  0.00    -0.283 OA
BRANCH  11  13
ATOM     13  C   UNL A   1      36.974 -39.354 -28.861  0.00  0.00    +0.455 C 
ATOM     14  F   UNL A   1      35.874 -39.127 -28.088  0.00  0.00    -0.163 F 
ATOM     15  F   UNL A   1      37.390 -40.618 -28.562  0.00  0.00    -0.163 F 
ATOM     16  F   UNL A   1      36.530 -39.399 -30.147  0.00  0.00    -0.163 F 
ENDBRANCH  11  13
ENDBRANCH   5  11
TORSDOF 3
ENDMDL
MODEL 6
REMARK VINA RESULT:    -7.260      3.450      5.524
REMARK INTER + INTRA:          -9.102
REMARK INTER:                  -8.497
REMARK INTRA:                  -0.605
REMARK UNBOUND:                -0.569
REMARK  Name = cpd162.pdb
REMARK  6 active torsions:
REMARK  status: ('A' for Active; 'I' for Inactive)
REMARK    1  A    between atoms: C_1  and  C_2
REMARK    2  A    between atoms: C_2  and  C_3
REMARK    3  A    between atoms: C_2  and  C_4
REMARK    4  A    between atoms: C_2  and  C_5
REMARK    5  A    between atoms: C_9  and  C_10
REMARK    6  A    between atoms: C_10  and  C_12
REMARK                            x       y       z     vdW  Elec       q    Type
REMARK                         _______ _______ _______ _____ _____    ______ ____
ROOT
ATOM      1  C   UNL A   1      40.227 -36.859 -30.550  0.00  0.00    -0.041 A 
ATOM      2  C   UNL A   1      40.671 -37.642 -29.472  0.00  0.00    -0.058 A 
ATOM      3  C   UNL A   1      39.772 -38.306 -28.635  0.00  0.00    -0.061 A 
ATOM      4  C   UNL A   1      38.400 -38.220 -28.860  0.00  0.00    -0.051 A 
ATOM      5  C   UNL A   1      37.920 -37.486 -29.948  0.00  0.00    +0.027 A 
ATOM      6  C   UNL A   1      38.839 -36.824 -30.786  0.00  0.00    -0.047 A 
ENDROOT
BRANCH   1   8
ATOM      7  C   UNL A   1      42.649 -36.062 -30.854  0.00  0.00    -0.056 C 
ATOM      8  C   UNL A   1      41.218 -36.088 -31.444  0.00  0.00    -0.013 C 
ATOM      9  C   UNL A   1      41.340 -36.721 -32.850  0.00  0.00    -0.056 C 
ATOM     10  C   UNL A   1      40.727 -34.638 -31.598  0.00  0.00    -0.056 C 
ENDBRANCH   1   8
BRANCH   5  11
ATOM     11  C   UNL A   1      36.462 -37.363 -30.262  0.00  0.00    +0.265 C 
ATOM     12  O   UNL A   1      35.937 -38.220 -30.977  0.00  0.00    -0.283 OA
BRANCH  11  13
ATOM     13  C   UNL A   1      35.702 -36.174 -29.700  0.00  0.00    +0.455 C 
ATOM     14  F   UNL A   1      34.412 -36.131 -30.138  0.00  0.00    -0.163 F 
ATOM     15  F   UNL A   1      36.260 -34.981 -30.055  0.00  0.00    -0.163 F 
ATOM     16  F   UNL A   1      35.641 -36.169 -28.340  0.00  0.00    -0.163 F 
ENDBRANCH  11  13
ENDBRANCH   5  11
TORSDOF 3
ENDMDL
MODEL 7
REMARK VINA RESULT:    -7.242      1.587      2.807
REMARK INTER + INTRA:          -9.081
REMARK INTER:                  -8.678
REMARK INTRA:                  -0.402
REMARK UNBOUND:                -0.569
REMARK  Name = cpd162.pdb
REMARK  6 active torsions:
REMARK  status: ('A' for Active; 'I' for Inactive)
REMARK    1  A    between atoms: C_1  and  C_2
REMARK    2  A    between atoms: C_2  and  C_3
REMARK    3  A    between atoms: C_2  and  C_4
REMARK    4  A    between atoms: C_2  and  C_5
REMARK    5  A    between atoms: C_9  and  C_10
REMARK    6  A    between atoms: C_10  and  C_12
REMARK                            x       y       z     vdW  Elec       q    Type
REMARK                         _______ _______ _______ _____ _____    ______ ____
ROOT
ATOM      1  C   UNL A   1      38.070 -37.847 -29.466  0.00  0.00    -0.041 A 
ATOM      2  C   UNL A   1      39.084 -38.298 -28.605  0.00  0.00    -0.058 A 
ATOM      3  C   UNL A   1      40.422 -37.954 -28.812  0.00  0.00    -0.061 A 
ATOM      4  C   UNL A   1      40.784 -37.135 -29.880  0.00  0.00    -0.051 A 
ATOM      5  C   UNL A   1      39.799 -36.631 -30.733  0.00  0.00    +0.027 A 
ATOM      6  C   UNL A   1      38.453 -36.983 -30.510  0.00  0.00    -0.047 A 
ENDROOT
BRANCH   1   8
ATOM      7  C   UNL A   1      36.467 -39.706 -28.712  0.00  0.00    -0.056 C 
ATOM      8  C   UNL A   1      36.601 -38.266 -29.263  0.00  0.00    -0.013 C 
ATOM      9  C   UNL A   1      35.872 -37.347 -28.254  0.00  0.00    -0.056 C 
ATOM     10  C   UNL A   1      35.870 -38.191 -30.615  0.00  0.00    -0.056 C 
ENDBRANCH   1   8
BRANCH   5  11
ATOM     11  C   UNL A   1      40.111 -35.732 -31.889  0.00  0.00    +0.265 C 
ATOM     12  O   UNL A   1      39.433 -34.713 -32.045  0.00  0.00    -0.283 OA
BRANCH  11  13
ATOM     13  C   UNL A   1      41.239 -36.129 -32.826  0.00  0.00    +0.455 C 
ATOM     14  F   UNL A   1      41.624 -37.425 -32.649  0.00  0.00    -0.163 F 
ATOM     15  F   UNL A   1      42.360 -35.375 -32.645  0.00  0.00    -0.163 F 
ATOM     16  F   UNL A   1      40.912 -36.008 -34.142  0.00  0.00    -0.163 F 
ENDBRANCH  11  13
ENDBRANCH   5  11
TORSDOF 3
ENDMDL
MODEL 8
REMARK VINA RESULT:    -7.071      3.674      5.423
REMARK INTER + INTRA:          -8.881
REMARK INTER:                  -8.528
REMARK INTRA:                  -0.352
REMARK UNBOUND:                -0.569
REMARK  Name = cpd162.pdb
REMARK  6 active torsions:
REMARK  status: ('A' for Active; 'I' for Inactive)
REMARK    1  A    between atoms: C_1  and  C_2
REMARK    2  A    between atoms: C_2  and  C_3
REMARK    3  A    between atoms: C_2  and  C_4
REMARK    4  A    between atoms: C_2  and  C_5
REMARK    5  A    between atoms: C_9  and  C_10
REMARK    6  A    between atoms: C_10  and  C_12
REMARK                            x       y       z     vdW  Elec       q    Type
REMARK                         _______ _______ _______ _____ _____    ______ ____
ROOT
ATOM      1  C   UNL A   1      40.423 -36.855 -30.997  0.00  0.00    -0.041 A 
ATOM      2  C   UNL A   1      39.758 -35.868 -31.744  0.00  0.00    -0.058 A 
ATOM      3  C   UNL A   1      38.427 -35.531 -31.485  0.00  0.00    -0.061 A 
ATOM      4  C   UNL A   1      37.725 -36.162 -30.460  0.00  0.00    -0.051 A 
ATOM      5  C   UNL A   1      38.364 -37.118 -29.667  0.00  0.00    +0.027 A 
ATOM      6  C   UNL A   1      39.708 -37.445 -29.937  0.00  0.00    -0.047 A 
ENDROOT
BRANCH   1   8
ATOM      7  C   UNL A   1      42.082 -37.594 -32.811  0.00  0.00    -0.056 C 
ATOM      8  C   UNL A   1      41.876 -37.258 -31.315  0.00  0.00    -0.013 C 
ATOM      9  C   UNL A   1      42.875 -36.124 -30.983  0.00  0.00    -0.056 C 
ATOM     10  C   UNL A   1      42.243 -38.498 -30.481  0.00  0.00    -0.056 C 
ENDBRANCH   1   8
BRANCH   5  11
ATOM     11  C   UNL A   1      37.679 -37.823 -28.538  0.00  0.00    +0.265 C 
ATOM     12  O   UNL A   1      38.355 -38.528 -27.785  0.00  0.00    -0.283 OA
BRANCH  11  13
ATOM     13  C   UNL A   1      36.177 -37.651 -28.387  0.00  0.00    +0.455 C 
ATOM     14  F   UNL A   1      35.501 -38.012 -29.514  0.00  0.00    -0.163 F 
ATOM     15  F   UNL A   1      35.822 -36.359 -28.131  0.00  0.00    -0.163 F 
ATOM     16  F   UNL A   1      35.650 -38.393 -27.374  0.00  0.00    -0.163 F 
ENDBRANCH  11  13
ENDBRANCH   5  11
TORSDOF 3
ENDMDL
MODEL 9
REMARK VINA RESULT:    -6.717      3.889      6.072
REMARK INTER + INTRA:          -8.464
REMARK INTER:                  -7.855
REMARK INTRA:                  -0.609
REMARK UNBOUND:                -0.569
REMARK  Name = cpd162.pdb
REMARK  6 active torsions:
REMARK  status: ('A' for Active; 'I' for Inactive)
REMARK    1  A    between atoms: C_1  and  C_2
REMARK    2  A    between atoms: C_2  and  C_3
REMARK    3  A    between atoms: C_2  and  C_4
REMARK    4  A    between atoms: C_2  and  C_5
REMARK    5  A    between atoms: C_9  and  C_10
REMARK    6  A    between atoms: C_10  and  C_12
REMARK                            x       y       z     vdW  Elec       q    Type
REMARK                         _______ _______ _______ _____ _____    ______ ____
ROOT
ATOM      1  C   UNL A   1      42.733 -36.987 -31.115  0.00  0.00    -0.041 A 
ATOM      2  C   UNL A   1      43.784 -36.078 -30.909  0.00  0.00    -0.058 A 
ATOM      3  C   UNL A   1      44.992 -36.479 -30.334  0.00  0.00    -0.061 A 
ATOM      4  C   UNL A   1      45.192 -37.806 -29.962  0.00  0.00    -0.051 A 
ATOM      5  C   UNL A   1      44.188 -38.750 -30.190  0.00  0.00    +0.027 A 
ATOM      6  C   UNL A   1      42.975 -38.332 -30.774  0.00  0.00    -0.047 A 
ENDROOT
BRANCH   1   8
ATOM      7  C   UNL A   1      41.203 -34.997 -31.654  0.00  0.00    -0.056 C 
ATOM      8  C   UNL A   1      41.384 -36.533 -31.705  0.00  0.00    -0.013 C 
ATOM      9  C   UNL A   1      41.239 -36.938 -33.192  0.00  0.00    -0.056 C 
ATOM     10  C   UNL A   1      40.244 -37.187 -30.903  0.00  0.00    -0.056 C 
ENDBRANCH   1   8
BRANCH   5  11
ATOM     11  C   UNL A   1      44.338 -40.196 -29.833  0.00  0.00    +0.265 C 
ATOM     12  O   UNL A   1      44.196 -41.041 -30.720  0.00  0.00    -0.283 OA
BRANCH  11  13
ATOM     13  C   UNL A   1      44.640 -40.553 -28.388  0.00  0.00    +0.455 C 
ATOM     14  F   UNL A   1      44.413 -41.871 -28.124  0.00  0.00    -0.163 F 
ATOM     15  F   UNL A   1      43.871 -39.854 -27.504  0.00  0.00    -0.163 F 
ATOM     16  F   UNL A   1      45.932 -40.312 -28.033  0.00  0.00    -0.163 F 
ENDBRANCH  11  13
ENDBRANCH   5  11
TORSDOF 3
ENDMDL
MODEL 10
REMARK VINA RESULT:    -6.465      3.080      4.891
REMARK INTER + INTRA:          -8.168
REMARK INTER:                  -8.002
REMARK INTRA:                  -0.166
REMARK UNBOUND:                -0.569
REMARK  Name = cpd162.pdb
REMARK  6 active torsions:
REMARK  status: ('A' for Active; 'I' for Inactive)
REMARK    1  A    between atoms: C_1  and  C_2
REMARK    2  A    between atoms: C_2  and  C_3
REMARK    3  A    between atoms: C_2  and  C_4
REMARK    4  A    between atoms: C_2  and  C_5
REMARK    5  A    between atoms: C_9  and  C_10
REMARK    6  A    between atoms: C_10  and  C_12
REMARK                            x       y       z     vdW  Elec       q    Type
REMARK                         _______ _______ _______ _____ _____    ______ ____
ROOT
ATOM      1  C   UNL A   1      40.454 -36.566 -31.301  0.00  0.00    -0.041 A 
ATOM      2  C   UNL A   1      40.255 -35.556 -32.257  0.00  0.00    -0.058 A 
ATOM      3  C   UNL A   1      38.993 -35.002 -32.480  0.00  0.00    -0.061 A 
ATOM      4  C   UNL A   1      37.892 -35.432 -31.742  0.00  0.00    -0.051 A 
ATOM      5  C   UNL A   1      38.056 -36.404 -30.752  0.00  0.00    +0.027 A 
ATOM      6  C   UNL A   1      39.336 -36.951 -30.536  0.00  0.00    -0.047 A 
ENDROOT
BRANCH   1   8
ATOM      7  C   UNL A   1      42.931 -36.165 -30.758  0.00  0.00    -0.056 C 
ATOM      8  C   UNL A   1      41.838 -37.209 -31.089  0.00  0.00    -0.013 C 
ATOM      9  C   UNL A   1      41.833 -38.219 -29.917  0.00  0.00    -0.056 C 
ATOM     10  C   UNL A   1      42.245 -37.950 -32.376  0.00  0.00    -0.056 C 
ENDBRANCH   1   8
BRANCH   5  11
ATOM     11  C   UNL A   1      36.923 -36.901 -29.909  0.00  0.00    +0.265 C 
ATOM     12  O   UNL A   1      35.827 -36.344 -30.004  0.00  0.00    -0.283 OA
BRANCH  11  13
ATOM     13  C   UNL A   1      37.186 -38.058 -28.961  0.00  0.00    +0.455 C 
ATOM     14  F   UNL A   1      36.221 -38.171 -28.005  0.00  0.00    -0.163 F 
ATOM     15  F   UNL A   1      38.367 -37.928 -28.291  0.00  0.00    -0.163 F 
ATOM     16  F   UNL A   1      37.241 -39.265 -29.588  0.00  0.00    -0.163 F 
ENDBRANCH  11  13
ENDBRANCH   5  11
TORSDOF 3
ENDMDL
MODEL 11
REMARK VINA RESULT:    -6.458     34.908     36.444
REMARK INTER + INTRA:          -8.159
REMARK INTER:                  -7.539
REMARK INTRA:                  -0.620
REMARK UNBOUND:                -0.569
REMARK  Name = cpd162.pdb
REMARK  6 active torsions:
REMARK  status: ('A' for Active; 'I' for Inactive)
REMARK    1  A    between atoms: C_1  and  C_2
REMARK    2  A    between atoms: C_2  and  C_3
REMARK    3  A    between atoms: C_2  and  C_4
REMARK    4  A    between atoms: C_2  and  C_5
REMARK    5  A    between atoms: C_9  and  C_10
REMARK    6  A    between atoms: C_10  and  C_12
REMARK                            x       y       z     vdW  Elec       q    Type
REMARK                         _______ _______ _______ _____ _____    ______ ____
ROOT
ATOM      1  C   UNL A   1      63.544 -23.264  -6.509  0.00  0.00    -0.041 A 
ATOM      2  C   UNL A   1      63.205 -23.055  -7.856  0.00  0.00    -0.058 A 
ATOM      3  C   UNL A   1      63.338 -24.069  -8.807  0.00  0.00    -0.061 A 
ATOM      4  C   UNL A   1      63.799 -25.330  -8.436  0.00  0.00    -0.051 A 
ATOM      5  C   UNL A   1      64.105 -25.592  -7.098  0.00  0.00    +0.027 A 
ATOM      6  C   UNL A   1      63.964 -24.560  -6.149  0.00  0.00    -0.047 A 
ENDROOT
BRANCH   1   8
ATOM      7  C   UNL A   1      64.806 -21.799  -4.820  0.00  0.00    -0.056 C 
ATOM      8  C   UNL A   1      63.441 -22.130  -5.470  0.00  0.00    -0.013 C 
ATOM      9  C   UNL A   1      62.930 -20.814  -6.101  0.00  0.00    -0.056 C 
ATOM     10  C   UNL A   1      62.463 -22.558  -4.361  0.00  0.00    -0.056 C 
ENDBRANCH   1   8
BRANCH   5  11
ATOM     11  C   UNL A   1      64.589 -26.926  -6.623  0.00  0.00    +0.265 C 
ATOM     12  O   UNL A   1      65.799 -27.160  -6.648  0.00  0.00    -0.283 OA
BRANCH  11  13
ATOM     13  C   UNL A   1      63.559 -27.938  -6.149  0.00  0.00    +0.455 C 
ATOM     14  F   UNL A   1      62.452 -27.957  -6.943  0.00  0.00    -0.163 F 
ATOM     15  F   UNL A   1      63.113 -27.678  -4.886  0.00  0.00    -0.163 F 
ATOM     16  F   UNL A   1      64.031 -29.214  -6.125  0.00  0.00    -0.163 F 
ENDBRANCH  11  13
ENDBRANCH   5  11
TORSDOF 3
ENDMDL
MODEL 12
REMARK VINA RESULT:    -6.408      4.169      5.198
REMARK INTER + INTRA:          -8.101
REMARK INTER:                  -7.470
REMARK INTRA:                  -0.630
REMARK UNBOUND:                -0.569
REMARK  Name = cpd162.pdb
REMARK  6 active torsions:
REMARK  status: ('A' for Active; 'I' for Inactive)
REMARK    1  A    between atoms: C_1  and  C_2
REMARK    2  A    between atoms: C_2  and  C_3
REMARK    3  A    between atoms: C_2  and  C_4
REMARK    4  A    between atoms: C_2  and  C_5
REMARK    5  A    between atoms: C_9  and  C_10
REMARK    6  A    between atoms: C_10  and  C_12
REMARK                            x       y       z     vdW  Elec       q    Type
REMARK                         _______ _______ _______ _____ _____    ______ ____
ROOT
ATOM      1  C   UNL A   1      37.266 -36.860 -29.703  0.00  0.00    -0.041 A 
ATOM      2  C   UNL A   1      38.451 -36.505 -30.369  0.00  0.00    -0.058 A 
ATOM      3  C   UNL A   1      38.467 -35.505 -31.345  0.00  0.00    -0.061 A 
ATOM      4  C   UNL A   1      37.300 -34.820 -31.673  0.00  0.00    -0.051 A 
ATOM      5  C   UNL A   1      36.109 -35.113 -31.003  0.00  0.00    +0.027 A 
ATOM      6  C   UNL A   1      36.109 -36.122 -30.019  0.00  0.00    -0.047 A 
ENDROOT
BRANCH   1   8
ATOM      7  C   UNL A   1      38.654 -38.345 -28.135  0.00  0.00    -0.056 C 
ATOM      8  C   UNL A   1      37.241 -37.995 -28.661  0.00  0.00    -0.013 C 
ATOM      9  C   UNL A   1      36.395 -37.622 -27.421  0.00  0.00    -0.056 C 
ATOM     10  C   UNL A   1      36.637 -39.254 -29.310  0.00  0.00    -0.056 C 
ENDBRANCH   1   8
BRANCH   5  11
ATOM     11  C   UNL A   1      34.822 -34.406 -31.290  0.00  0.00    +0.265 C 
ATOM     12  O   UNL A   1      33.935 -35.014 -31.893  0.00  0.00    -0.283 OA
BRANCH  11  13
ATOM     13  C   UNL A   1      34.678 -32.963 -30.838  0.00  0.00    +0.455 C 
ATOM     14  F   UNL A   1      35.366 -32.101 -31.639  0.00  0.00    -0.163 F 
ATOM     15  F   UNL A   1      35.148 -32.760 -29.574  0.00  0.00    -0.163 F 
ATOM     16  F   UNL A   1      33.388 -32.527 -30.834  0.00  0.00    -0.163 F 
ENDBRANCH  11  13
ENDBRANCH   5  11
TORSDOF 3
ENDMDL
MODEL 13
REMARK VINA RESULT:    -6.366      4.189      5.232
REMARK INTER + INTRA:          -8.052
REMARK INTER:                  -7.409
REMARK INTRA:                  -0.642
REMARK UNBOUND:                -0.569
REMARK  Name = cpd162.pdb
REMARK  6 active torsions:
REMARK  status: ('A' for Active; 'I' for Inactive)
REMARK    1  A    between atoms: C_1  and  C_2
REMARK    2  A    between atoms: C_2  and  C_3
REMARK    3  A    between atoms: C_2  and  C_4
REMARK    4  A    between atoms: C_2  and  C_5
REMARK    5  A    between atoms: C_9  and  C_10
REMARK    6  A    between atoms: C_10  and  C_12
REMARK                            x       y       z     vdW  Elec       q    Type
REMARK                         _______ _______ _______ _____ _____    ______ ____
ROOT
ATOM      1  C   UNL A   1      37.551 -36.980 -29.606  0.00  0.00    -0.041 A 
ATOM      2  C   UNL A   1      38.698 -36.831 -30.403  0.00  0.00    -0.058 A 
ATOM      3  C   UNL A   1      38.782 -35.839 -31.382  0.00  0.00    -0.061 A 
ATOM      4  C   UNL A   1      37.725 -34.953 -31.583  0.00  0.00    -0.051 A 
ATOM      5  C   UNL A   1      36.584 -35.040 -30.781  0.00  0.00    +0.027 A 
ATOM      6  C   UNL A   1      36.515 -36.045 -29.795  0.00  0.00    -0.047 A 
ENDROOT
BRANCH   1   8
ATOM      7  C   UNL A   1      36.872 -39.415 -29.156  0.00  0.00    -0.056 C 
ATOM      8  C   UNL A   1      37.442 -38.106 -28.559  0.00  0.00    -0.013 C 
ATOM      9  C   UNL A   1      38.819 -38.468 -27.954  0.00  0.00    -0.056 C 
ATOM     10  C   UNL A   1      36.512 -37.641 -27.423  0.00  0.00    -0.056 C 
ENDBRANCH   1   8
BRANCH   5  11
ATOM     11  C   UNL A   1      35.418 -34.113 -30.927  0.00  0.00    +0.265 C 
ATOM     12  O   UNL A   1      35.512 -32.969 -30.475  0.00  0.00    -0.283 OA
BRANCH  11  13
ATOM     13  C   UNL A   1      34.165 -34.635 -31.610  0.00  0.00    +0.455 C 
ATOM     14  F   UNL A   1      33.366 -35.335 -30.756  0.00  0.00    -0.163 F 
ATOM     15  F   UNL A   1      34.445 -35.480 -32.643  0.00  0.00    -0.163 F 
ATOM     16  F   UNL A   1      33.387 -33.647 -32.133  0.00  0.00    -0.163 F 
ENDBRANCH  11  13
ENDBRANCH   5  11
TORSDOF 3
ENDMDL
MODEL 14
REMARK VINA RESULT:    -6.180      3.737      5.162
REMARK INTER + INTRA:          -7.833
REMARK INTER:                  -7.208
REMARK INTRA:                  -0.625
REMARK UNBOUND:                -0.569
REMARK  Name = cpd162.pdb
REMARK  6 active torsions:
REMARK  status: ('A' for Active; 'I' for Inactive)
REMARK    1  A    between atoms: C_1  and  C_2
REMARK    2  A    between atoms: C_2  and  C_3
REMARK    3  A    between atoms: C_2  and  C_4
REMARK    4  A    between atoms: C_2  and  C_5
REMARK    5  A    between atoms: C_9  and  C_10
REMARK    6  A    between atoms: C_10  and  C_12
REMARK                            x       y       z     vdW  Elec       q    Type
REMARK                         _______ _______ _______ _____ _____    ______ ____
ROOT
ATOM      1  C   UNL A   1      36.377 -35.357 -30.608  0.00  0.00    -0.041 A 
ATOM      2  C   UNL A   1      37.434 -35.154 -31.511  0.00  0.00    -0.058 A 
ATOM      3  C   UNL A   1      38.593 -35.933 -31.465  0.00  0.00    -0.061 A 
ATOM      4  C   UNL A   1      38.723 -36.951 -30.522  0.00  0.00    -0.051 A 
ATOM      5  C   UNL A   1      37.676 -37.213 -29.635  0.00  0.00    +0.027 A 
ATOM      6  C   UNL A   1      36.512 -36.421 -29.696  0.00  0.00    -0.047 A 
ENDROOT
BRANCH   1   8
ATOM      7  C   UNL A   1      35.456 -32.978 -30.891  0.00  0.00    -0.056 C 
ATOM      8  C   UNL A   1      35.121 -34.466 -30.631  0.00  0.00    -0.013 C 
ATOM      9  C   UNL A   1      34.132 -34.889 -31.743  0.00  0.00    -0.056 C 
ATOM     10  C   UNL A   1      34.408 -34.575 -29.270  0.00  0.00    -0.056 C 
ENDBRANCH   1   8
BRANCH   5  11
ATOM     11  C   UNL A   1      37.737 -38.301 -28.608  0.00  0.00    +0.265 C 
ATOM     12  O   UNL A   1      38.503 -38.168 -27.651  0.00  0.00    -0.283 OA
BRANCH  11  13
ATOM     13  C   UNL A   1      36.864 -39.528 -28.808  0.00  0.00    +0.455 C 
ATOM     14  F   UNL A   1      36.442 -39.658 -30.098  0.00  0.00    -0.163 F 
ATOM     15  F   UNL A   1      35.734 -39.497 -28.044  0.00  0.00    -0.163 F 
ATOM     16  F   UNL A   1      37.495 -40.694 -28.496  0.00  0.00    -0.163 F 
ENDBRANCH  11  13
ENDBRANCH   5  11
TORSDOF 3
ENDMDL
MODEL 15
REMARK VINA RESULT:    -6.173     34.991     36.723
REMARK INTER + INTRA:          -7.825
REMARK INTER:                  -7.193
REMARK INTRA:                  -0.632
REMARK UNBOUND:                -0.569
REMARK  Name = cpd162.pdb
REMARK  6 active torsions:
REMARK  status: ('A' for Active; 'I' for Inactive)
REMARK    1  A    between atoms: C_1  and  C_2
REMARK    2  A    between atoms: C_2  and  C_3
REMARK    3  A    between atoms: C_2  and  C_4
REMARK    4  A    between atoms: C_2  and  C_5
REMARK    5  A    between atoms: C_9  and  C_10
REMARK    6  A    between atoms: C_10  and  C_12
REMARK                            x       y       z     vdW  Elec       q    Type
REMARK                         _______ _______ _______ _____ _____    ______ ____
ROOT
ATOM      1  C   UNL A   1      64.695 -23.818  -5.375  0.00  0.00    -0.041 A 
ATOM      2  C   UNL A   1      64.201 -25.001  -4.800  0.00  0.00    -0.058 A 
ATOM      3  C   UNL A   1      63.738 -26.057  -5.588  0.00  0.00    -0.061 A 
ATOM      4  C   UNL A   1      63.769 -25.967  -6.978  0.00  0.00    -0.051 A 
ATOM      5  C   UNL A   1      64.294 -24.825  -7.589  0.00  0.00    +0.027 A 
ATOM      6  C   UNL A   1      64.760 -23.769  -6.781  0.00  0.00    -0.047 A 
ENDROOT
BRANCH   1   8
ATOM      7  C   UNL A   1      66.531 -22.074  -4.953  0.00  0.00    -0.056 C 
ATOM      8  C   UNL A   1      65.161 -22.636  -4.503  0.00  0.00    -0.013 C 
ATOM      9  C   UNL A   1      64.167 -21.451  -4.556  0.00  0.00    -0.056 C 
ATOM     10  C   UNL A   1      65.283 -23.111  -3.044  0.00  0.00    -0.056 C 
ENDBRANCH   1   8
BRANCH   5  11
ATOM     11  C   UNL A   1      64.376 -24.666  -9.075  0.00  0.00    +0.265 C 
ATOM     12  O   UNL A   1      65.429 -24.963  -9.644  0.00  0.00    -0.283 OA
BRANCH  11  13
ATOM     13  C   UNL A   1      63.161 -24.127  -9.810  0.00  0.00    +0.455 C 
ATOM     14  F   UNL A   1      63.501 -23.234 -10.783  0.00  0.00    -0.163 F 
ATOM     15  F   UNL A   1      62.297 -23.471  -8.983  0.00  0.00    -0.163 F 
ATOM     16  F   UNL A   1      62.429 -25.097 -10.424  0.00  0.00    -0.163 F 
ENDBRANCH  11  13
ENDBRANCH   5  11
TORSDOF 3
ENDMDL
MODEL 16
REMARK VINA RESULT:    -6.120      1.908      3.317
REMARK INTER + INTRA:          -7.763
REMARK INTER:                  -7.308
REMARK INTRA:                  -0.454
REMARK UNBOUND:                -0.569
REMARK  Name = cpd162.pdb
REMARK  6 active torsions:
REMARK  status: ('A' for Active; 'I' for Inactive)
REMARK    1  A    between atoms: C_1  and  C_2
REMARK    2  A    between atoms: C_2  and  C_3
REMARK    3  A    between atoms: C_2  and  C_4
REMARK    4  A    between atoms: C_2  and  C_5
REMARK    5  A    between atoms: C_9  and  C_10
REMARK    6  A    between atoms: C_10  and  C_12
REMARK                            x       y       z     vdW  Elec       q    Type
REMARK                         _______ _______ _______ _____ _____    ______ ____
ROOT
ATOM      1  C   UNL A   1      36.419 -38.864 -30.037  0.00  0.00    -0.041 A 
ATOM      2  C   UNL A   1      37.041 -39.325 -28.865  0.00  0.00    -0.058 A 
ATOM      3  C   UNL A   1      38.237 -38.768 -28.408  0.00  0.00    -0.061 A 
ATOM      4  C   UNL A   1      38.840 -37.721 -29.101  0.00  0.00    -0.051 A 
ATOM      5  C   UNL A   1      38.230 -37.205 -30.248  0.00  0.00    +0.027 A 
ATOM      6  C   UNL A   1      37.022 -37.775 -30.695  0.00  0.00    -0.047 A 
ENDROOT
BRANCH   1   8
ATOM      7  C   UNL A   1      34.278 -40.148 -29.437  0.00  0.00    -0.056 C 
ATOM      8  C   UNL A   1      35.124 -39.512 -30.566  0.00  0.00    -0.013 C 
ATOM      9  C   UNL A   1      34.208 -38.482 -31.268  0.00  0.00    -0.056 C 
ATOM     10  C   UNL A   1      35.495 -40.611 -31.578  0.00  0.00    -0.056 C 
ENDBRANCH   1   8
BRANCH   5  11
ATOM     11  C   UNL A   1      38.810 -36.070 -31.033  0.00  0.00    +0.265 C 
ATOM     12  O   UNL A   1      38.141 -35.043 -31.168  0.00  0.00    -0.283 OA
BRANCH  11  13
ATOM     13  C   UNL A   1      40.189 -36.248 -31.644  0.00  0.00    +0.455 C 
ATOM     14  F   UNL A   1      41.071 -35.303 -31.211  0.00  0.00    -0.163 F 
ATOM     15  F   UNL A   1      40.175 -36.156 -33.005  0.00  0.00    -0.163 F 
ATOM     16  F   UNL A   1      40.753 -37.453 -31.356  0.00  0.00    -0.163 F 
ENDBRANCH  11  13
ENDBRANCH   5  11
TORSDOF 3
ENDMDL
MODEL 17
REMARK VINA RESULT:    -6.019     19.232     21.049
REMARK INTER + INTRA:          -7.644
REMARK INTER:                  -7.031
REMARK INTRA:                  -0.614
REMARK UNBOUND:                -0.569
REMARK  Name = cpd162.pdb
REMARK  6 active torsions:
REMARK  status: ('A' for Active; 'I' for Inactive)
REMARK    1  A    between atoms: C_1  and  C_2
REMARK    2  A    between atoms: C_2  and  C_3
REMARK    3  A    between atoms: C_2  and  C_4
REMARK    4  A    between atoms: C_2  and  C_5
REMARK    5  A    between atoms: C_9  and  C_10
REMARK    6  A    between atoms: C_10  and  C_12
REMARK                            x       y       z     vdW  Elec       q    Type
REMARK                         _______ _______ _______ _____ _____    ______ ____
ROOT
ATOM      1  C   UNL A   1      45.435 -18.431 -41.039  0.00  0.00    -0.041 A 
ATOM      2  C   UNL A   1      44.345 -18.605 -41.908  0.00  0.00    -0.058 A 
ATOM      3  C   UNL A   1      44.282 -19.686 -42.791  0.00  0.00    -0.061 A 
ATOM      4  C   UNL A   1      45.302 -20.634 -42.820  0.00  0.00    -0.051 A 
ATOM      5  C   UNL A   1      46.382 -20.521 -41.941  0.00  0.00    +0.027 A 
ATOM      6  C   UNL A   1      46.430 -19.427 -41.054  0.00  0.00    -0.047 A 
ENDROOT
BRANCH   1   8
ATOM      7  C   UNL A   1      46.356 -17.507 -38.828  0.00  0.00    -0.056 C 
ATOM      8  C   UNL A   1      45.525 -17.212 -40.099  0.00  0.00    -0.013 C 
ATOM      9  C   UNL A   1      46.197 -16.001 -40.787  0.00  0.00    -0.056 C 
ATOM     10  C   UNL A   1      44.103 -16.808 -39.670  0.00  0.00    -0.056 C 
ENDBRANCH   1   8
BRANCH   5  11
ATOM     11  C   UNL A   1      47.504 -21.510 -41.903  0.00  0.00    +0.265 C 
ATOM     12  O   UNL A   1      48.652 -21.111 -42.112  0.00  0.00    -0.283 OA
BRANCH  11  13
ATOM     13  C   UNL A   1      47.170 -22.967 -41.628  0.00  0.00    +0.455 C 
ATOM     14  F   UNL A   1      48.265 -23.684 -41.246  0.00  0.00    -0.163 F 
ATOM     15  F   UNL A   1      46.665 -23.604 -42.723  0.00  0.00    -0.163 F 
ATOM     16  F   UNL A   1      46.247 -23.129 -40.641  0.00  0.00    -0.163 F 
ENDBRANCH  11  13
ENDBRANCH   5  11
TORSDOF 3
ENDMDL
MODEL 18
REMARK VINA RESULT:    -5.937     34.562     36.011
REMARK INTER + INTRA:          -7.548
REMARK INTER:                  -6.903
REMARK INTRA:                  -0.644
REMARK UNBOUND:                -0.569
REMARK  Name = cpd162.pdb
REMARK  6 active torsions:
REMARK  status: ('A' for Active; 'I' for Inactive)
REMARK    1  A    between atoms: C_1  and  C_2
REMARK    2  A    between atoms: C_2  and  C_3
REMARK    3  A    between atoms: C_2  and  C_4
REMARK    4  A    between atoms: C_2  and  C_5
REMARK    5  A    between atoms: C_9  and  C_10
REMARK    6  A    between atoms: C_10  and  C_12
REMARK                            x       y       z     vdW  Elec       q    Type
REMARK                         _______ _______ _______ _____ _____    ______ ____
ROOT
ATOM      1  C   UNL A   1      63.247 -21.759  -8.583  0.00  0.00    -0.041 A 
ATOM      2  C   UNL A   1      63.201 -21.883  -9.981  0.00  0.00    -0.058 A 
ATOM      3  C   UNL A   1      63.311 -23.127 -10.607  0.00  0.00    -0.061 A 
ATOM      4  C   UNL A   1      63.455 -24.288  -9.851  0.00  0.00    -0.051 A 
ATOM      5  C   UNL A   1      63.462 -24.212  -8.456  0.00  0.00    +0.027 A 
ATOM      6  C   UNL A   1      63.347 -22.950  -7.838  0.00  0.00    -0.047 A 
ENDROOT
BRANCH   1   8
ATOM      7  C   UNL A   1      62.691 -20.476  -6.430  0.00  0.00    -0.056 C 
ATOM      8  C   UNL A   1      63.174 -20.381  -7.897  0.00  0.00    -0.013 C 
ATOM      9  C   UNL A   1      64.553 -19.681  -7.856  0.00  0.00    -0.056 C 
ATOM     10  C   UNL A   1      62.192 -19.488  -8.676  0.00  0.00    -0.056 C 
ENDBRANCH   1   8
BRANCH   5  11
ATOM     11  C   UNL A   1      63.595 -25.417  -7.579  0.00  0.00    +0.265 C 
ATOM     12  O   UNL A   1      62.598 -26.116  -7.380  0.00  0.00    -0.283 OA
BRANCH  11  13
ATOM     13  C   UNL A   1      64.950 -25.711  -6.959  0.00  0.00    +0.455 C 
ATOM     14  F   UNL A   1      65.958 -25.036  -7.582  0.00  0.00    -0.163 F 
ATOM     15  F   UNL A   1      65.282 -27.032  -7.028  0.00  0.00    -0.163 F 
ATOM     16  F   UNL A   1      65.024 -25.373  -5.643  0.00  0.00    -0.163 F 
ENDBRANCH  11  13
ENDBRANCH   5  11
TORSDOF 3
ENDMDL
MODEL 19
REMARK VINA RESULT:    -5.850     17.907     19.372
REMARK INTER + INTRA:          -7.445
REMARK INTER:                  -6.809
REMARK INTRA:                  -0.637
REMARK UNBOUND:                -0.569
REMARK  Name = cpd162.pdb
REMARK  6 active torsions:
REMARK  status: ('A' for Active; 'I' for Inactive)
REMARK    1  A    between atoms: C_1  and  C_2
REMARK    2  A    between atoms: C_2  and  C_3
REMARK    3  A    between atoms: C_2  and  C_4
REMARK    4  A    between atoms: C_2  and  C_5
REMARK    5  A    between atoms: C_9  and  C_10
REMARK    6  A    between atoms: C_10  and  C_12
REMARK                            x       y       z     vdW  Elec       q    Type
REMARK                         _______ _______ _______ _____ _____    ______ ____
ROOT
ATOM      1  C   UNL A   1      44.331 -20.783 -40.229  0.00  0.00    -0.041 A 
ATOM      2  C   UNL A   1      43.459 -21.236 -41.233  0.00  0.00    -0.058 A 
ATOM      3  C   UNL A   1      43.940 -21.783 -42.424  0.00  0.00    -0.061 A 
ATOM      4  C   UNL A   1      45.311 -21.907 -42.642  0.00  0.00    -0.051 A 
ATOM      5  C   UNL A   1      46.211 -21.509 -41.650  0.00  0.00    +0.027 A 
ATOM      6  C   UNL A   1      45.710 -20.962 -40.452  0.00  0.00    -0.047 A 
ENDROOT
BRANCH   1   8
ATOM      7  C   UNL A   1      44.915 -19.900 -37.890  0.00  0.00    -0.056 C 
ATOM      8  C   UNL A   1      43.799 -20.137 -38.935  0.00  0.00    -0.013 C 
ATOM      9  C   UNL A   1      43.154 -18.756 -39.202  0.00  0.00    -0.056 C 
ATOM     10  C   UNL A   1      42.738 -21.064 -38.315  0.00  0.00    -0.056 C 
ENDBRANCH   1   8
BRANCH   5  11
ATOM     11  C   UNL A   1      47.694 -21.629 -41.806  0.00  0.00    +0.265 C 
ATOM     12  O   UNL A   1      48.336 -20.632 -42.146  0.00  0.00    -0.283 OA
BRANCH  11  13
ATOM     13  C   UNL A   1      48.337 -22.983 -41.557  0.00  0.00    +0.455 C 
ATOM     14  F   UNL A   1      49.645 -22.872 -41.188  0.00  0.00    -0.163 F 
ATOM     15  F   UNL A   1      48.323 -23.781 -42.663  0.00  0.00    -0.163 F 
ATOM     16  F   UNL A   1      47.724 -23.695 -40.572  0.00  0.00    -0.163 F 
ENDBRANCH  11  13
ENDBRANCH   5  11
TORSDOF 3
ENDMDL
MODEL 20
REMARK VINA RESULT:    -5.719      4.855      6.337
REMARK INTER + INTRA:          -7.291
REMARK INTER:                  -6.655
REMARK INTRA:                  -0.636
REMARK UNBOUND:                -0.569
REMARK  Name = cpd162.pdb
REMARK  6 active torsions:
REMARK  status: ('A' for Active; 'I' for Inactive)
REMARK    1  A    between atoms: C_1  and  C_2
REMARK    2  A    between atoms: C_2  and  C_3
REMARK    3  A    between atoms: C_2  and  C_4
REMARK    4  A    between atoms: C_2  and  C_5
REMARK    5  A    between atoms: C_9  and  C_10
REMARK    6  A    between atoms: C_10  and  C_12
REMARK                            x       y       z     vdW  Elec       q    Type
REMARK                         _______ _______ _______ _____ _____    ______ ____
ROOT
ATOM      1  C   UNL A   1      35.567 -36.603 -28.946  0.00  0.00    -0.041 A 
ATOM      2  C   UNL A   1      34.725 -36.877 -27.855  0.00  0.00    -0.058 A 
ATOM      3  C   UNL A   1      33.570 -36.127 -27.620  0.00  0.00    -0.061 A 
ATOM      4  C   UNL A   1      33.214 -35.089 -28.478  0.00  0.00    -0.051 A 
ATOM      5  C   UNL A   1      34.001 -34.814 -29.599  0.00  0.00    +0.027 A 
ATOM      6  C   UNL A   1      35.162 -35.581 -29.826  0.00  0.00    -0.047 A 
ENDROOT
BRANCH   1   8
ATOM      7  C   UNL A   1      37.948 -36.569 -29.904  0.00  0.00    -0.056 C 
ATOM      8  C   UNL A   1      36.865 -37.401 -29.177  0.00  0.00    -0.013 C 
ATOM      9  C   UNL A   1      37.499 -37.872 -27.847  0.00  0.00    -0.056 C 
ATOM     10  C   UNL A   1      36.543 -38.638 -30.035  0.00  0.00    -0.056 C 
ENDBRANCH   1   8
BRANCH   5  11
ATOM     11  C   UNL A   1      33.671 -33.727 -30.574  0.00  0.00    +0.265 C 
ATOM     12  O   UNL A   1      33.208 -34.040 -31.673  0.00  0.00    -0.283 OA
BRANCH  11  13
ATOM     13  C   UNL A   1      33.943 -32.289 -30.168  0.00  0.00    +0.455 C 
ATOM     14  F   UNL A   1      34.561 -31.581 -31.156  0.00  0.00    -0.163 F 
ATOM     15  F   UNL A   1      34.755 -32.197 -29.075  0.00  0.00    -0.163 F 
ATOM     16  F   UNL A   1      32.814 -31.596 -29.855  0.00  0.00    -0.163 F 
ENDBRANCH  11  13
ENDBRANCH   5  11
TORSDOF 3
ENDMDL
