REMARK  Name = cpd162.pdb
REMARK  6 active torsions:
REMARK  status: ('A' for Active; 'I' for Inactive)
REMARK    1  A    between atoms: C_1  and  C_2
REMARK    2  A    between atoms: C_2  and  C_3
REMARK    3  A    between atoms: C_2  and  C_4
REMARK    4  A    between atoms: C_2  and  C_5
REMARK    5  A    between atoms: C_9  and  C_10
REMARK    6  A    between atoms: C_10  and  C_12
REMARK                            x       y       z     vdW  Elec       q    Type
REMARK                         _______ _______ _______ _____ _____    ______ ____
ROOT
ATOM      1  C   UNL A   1      -1.176  -0.601  -0.009  0.00  0.00    -0.041 A 
ATOM      2  C   UNL A   1      -2.328   0.178  -0.207  0.00  0.00    -0.058 A 
ATOM      3  C   UNL A   1      -2.253   1.564  -0.362  0.00  0.00    -0.061 A 
ATOM      4  C   UNL A   1      -1.020   2.212  -0.339  0.00  0.00    -0.051 A 
ATOM      5  C   UNL A   1       0.153   1.468  -0.188  0.00  0.00    +0.027 A 
ATOM      6  C   UNL A   1       0.062   0.070  -0.036  0.00  0.00    -0.047 A 
ENDROOT
BRANCH   1   8
ATOM      7  C   UNL A   1      -0.078  -2.673   1.036  0.00  0.00    -0.056 C 
ATOM      8  C   UNL A   1      -1.265  -2.124   0.209  0.00  0.00    -0.013 C 
ATOM      9  C   UNL A   1      -2.549  -2.524   0.974  0.00  0.00    -0.056 C 
ATOM     10  C   UNL A   1      -1.270  -2.824  -1.162  0.00  0.00    -0.056 C 
ENDBRANCH   1   8
BRANCH   5  11
ATOM     11  C   UNL A   1       1.513   2.093  -0.172  0.00  0.00    +0.265 C 
ATOM     12  O   UNL A   1       2.498   1.362  -0.045  0.00  0.00    -0.283 OA
BRANCH  11  13
ATOM     13  C   UNL A   1       1.612   3.604  -0.294  0.00  0.00    +0.455 C 
ATOM     14  F   UNL A   1       1.008   4.246   0.746  0.00  0.00    -0.163 F 
ATOM     15  F   UNL A   1       1.017   4.078  -1.426  0.00  0.00    -0.163 F 
ATOM     16  F   UNL A   1       2.895   4.058  -0.326  0.00  0.00    -0.163 F 
ENDBRANCH  11  13
ENDBRANCH   5  11
TORSDOF 3
