@<TRIPOS>MOLECULE
*****
 29 32 0 0 0
SMALL
GASTEIGER

@<TRIPOS>ATOM
      1 O          -0.9706    2.4945    0.0000 O.2     1  UNL1       -0.2833
      2 C          -0.9706    1.4945    0.0000 C.2     1  UNL1        0.2299
      3 C          -1.8366    0.9945    0.0000 C.2     1  UNL1        0.0454
      4 C          -1.8366   -0.0055    0.0000 C.2     1  UNL1        0.0095
      5 C          -2.7026   -0.5055    0.0000 C.ar    1  UNL1        0.0700
      6 C          -3.5686   -0.0055    0.0000 C.ar    1  UNL1        0.0124
      7 C          -4.4347   -0.5055    0.0000 C.ar    1  UNL1        0.0758
      8 C          -4.4347   -1.5055    0.0000 C.ar    1  UNL1        0.2904
      9 N          -3.5686   -2.0055    0.0000 N.ar    1  UNL1       -0.1555
     10 C          -3.5686   -3.0055    0.0000 C.3     1  UNL1        0.3502
     11 C          -4.4347   -3.5055    0.0000 C.ar    1  UNL1        0.0559
     12 C          -5.3007   -3.0055    0.0000 C.ar    1  UNL1        0.0088
     13 C          -6.1667   -3.5055    0.0000 C.ar    1  UNL1        0.0752
     14 C          -6.1667   -4.5055    0.0000 C.ar    1  UNL1        0.2900
     15 N          -7.0327   -5.0055    0.0000 N.pl3   1  UNL1        0.0809
     16 O          -7.0327   -6.0055    0.0000 O.2     1  UNL1        0.0415
     17 O          -7.8988   -4.5055    0.0000 O.co2   1  UNL1       -0.5760
     18 C          -5.3007   -5.0055    0.0000 C.ar    1  UNL1        0.0752
     19 C          -4.4347   -4.5055    0.0000 C.ar    1  UNL1        0.0088
     20 C          -2.7026   -1.5055    0.0000 C.ar    1  UNL1        0.2902
     21 C          -0.1045    0.9945    0.0000 C.ar    1  UNL1        0.1840
     22 C           0.8090    1.4013    0.0000 C.ar    1  UNL1        0.0438
     23 C           1.4781    0.6581    0.0000 C.ar    1  UNL1        0.0377
     24 C           2.4781    0.6581    0.0000 C.ar    1  UNL1        0.0031
     25 C           2.9781   -0.2079    0.0000 C.ar    1  UNL1        0.0002
     26 C           2.4781   -1.0739    0.0000 C.ar    1  UNL1        0.0031
     27 C           1.4781   -1.0739    0.0000 C.ar    1  UNL1        0.0375
     28 C           0.9781   -0.2079    0.0000 C.ar    1  UNL1        0.1454
     29 O           0.0000   -0.0000    0.0000 O.2     1  UNL1       -0.4503
@<TRIPOS>UNITY_ATOM_ATTR
9 1
charge 1
15 1
charge 1
17 1
charge -1
@<TRIPOS>BOND
     1     1     2    2
     2     2     3    1
     3     3     4    2
     4     4     5    1
     5     5     6   ar
     6     6     7   ar
     7     7     8   ar
     8     8     9   ar
     9     9    10    1
    10    10    11    1
    11    11    12   ar
    12    12    13   ar
    13    13    14   ar
    14    14    15    1
    15    15    16    2
    16    15    17    1
    17    14    18   ar
    18    18    19   ar
    19    11    19   ar
    20     9    20   ar
    21     5    20   ar
    22     2    21    1
    23    21    22   ar
    24    22    23   ar
    25    23    24   ar
    26    24    25   ar
    27    25    26   ar
    28    26    27   ar
    29    27    28   ar
    30    23    28   ar
    31    28    29   ar
    32    21    29   ar
