REMARK  Name = cpd324.pdb
REMARK  6 active torsions:
REMARK  status: ('A' for Active; 'I' for Inactive)
REMARK    1  A    between atoms: C_2  and  C_3
REMARK    2  A    between atoms: C_2  and  C_21
REMARK    3  A    between atoms: C_4  and  C_5
REMARK    4  A    between atoms: N_9  and  C_10
REMARK    5  A    between atoms: C_10  and  C_11
REMARK    6  A    between atoms: C_14  and  N_15
REMARK                            x       y       z     vdW  Elec       q    Type
REMARK                         _______ _______ _______ _____ _____    ______ ____
ROOT
ATOM      1  C   UNL     1      -3.130   0.122   0.241  0.00  0.00    -0.009 A 
ATOM      2  C   UNL     1      -4.303   0.678   0.747  0.00  0.00    -0.052 A 
ATOM      3  C   UNL     1      -5.337  -0.151   1.168  0.00  0.00    -0.045 A 
ATOM      4  C   UNL     1      -5.194  -1.530   1.068  0.00  0.00    +0.005 A 
ATOM      5  N   UNL     1      -4.078  -2.069   0.522  0.00  0.00    -0.348 N 
ATOM      6  C   UNL     1      -3.060  -1.269   0.118  0.00  0.00    +0.012 A 
ENDROOT
BRANCH   1   8
ATOM      7  C   UNL     1      -1.628   2.106   0.371  0.00  0.00    -0.011 C 
ATOM      8  C   UNL     1      -1.960   0.918  -0.158  0.00  0.00    -0.049 C 
BRANCH   7  10
ATOM      9  O   UNL     1      -0.458   4.061  -0.099  0.00  0.00    -0.284 OA
ATOM     10  C   UNL     1      -0.373   2.839   0.016  0.00  0.00    +0.221 C 
BRANCH  10  11
ATOM     11  C   UNL     1       0.874   2.112  -0.118  0.00  0.00    +0.176 A 
ATOM     12  C   UNL     1       2.132   2.549  -0.493  0.00  0.00    -0.005 A 
ATOM     13  C   UNL     1       3.005   1.435  -0.405  0.00  0.00    +0.021 A 
ATOM     14  C   UNL     1       4.373   1.207  -0.633  0.00  0.00    -0.051 A 
ATOM     15  C   UNL     1       4.886  -0.080  -0.417  0.00  0.00    -0.061 A 
ATOM     16  C   UNL     1       4.062  -1.122   0.017  0.00  0.00    -0.058 A 
ATOM     17  C   UNL     1       2.699  -0.915   0.251  0.00  0.00    -0.019 A 
ATOM     18  C   UNL     1       2.220   0.374   0.027  0.00  0.00    +0.136 A 
ATOM     19  O   UNL     1       0.932   0.778   0.201  0.00  0.00    -0.452 OA
ENDBRANCH  10  11
ENDBRANCH   7  10
ENDBRANCH   1   8
BRANCH   5  20
ATOM     20  C   UNL     1      -3.890  -3.545   0.453  0.00  0.00    +0.048 C 
BRANCH  20  21
ATOM     21  C   UNL     1      -5.133  -4.310   0.061  0.00  0.00    -0.028 A 
ATOM     22  C   UNL     1      -5.817  -4.030  -1.134  0.00  0.00    -0.055 A 
ATOM     23  C   UNL     1      -6.961  -4.756  -1.484  0.00  0.00    -0.031 A 
ATOM     24  C   UNL     1      -7.418  -5.782  -0.647  0.00  0.00    +0.126 A 
ATOM     25  C   UNL     1      -6.735  -6.084   0.537  0.00  0.00    -0.031 A 
ATOM     26  C   UNL     1      -5.597  -5.351   0.885  0.00  0.00    -0.055 A 
BRANCH  24  27
ATOM     27  N   UNL     1      -8.620  -6.544  -1.010  0.00  0.00    +0.056 N 
ATOM     28  O   UNL     1      -8.930  -7.501  -0.288  0.00  0.00    -0.126 OA
ATOM     29  O   UNL     1      -9.250  -6.173  -2.009  0.00  0.00    -0.126 OA
ENDBRANCH  24  27
ENDBRANCH  20  21
ENDBRANCH   5  20
TORSDOF 6
