MODEL 1
REMARK VINA RESULT:    -8.515      0.000      0.000
REMARK INTER + INTRA:         -12.248
REMARK INTER:                 -11.502
REMARK INTRA:                  -0.747
REMARK UNBOUND:                -0.747
REMARK  Name = cpd324.pdb
REMARK  6 active torsions:
REMARK  status: ('A' for Active; 'I' for Inactive)
REMARK    1  A    between atoms: C_2  and  C_3
REMARK    2  A    between atoms: C_2  and  C_21
REMARK    3  A    between atoms: C_4  and  C_5
REMARK    4  A    between atoms: N_9  and  C_10
REMARK    5  A    between atoms: C_10  and  C_11
REMARK    6  A    between atoms: C_14  and  N_15
REMARK                            x       y       z     vdW  Elec       q    Type
REMARK                         _______ _______ _______ _____ _____    ______ ____
ROOT
ATOM      1  C   UNL     1      35.348 -40.279 -31.132  0.00  0.00    -0.009 A 
ATOM      2  C   UNL     1      35.611 -41.361 -30.295  0.00  0.00    -0.052 A 
ATOM      3  C   UNL     1      36.332 -41.171 -29.122  0.00  0.00    -0.045 A 
ATOM      4  C   UNL     1      36.797 -39.901 -28.801  0.00  0.00    +0.005 A 
ATOM      5  N   UNL     1      36.592 -38.860 -29.643  0.00  0.00    -0.348 N 
ATOM      6  C   UNL     1      35.881 -39.033 -30.784  0.00  0.00    +0.012 A 
ENDROOT
BRANCH   1   8
ATOM      7  C   UNL     1      34.624 -41.360 -33.257  0.00  0.00    -0.011 C 
ATOM      8  C   UNL     1      34.532 -40.374 -32.351  0.00  0.00    -0.049 C 
BRANCH   7  10
ATOM      9  O   UNL     1      33.212 -40.439 -34.859  0.00  0.00    -0.284 OA
ATOM     10  C   UNL     1      33.706 -41.482 -34.432  0.00  0.00    +0.221 C 
BRANCH  10  11
ATOM     11  C   UNL     1      33.485 -42.777 -35.044  0.00  0.00    +0.176 A 
ATOM     12  C   UNL     1      32.581 -43.168 -36.015  0.00  0.00    -0.005 A 
ATOM     13  C   UNL     1      32.828 -44.538 -36.288  0.00  0.00    +0.021 A 
ATOM     14  C   UNL     1      32.284 -45.507 -37.150  0.00  0.00    -0.051 A 
ATOM     15  C   UNL     1      32.826 -46.800 -37.135  0.00  0.00    -0.061 A 
ATOM     16  C   UNL     1      33.886 -47.129 -36.286  0.00  0.00    -0.058 A 
ATOM     17  C   UNL     1      34.441 -46.179 -35.423  0.00  0.00    -0.019 A 
ATOM     18  C   UNL     1      33.881 -44.904 -35.461  0.00  0.00    +0.136 A 
ATOM     19  O   UNL     1      34.281 -43.844 -34.707  0.00  0.00    -0.452 OA
ENDBRANCH  10  11
ENDBRANCH   7  10
ENDBRANCH   1   8
BRANCH   5  20
ATOM     20  C   UNL     1      37.041 -37.484 -29.290  0.00  0.00    +0.048 C 
BRANCH  20  21
ATOM     21  C   UNL     1      38.350 -37.077 -29.927  0.00  0.00    -0.028 A 
ATOM     22  C   UNL     1      39.575 -37.594 -29.473  0.00  0.00    -0.055 A 
ATOM     23  C   UNL     1      40.776 -37.212 -30.082  0.00  0.00    -0.031 A 
ATOM     24  C   UNL     1      40.756 -36.322 -31.164  0.00  0.00    +0.126 A 
ATOM     25  C   UNL     1      39.540 -35.814 -31.638  0.00  0.00    -0.031 A 
ATOM     26  C   UNL     1      38.345 -36.194 -31.021  0.00  0.00    -0.055 A 
BRANCH  24  27
ATOM     27  N   UNL     1      42.014 -35.917 -31.804  0.00  0.00    +0.056 N 
ATOM     28  O   UNL     1      43.035 -36.554 -31.512  0.00  0.00    -0.126 OA
ATOM     29  O   UNL     1      41.970 -34.970 -32.601  0.00  0.00    -0.126 OA
ENDBRANCH  24  27
ENDBRANCH  20  21
ENDBRANCH   5  20
TORSDOF 6
ENDMDL
MODEL 2
REMARK VINA RESULT:    -8.445     17.430     21.511
REMARK INTER + INTRA:         -12.154
REMARK INTER:                 -11.324
REMARK INTRA:                  -0.830
REMARK UNBOUND:                -0.747
REMARK  Name = cpd324.pdb
REMARK  6 active torsions:
REMARK  status: ('A' for Active; 'I' for Inactive)
REMARK    1  A    between atoms: C_2  and  C_3
REMARK    2  A    between atoms: C_2  and  C_21
REMARK    3  A    between atoms: C_4  and  C_5
REMARK    4  A    between atoms: N_9  and  C_10
REMARK    5  A    between atoms: C_10  and  C_11
REMARK    6  A    between atoms: C_14  and  N_15
REMARK                            x       y       z     vdW  Elec       q    Type
REMARK                         _______ _______ _______ _____ _____    ______ ____
ROOT
ATOM      1  C   UNL     1      41.747 -21.077 -37.979  0.00  0.00    -0.009 A 
ATOM      2  C   UNL     1      40.737 -21.444 -38.865  0.00  0.00    -0.052 A 
ATOM      3  C   UNL     1      39.425 -21.548 -38.416  0.00  0.00    -0.045 A 
ATOM      4  C   UNL     1      39.136 -21.295 -37.080  0.00  0.00    +0.005 A 
ATOM      5  N   UNL     1      40.127 -20.995 -36.206  0.00  0.00    -0.348 N 
ATOM      6  C   UNL     1      41.408 -20.882 -36.637  0.00  0.00    +0.012 A 
ENDROOT
BRANCH   1   8
ATOM      7  C   UNL     1      43.723 -19.673 -38.557  0.00  0.00    -0.011 C 
ATOM      8  C   UNL     1      43.146 -20.872 -38.382  0.00  0.00    -0.049 C 
BRANCH   7  10
ATOM      9  O   UNL     1      45.726 -18.498 -38.406  0.00  0.00    -0.284 OA
ATOM     10  C   UNL     1      45.177 -19.500 -38.864  0.00  0.00    +0.221 C 
BRANCH  10  11
ATOM     11  C   UNL     1      45.881 -20.517 -39.620  0.00  0.00    +0.176 A 
ATOM     12  C   UNL     1      47.007 -21.254 -39.300  0.00  0.00    -0.005 A 
ATOM     13  C   UNL     1      47.240 -22.150 -40.375  0.00  0.00    +0.021 A 
ATOM     14  C   UNL     1      48.187 -23.146 -40.669  0.00  0.00    -0.051 A 
ATOM     15  C   UNL     1      48.071 -23.849 -41.877  0.00  0.00    -0.061 A 
ATOM     16  C   UNL     1      47.038 -23.572 -42.777  0.00  0.00    -0.058 A 
ATOM     17  C   UNL     1      46.086 -22.586 -42.502  0.00  0.00    -0.019 A 
ATOM     18  C   UNL     1      46.228 -21.906 -41.294  0.00  0.00    +0.136 A 
ATOM     19  O   UNL     1      45.405 -20.920 -40.843  0.00  0.00    -0.452 OA
ENDBRANCH  10  11
ENDBRANCH   7  10
ENDBRANCH   1   8
BRANCH   5  20
ATOM     20  C   UNL     1      39.827 -20.674 -34.782  0.00  0.00    +0.048 C 
BRANCH  20  21
ATOM     21  C   UNL     1      40.145 -21.791 -33.815  0.00  0.00    -0.028 A 
ATOM     22  C   UNL     1      41.127 -21.640 -32.822  0.00  0.00    -0.055 A 
ATOM     23  C   UNL     1      41.400 -22.683 -31.930  0.00  0.00    -0.031 A 
ATOM     24  C   UNL     1      40.677 -23.880 -32.014  0.00  0.00    +0.126 A 
ATOM     25  C   UNL     1      39.683 -24.036 -32.987  0.00  0.00    -0.031 A 
ATOM     26  C   UNL     1      39.419 -22.994 -33.880  0.00  0.00    -0.055 A 
BRANCH  24  27
ATOM     27  N   UNL     1      40.964 -24.977 -31.081  0.00  0.00    +0.056 N 
ATOM     28  O   UNL     1      42.064 -24.972 -30.513  0.00  0.00    -0.126 OA
ATOM     29  O   UNL     1      40.082 -25.831 -30.917  0.00  0.00    -0.126 OA
ENDBRANCH  24  27
ENDBRANCH  20  21
ENDBRANCH   5  20
TORSDOF 6
ENDMDL
MODEL 3
REMARK VINA RESULT:    -8.357      6.363      9.150
REMARK INTER + INTRA:         -12.035
REMARK INTER:                 -11.416
REMARK INTRA:                  -0.618
REMARK UNBOUND:                -0.747
REMARK  Name = cpd324.pdb
REMARK  6 active torsions:
REMARK  status: ('A' for Active; 'I' for Inactive)
REMARK    1  A    between atoms: C_2  and  C_3
REMARK    2  A    between atoms: C_2  and  C_21
REMARK    3  A    between atoms: C_4  and  C_5
REMARK    4  A    between atoms: N_9  and  C_10
REMARK    5  A    between atoms: C_10  and  C_11
REMARK    6  A    between atoms: C_14  and  N_15
REMARK                            x       y       z     vdW  Elec       q    Type
REMARK                         _______ _______ _______ _____ _____    ______ ____
ROOT
ATOM      1  C   UNL     1      34.485 -35.542 -28.759  0.00  0.00    -0.009 A 
ATOM      2  C   UNL     1      33.951 -35.953 -27.540  0.00  0.00    -0.052 A 
ATOM      3  C   UNL     1      34.360 -37.156 -26.975  0.00  0.00    -0.045 A 
ATOM      4  C   UNL     1      35.291 -37.944 -27.641  0.00  0.00    +0.005 A 
ATOM      5  N   UNL     1      35.766 -37.574 -28.854  0.00  0.00    -0.348 N 
ATOM      6  C   UNL     1      35.381 -36.397 -29.408  0.00  0.00    +0.012 A 
ENDROOT
BRANCH   1   8
ATOM      7  C   UNL     1      34.777 -33.768 -30.485  0.00  0.00    -0.011 C 
ATOM      8  C   UNL     1      34.167 -34.254 -29.393  0.00  0.00    -0.049 C 
BRANCH   7  10
ATOM      9  O   UNL     1      35.196 -31.949 -31.873  0.00  0.00    -0.284 OA
ATOM     10  C   UNL     1      34.357 -32.503 -31.164  0.00  0.00    +0.221 C 
BRANCH  10  11
ATOM     11  C   UNL     1      32.997 -32.022 -31.016  0.00  0.00    +0.176 A 
ATOM     12  C   UNL     1      32.501 -30.936 -30.316  0.00  0.00    -0.005 A 
ATOM     13  C   UNL     1      31.103 -30.892 -30.551  0.00  0.00    +0.021 A 
ATOM     14  C   UNL     1      30.041 -30.060 -30.154  0.00  0.00    -0.051 A 
ATOM     15  C   UNL     1      28.751 -30.348 -30.622  0.00  0.00    -0.061 A 
ATOM     16  C   UNL     1      28.515 -31.436 -31.466  0.00  0.00    -0.058 A 
ATOM     17  C   UNL     1      29.558 -32.273 -31.874  0.00  0.00    -0.019 A 
ATOM     18  C   UNL     1      30.828 -31.962 -31.392  0.00  0.00    +0.136 A 
ATOM     19  O   UNL     1      31.968 -32.648 -31.675  0.00  0.00    -0.452 OA
ENDBRANCH  10  11
ENDBRANCH   7  10
ENDBRANCH   1   8
BRANCH   5  20
ATOM     20  C   UNL     1      36.800 -38.384 -29.556  0.00  0.00    +0.048 C 
BRANCH  20  21
ATOM     21  C   UNL     1      37.964 -37.577 -30.086  0.00  0.00    -0.028 A 
ATOM     22  C   UNL     1      39.240 -37.669 -29.507  0.00  0.00    -0.055 A 
ATOM     23  C   UNL     1      40.307 -36.922 -30.019  0.00  0.00    -0.031 A 
ATOM     24  C   UNL     1      40.106 -36.089 -31.127  0.00  0.00    +0.126 A 
ATOM     25  C   UNL     1      38.844 -36.003 -31.726  0.00  0.00    -0.031 A 
ATOM     26  C   UNL     1      37.780 -36.747 -31.206  0.00  0.00    -0.055 A 
BRANCH  24  27
ATOM     27  N   UNL     1      41.223 -35.301 -31.665  0.00  0.00    +0.056 N 
ATOM     28  O   UNL     1      42.368 -35.742 -31.494  0.00  0.00    -0.126 OA
ATOM     29  O   UNL     1      40.946 -34.253 -32.262  0.00  0.00    -0.126 OA
ENDBRANCH  24  27
ENDBRANCH  20  21
ENDBRANCH   5  20
TORSDOF 6
ENDMDL
MODEL 4
REMARK VINA RESULT:    -8.168     17.917     21.891
REMARK INTER + INTRA:         -11.780
REMARK INTER:                 -11.154
REMARK INTRA:                  -0.626
REMARK UNBOUND:                -0.747
REMARK  Name = cpd324.pdb
REMARK  6 active torsions:
REMARK  status: ('A' for Active; 'I' for Inactive)
REMARK    1  A    between atoms: C_2  and  C_3
REMARK    2  A    between atoms: C_2  and  C_21
REMARK    3  A    between atoms: C_4  and  C_5
REMARK    4  A    between atoms: N_9  and  C_10
REMARK    5  A    between atoms: C_10  and  C_11
REMARK    6  A    between atoms: C_14  and  N_15
REMARK                            x       y       z     vdW  Elec       q    Type
REMARK                         _______ _______ _______ _____ _____    ______ ____
ROOT
ATOM      1  C   UNL     1      44.108 -19.849 -36.253  0.00  0.00    -0.009 A 
ATOM      2  C   UNL     1      44.479 -19.215 -35.070  0.00  0.00    -0.052 A 
ATOM      3  C   UNL     1      45.548 -18.326 -35.066  0.00  0.00    -0.045 A 
ATOM      4  C   UNL     1      46.245 -18.087 -36.245  0.00  0.00    +0.005 A 
ATOM      5  N   UNL     1      45.921 -18.747 -37.382  0.00  0.00    -0.348 N 
ATOM      6  C   UNL     1      44.874 -19.608 -37.398  0.00  0.00    +0.012 A 
ENDROOT
BRANCH   1   8
ATOM      7  C   UNL     1      42.379 -21.118 -37.522  0.00  0.00    -0.011 C 
ATOM      8  C   UNL     1      42.948 -20.746 -36.365  0.00  0.00    -0.049 C 
BRANCH   7  10
ATOM      9  O   UNL     1      41.263 -22.862 -38.583  0.00  0.00    -0.284 OA
ATOM     10  C   UNL     1      41.267 -22.115 -37.605  0.00  0.00    +0.221 C 
BRANCH  10  11
ATOM     11  C   UNL     1      40.295 -22.203 -36.533  0.00  0.00    +0.176 A 
ATOM     12  C   UNL     1      39.521 -21.222 -35.940  0.00  0.00    -0.005 A 
ATOM     13  C   UNL     1      38.701 -21.861 -34.976  0.00  0.00    +0.021 A 
ATOM     14  C   UNL     1      37.715 -21.452 -34.062  0.00  0.00    -0.051 A 
ATOM     15  C   UNL     1      37.101 -22.421 -33.255  0.00  0.00    -0.061 A 
ATOM     16  C   UNL     1      37.456 -23.770 -33.351  0.00  0.00    -0.058 A 
ATOM     17  C   UNL     1      38.434 -24.197 -34.255  0.00  0.00    -0.019 A 
ATOM     18  C   UNL     1      39.024 -23.210 -35.041  0.00  0.00    +0.136 A 
ATOM     19  O   UNL     1      39.987 -23.421 -35.980  0.00  0.00    -0.452 OA
ENDBRANCH  10  11
ENDBRANCH   7  10
ENDBRANCH   1   8
BRANCH   5  20
ATOM     20  C   UNL     1      46.627 -18.465 -38.664  0.00  0.00    +0.048 C 
BRANCH  20  21
ATOM     21  C   UNL     1      46.783 -19.670 -39.562  0.00  0.00    -0.028 A 
ATOM     22  C   UNL     1      46.483 -19.603 -40.933  0.00  0.00    -0.055 A 
ATOM     23  C   UNL     1      46.644 -20.728 -41.750  0.00  0.00    -0.031 A 
ATOM     24  C   UNL     1      47.125 -21.924 -41.203  0.00  0.00    +0.126 A 
ATOM     25  C   UNL     1      47.446 -21.999 -39.842  0.00  0.00    -0.031 A 
ATOM     26  C   UNL     1      47.277 -20.874 -39.029  0.00  0.00    -0.055 A 
BRANCH  24  27
ATOM     27  N   UNL     1      47.292 -23.107 -42.057  0.00  0.00    +0.056 N 
ATOM     28  O   UNL     1      46.348 -23.417 -42.796  0.00  0.00    -0.126 OA
ATOM     29  O   UNL     1      48.371 -23.711 -41.990  0.00  0.00    -0.126 OA
ENDBRANCH  24  27
ENDBRANCH  20  21
ENDBRANCH   5  20
TORSDOF 6
ENDMDL
MODEL 5
REMARK VINA RESULT:    -8.131      5.758      9.543
REMARK INTER + INTRA:         -11.729
REMARK INTER:                 -11.074
REMARK INTRA:                  -0.655
REMARK UNBOUND:                -0.747
REMARK  Name = cpd324.pdb
REMARK  6 active torsions:
REMARK  status: ('A' for Active; 'I' for Inactive)
REMARK    1  A    between atoms: C_2  and  C_3
REMARK    2  A    between atoms: C_2  and  C_21
REMARK    3  A    between atoms: C_4  and  C_5
REMARK    4  A    between atoms: N_9  and  C_10
REMARK    5  A    between atoms: C_10  and  C_11
REMARK    6  A    between atoms: C_14  and  N_15
REMARK                            x       y       z     vdW  Elec       q    Type
REMARK                         _______ _______ _______ _____ _____    ______ ____
ROOT
ATOM      1  C   UNL     1      34.834 -37.866 -27.874  0.00  0.00    -0.009 A 
ATOM      2  C   UNL     1      34.708 -39.176 -28.331  0.00  0.00    -0.052 A 
ATOM      3  C   UNL     1      35.241 -39.533 -29.565  0.00  0.00    -0.045 A 
ATOM      4  C   UNL     1      35.885 -38.573 -30.337  0.00  0.00    +0.005 A 
ATOM      5  N   UNL     1      35.956 -37.287 -29.919  0.00  0.00    -0.348 N 
ATOM      6  C   UNL     1      35.448 -36.932 -28.712  0.00  0.00    +0.012 A 
ENDROOT
BRANCH   1   8
ATOM      7  C   UNL     1      33.189 -36.818 -26.323  0.00  0.00    -0.011 C 
ATOM      8  C   UNL     1      34.367 -37.419 -26.553  0.00  0.00    -0.049 C 
BRANCH   7  10
ATOM      9  O   UNL     1      31.791 -35.644 -24.880  0.00  0.00    -0.284 OA
ATOM     10  C   UNL     1      32.700 -36.471 -24.952  0.00  0.00    +0.221 C 
BRANCH  10  11
ATOM     11  C   UNL     1      33.257 -37.144 -23.796  0.00  0.00    +0.176 A 
ATOM     12  C   UNL     1      33.966 -36.641 -22.719  0.00  0.00    -0.005 A 
ATOM     13  C   UNL     1      34.225 -37.727 -21.845  0.00  0.00    +0.021 A 
ATOM     14  C   UNL     1      34.874 -37.892 -20.609  0.00  0.00    -0.051 A 
ATOM     15  C   UNL     1      34.914 -39.171 -20.036  0.00  0.00    -0.061 A 
ATOM     16  C   UNL     1      34.323 -40.266 -20.672  0.00  0.00    -0.058 A 
ATOM     17  C   UNL     1      33.671 -40.122 -21.901  0.00  0.00    -0.019 A 
ATOM     18  C   UNL     1      33.649 -38.839 -22.444  0.00  0.00    +0.136 A 
ATOM     19  O   UNL     1      33.064 -38.492 -23.623  0.00  0.00    -0.452 OA
ENDBRANCH  10  11
ENDBRANCH   7  10
ENDBRANCH   1   8
BRANCH   5  20
ATOM     20  C   UNL     1      36.685 -36.259 -30.712  0.00  0.00    +0.048 C 
BRANCH  20  21
ATOM     21  C   UNL     1      38.176 -36.490 -30.805  0.00  0.00    -0.028 A 
ATOM     22  C   UNL     1      38.922 -36.020 -31.899  0.00  0.00    -0.055 A 
ATOM     23  C   UNL     1      40.303 -36.237 -31.962  0.00  0.00    -0.031 A 
ATOM     24  C   UNL     1      40.951 -36.910 -30.918  0.00  0.00    +0.126 A 
ATOM     25  C   UNL     1      40.223 -37.367 -29.813  0.00  0.00    -0.031 A 
ATOM     26  C   UNL     1      38.842 -37.154 -29.759  0.00  0.00    -0.055 A 
BRANCH  24  27
ATOM     27  N   UNL     1      42.400 -37.141 -30.983  0.00  0.00    +0.056 N 
ATOM     28  O   UNL     1      42.789 -38.185 -31.524  0.00  0.00    -0.126 OA
ATOM     29  O   UNL     1      43.138 -36.272 -30.500  0.00  0.00    -0.126 OA
ENDBRANCH  24  27
ENDBRANCH  20  21
ENDBRANCH   5  20
TORSDOF 6
ENDMDL
MODEL 6
REMARK VINA RESULT:    -7.986      6.649      9.861
REMARK INTER + INTRA:         -11.533
REMARK INTER:                 -11.261
REMARK INTRA:                  -0.272
REMARK UNBOUND:                -0.747
REMARK  Name = cpd324.pdb
REMARK  6 active torsions:
REMARK  status: ('A' for Active; 'I' for Inactive)
REMARK    1  A    between atoms: C_2  and  C_3
REMARK    2  A    between atoms: C_2  and  C_21
REMARK    3  A    between atoms: C_4  and  C_5
REMARK    4  A    between atoms: N_9  and  C_10
REMARK    5  A    between atoms: C_10  and  C_11
REMARK    6  A    between atoms: C_14  and  N_15
REMARK                            x       y       z     vdW  Elec       q    Type
REMARK                         _______ _______ _______ _____ _____    ______ ____
ROOT
ATOM      1  C   UNL     1      33.800 -34.941 -28.860  0.00  0.00    -0.009 A 
ATOM      2  C   UNL     1      33.911 -33.799 -29.651  0.00  0.00    -0.052 A 
ATOM      3  C   UNL     1      34.829 -33.767 -30.695  0.00  0.00    -0.045 A 
ATOM      4  C   UNL     1      35.638 -34.873 -30.931  0.00  0.00    +0.005 A 
ATOM      5  N   UNL     1      35.571 -35.960 -30.125  0.00  0.00    -0.348 N 
ATOM      6  C   UNL     1      34.671 -36.004 -29.111  0.00  0.00    +0.012 A 
ENDROOT
BRANCH   1   8
ATOM      7  C   UNL     1      32.743 -36.135 -26.945  0.00  0.00    -0.011 C 
ATOM      8  C   UNL     1      32.808 -35.090 -27.784  0.00  0.00    -0.049 C 
BRANCH   7  10
ATOM      9  O   UNL     1      30.626 -35.867 -26.018  0.00  0.00    -0.284 OA
ATOM     10  C   UNL     1      31.788 -36.204 -25.795  0.00  0.00    +0.221 C 
BRANCH  10  11
ATOM     11  C   UNL     1      32.238 -36.708 -24.512  0.00  0.00    +0.176 A 
ATOM     12  C   UNL     1      33.502 -36.733 -23.951  0.00  0.00    -0.005 A 
ATOM     13  C   UNL     1      33.373 -37.288 -22.653  0.00  0.00    +0.021 A 
ATOM     14  C   UNL     1      34.245 -37.576 -21.589  0.00  0.00    -0.051 A 
ATOM     15  C   UNL     1      33.715 -38.135 -20.417  0.00  0.00    -0.061 A 
ATOM     16  C   UNL     1      32.349 -38.403 -20.299  0.00  0.00    -0.058 A 
ATOM     17  C   UNL     1      31.465 -38.122 -21.345  0.00  0.00    -0.019 A 
ATOM     18  C   UNL     1      32.022 -37.568 -22.496  0.00  0.00    +0.136 A 
ATOM     19  O   UNL     1      31.333 -37.220 -23.617  0.00  0.00    -0.452 OA
ENDBRANCH  10  11
ENDBRANCH   7  10
ENDBRANCH   1   8
BRANCH   5  20
ATOM     20  C   UNL     1      36.395 -37.171 -30.395  0.00  0.00    +0.048 C 
BRANCH  20  21
ATOM     21  C   UNL     1      37.858 -36.881 -30.644  0.00  0.00    -0.028 A 
ATOM     22  C   UNL     1      38.275 -36.120 -31.749  0.00  0.00    -0.055 A 
ATOM     23  C   UNL     1      39.633 -35.855 -31.956  0.00  0.00    -0.031 A 
ATOM     24  C   UNL     1      40.583 -36.335 -31.046  0.00  0.00    +0.126 A 
ATOM     25  C   UNL     1      40.180 -37.078 -29.930  0.00  0.00    -0.031 A 
ATOM     26  C   UNL     1      38.823 -37.346 -29.732  0.00  0.00    -0.055 A 
BRANCH  24  27
ATOM     27  N   UNL     1      42.010 -36.061 -31.262  0.00  0.00    +0.056 N 
ATOM     28  O   UNL     1      42.824 -36.696 -30.578  0.00  0.00    -0.126 OA
ATOM     29  O   UNL     1      42.305 -35.220 -32.122  0.00  0.00    -0.126 OA
ENDBRANCH  24  27
ENDBRANCH  20  21
ENDBRANCH   5  20
TORSDOF 6
ENDMDL
MODEL 7
REMARK VINA RESULT:    -7.904      7.503     11.136
REMARK INTER + INTRA:         -11.423
REMARK INTER:                 -10.731
REMARK INTRA:                  -0.693
REMARK UNBOUND:                -0.747
REMARK  Name = cpd324.pdb
REMARK  6 active torsions:
REMARK  status: ('A' for Active; 'I' for Inactive)
REMARK    1  A    between atoms: C_2  and  C_3
REMARK    2  A    between atoms: C_2  and  C_21
REMARK    3  A    between atoms: C_4  and  C_5
REMARK    4  A    between atoms: N_9  and  C_10
REMARK    5  A    between atoms: C_10  and  C_11
REMARK    6  A    between atoms: C_14  and  N_15
REMARK                            x       y       z     vdW  Elec       q    Type
REMARK                         _______ _______ _______ _____ _____    ______ ____
ROOT
ATOM      1  C   UNL     1      34.471 -33.994 -30.096  0.00  0.00    -0.009 A 
ATOM      2  C   UNL     1      35.017 -32.931 -30.812  0.00  0.00    -0.052 A 
ATOM      3  C   UNL     1      34.186 -31.946 -31.333  0.00  0.00    -0.045 A 
ATOM      4  C   UNL     1      32.812 -32.039 -31.143  0.00  0.00    +0.005 A 
ATOM      5  N   UNL     1      32.275 -33.102 -30.498  0.00  0.00    -0.348 N 
ATOM      6  C   UNL     1      33.079 -34.062 -29.978  0.00  0.00    +0.012 A 
ENDROOT
BRANCH   1   8
ATOM      7  C   UNL     1      35.599 -36.214 -30.012  0.00  0.00    -0.011 C 
ATOM      8  C   UNL     1      35.279 -35.039 -29.450  0.00  0.00    -0.049 C 
BRANCH   7  10
ATOM      9  O   UNL     1      35.999 -37.995 -28.570  0.00  0.00    -0.284 OA
ATOM     10  C   UNL     1      36.511 -37.210 -29.367  0.00  0.00    +0.221 C 
BRANCH  10  11
ATOM     11  C   UNL     1      37.912 -37.252 -29.738  0.00  0.00    +0.176 A 
ATOM     12  C   UNL     1      38.975 -37.917 -29.153  0.00  0.00    -0.005 A 
ATOM     13  C   UNL     1      40.119 -37.659 -29.951  0.00  0.00    +0.021 A 
ATOM     14  C   UNL     1      41.474 -38.029 -29.918  0.00  0.00    -0.051 A 
ATOM     15  C   UNL     1      42.324 -37.561 -30.930  0.00  0.00    -0.061 A 
ATOM     16  C   UNL     1      41.843 -36.743 -31.956  0.00  0.00    -0.058 A 
ATOM     17  C   UNL     1      40.498 -36.365 -32.007  0.00  0.00    -0.019 A 
ATOM     18  C   UNL     1      39.679 -36.846 -30.988  0.00  0.00    +0.136 A 
ATOM     19  O   UNL     1      38.347 -36.597 -30.863  0.00  0.00    -0.452 OA
ENDBRANCH  10  11
ENDBRANCH   7  10
ENDBRANCH   1   8
BRANCH   5  20
ATOM     20  C   UNL     1      30.810 -33.190 -30.245  0.00  0.00    +0.048 C 
BRANCH  20  21
ATOM     21  C   UNL     1      30.144 -31.858 -29.989  0.00  0.00    -0.028 A 
ATOM     22  C   UNL     1      29.327 -31.252 -30.958  0.00  0.00    -0.055 A 
ATOM     23  C   UNL     1      28.711 -30.022 -30.699  0.00  0.00    -0.031 A 
ATOM     24  C   UNL     1      28.896 -29.398 -29.459  0.00  0.00    +0.126 A 
ATOM     25  C   UNL     1      29.693 -30.000 -28.478  0.00  0.00    -0.031 A 
ATOM     26  C   UNL     1      30.311 -31.225 -28.744  0.00  0.00    -0.055 A 
BRANCH  24  27
ATOM     27  N   UNL     1      28.254 -28.106 -29.185  0.00  0.00    +0.056 N 
ATOM     28  O   UNL     1      28.151 -27.308 -30.126  0.00  0.00    -0.126 OA
ATOM     29  O   UNL     1      27.849 -27.903 -28.033  0.00  0.00    -0.126 OA
ENDBRANCH  24  27
ENDBRANCH  20  21
ENDBRANCH   5  20
TORSDOF 6
ENDMDL
MODEL 8
REMARK VINA RESULT:    -7.866     18.080     21.930
REMARK INTER + INTRA:         -11.372
REMARK INTER:                 -10.674
REMARK INTRA:                  -0.698
REMARK UNBOUND:                -0.747
REMARK  Name = cpd324.pdb
REMARK  6 active torsions:
REMARK  status: ('A' for Active; 'I' for Inactive)
REMARK    1  A    between atoms: C_2  and  C_3
REMARK    2  A    between atoms: C_2  and  C_21
REMARK    3  A    between atoms: C_4  and  C_5
REMARK    4  A    between atoms: N_9  and  C_10
REMARK    5  A    between atoms: C_10  and  C_11
REMARK    6  A    between atoms: C_14  and  N_15
REMARK                            x       y       z     vdW  Elec       q    Type
REMARK                         _______ _______ _______ _____ _____    ______ ____
ROOT
ATOM      1  C   UNL     1      43.082 -18.876 -35.446  0.00  0.00    -0.009 A 
ATOM      2  C   UNL     1      44.232 -18.715 -34.675  0.00  0.00    -0.052 A 
ATOM      3  C   UNL     1      44.140 -18.704 -33.288  0.00  0.00    -0.045 A 
ATOM      4  C   UNL     1      42.896 -18.844 -32.682  0.00  0.00    +0.005 A 
ATOM      5  N   UNL     1      41.772 -18.942 -33.431  0.00  0.00    -0.348 N 
ATOM      6  C   UNL     1      41.853 -18.963 -34.785  0.00  0.00    +0.012 A 
ENDROOT
BRANCH   1   8
ATOM      7  C   UNL     1      43.379 -20.088 -37.603  0.00  0.00    -0.011 C 
ATOM      8  C   UNL     1      43.095 -18.972 -36.913  0.00  0.00    -0.049 C 
BRANCH   7  10
ATOM      9  O   UNL     1      42.347 -19.575 -39.623  0.00  0.00    -0.284 OA
ATOM     10  C   UNL     1      43.279 -20.178 -39.093  0.00  0.00    +0.221 C 
BRANCH  10  11
ATOM     11  C   UNL     1      44.288 -20.900 -39.841  0.00  0.00    +0.176 A 
ATOM     12  C   UNL     1      44.358 -21.209 -41.188  0.00  0.00    -0.005 A 
ATOM     13  C   UNL     1      45.587 -21.884 -41.400  0.00  0.00    +0.021 A 
ATOM     14  C   UNL     1      46.252 -22.442 -42.505  0.00  0.00    -0.051 A 
ATOM     15  C   UNL     1      47.506 -23.038 -42.305  0.00  0.00    -0.061 A 
ATOM     16  C   UNL     1      48.091 -23.080 -41.037  0.00  0.00    -0.058 A 
ATOM     17  C   UNL     1      47.446 -22.528 -39.926  0.00  0.00    -0.019 A 
ATOM     18  C   UNL     1      46.202 -21.945 -40.156  0.00  0.00    +0.136 A 
ATOM     19  O   UNL     1      45.422 -21.352 -39.212  0.00  0.00    -0.452 OA
ENDBRANCH  10  11
ENDBRANCH   7  10
ENDBRANCH   1   8
BRANCH   5  20
ATOM     20  C   UNL     1      40.439 -19.141 -32.797  0.00  0.00    +0.048 C 
BRANCH  20  21
ATOM     21  C   UNL     1      39.876 -20.533 -32.962  0.00  0.00    -0.028 A 
ATOM     22  C   UNL     1      38.506 -20.746 -33.191  0.00  0.00    -0.055 A 
ATOM     23  C   UNL     1      38.006 -22.043 -33.350  0.00  0.00    -0.031 A 
ATOM     24  C   UNL     1      38.879 -23.137 -33.300  0.00  0.00    +0.126 A 
ATOM     25  C   UNL     1      40.249 -22.938 -33.092  0.00  0.00    -0.031 A 
ATOM     26  C   UNL     1      40.742 -21.641 -32.927  0.00  0.00    -0.055 A 
BRANCH  24  27
ATOM     27  N   UNL     1      38.356 -24.500 -33.465  0.00  0.00    +0.056 N 
ATOM     28  O   UNL     1      38.082 -24.873 -34.613  0.00  0.00    -0.126 OA
ATOM     29  O   UNL     1      38.234 -25.190 -32.444  0.00  0.00    -0.126 OA
ENDBRANCH  24  27
ENDBRANCH  20  21
ENDBRANCH   5  20
TORSDOF 6
ENDMDL
MODEL 9
REMARK VINA RESULT:    -7.817     23.719     26.223
REMARK INTER + INTRA:         -11.306
REMARK INTER:                 -10.445
REMARK INTRA:                  -0.861
REMARK UNBOUND:                -0.747
REMARK  Name = cpd324.pdb
REMARK  6 active torsions:
REMARK  status: ('A' for Active; 'I' for Inactive)
REMARK    1  A    between atoms: C_2  and  C_3
REMARK    2  A    between atoms: C_2  and  C_21
REMARK    3  A    between atoms: C_4  and  C_5
REMARK    4  A    between atoms: N_9  and  C_10
REMARK    5  A    between atoms: C_10  and  C_11
REMARK    6  A    between atoms: C_14  and  N_15
REMARK                            x       y       z     vdW  Elec       q    Type
REMARK                         _______ _______ _______ _____ _____    ______ ____
ROOT
ATOM      1  C   UNL     1      53.284 -31.350 -53.235  0.00  0.00    -0.009 A 
ATOM      2  C   UNL     1      54.266 -30.551 -53.819  0.00  0.00    -0.052 A 
ATOM      3  C   UNL     1      55.559 -31.040 -53.967  0.00  0.00    -0.045 A 
ATOM      4  C   UNL     1      55.863 -32.320 -53.519  0.00  0.00    +0.005 A 
ATOM      5  N   UNL     1      54.925 -33.075 -52.899  0.00  0.00    -0.348 N 
ATOM      6  C   UNL     1      53.658 -32.610 -52.759  0.00  0.00    +0.012 A 
ENDROOT
BRANCH   1   8
ATOM      7  C   UNL     1      50.859 -31.487 -53.789  0.00  0.00    -0.011 C 
ATOM      8  C   UNL     1      51.877 -30.943 -53.105  0.00  0.00    -0.049 C 
BRANCH   7  10
ATOM      9  O   UNL     1      49.153 -29.922 -53.556  0.00  0.00    -0.284 OA
ATOM     10  C   UNL     1      49.427 -31.122 -53.555  0.00  0.00    +0.221 C 
BRANCH  10  11
ATOM     11  C   UNL     1      48.432 -32.165 -53.399  0.00  0.00    +0.176 A 
ATOM     12  C   UNL     1      47.052 -32.087 -53.337  0.00  0.00    -0.005 A 
ATOM     13  C   UNL     1      46.563 -33.414 -53.234  0.00  0.00    +0.021 A 
ATOM     14  C   UNL     1      45.296 -34.016 -53.143  0.00  0.00    -0.051 A 
ATOM     15  C   UNL     1      45.220 -35.414 -53.063  0.00  0.00    -0.061 A 
ATOM     16  C   UNL     1      46.374 -36.202 -53.073  0.00  0.00    -0.058 A 
ATOM     17  C   UNL     1      47.643 -35.622 -53.165  0.00  0.00    -0.019 A 
ATOM     18  C   UNL     1      47.686 -34.231 -53.242  0.00  0.00    +0.136 A 
ATOM     19  O   UNL     1      48.817 -33.481 -53.341  0.00  0.00    -0.452 OA
ENDBRANCH  10  11
ENDBRANCH   7  10
ENDBRANCH   1   8
BRANCH   5  20
ATOM     20  C   UNL     1      55.222 -34.466 -52.458  0.00  0.00    +0.048 C 
BRANCH  20  21
ATOM     21  C   UNL     1      55.184 -34.662 -50.960  0.00  0.00    -0.028 A 
ATOM     22  C   UNL     1      54.363 -35.639 -50.372  0.00  0.00    -0.055 A 
ATOM     23  C   UNL     1      54.348 -35.812 -48.983  0.00  0.00    -0.031 A 
ATOM     24  C   UNL     1      55.170 -35.018 -48.174  0.00  0.00    +0.126 A 
ATOM     25  C   UNL     1      56.007 -34.054 -48.748  0.00  0.00    -0.031 A 
ATOM     26  C   UNL     1      56.013 -33.881 -50.135  0.00  0.00    -0.055 A 
BRANCH  24  27
ATOM     27  N   UNL     1      55.155 -35.195 -46.716  0.00  0.00    +0.056 N 
ATOM     28  O   UNL     1      55.099 -34.174 -46.017  0.00  0.00    -0.126 OA
ATOM     29  O   UNL     1      55.189 -36.354 -46.282  0.00  0.00    -0.126 OA
ENDBRANCH  24  27
ENDBRANCH  20  21
ENDBRANCH   5  20
TORSDOF 6
ENDMDL
MODEL 10
REMARK VINA RESULT:    -7.803      5.307      9.387
REMARK INTER + INTRA:         -11.286
REMARK INTER:                 -10.399
REMARK INTRA:                  -0.887
REMARK UNBOUND:                -0.747
REMARK  Name = cpd324.pdb
REMARK  6 active torsions:
REMARK  status: ('A' for Active; 'I' for Inactive)
REMARK    1  A    between atoms: C_2  and  C_3
REMARK    2  A    between atoms: C_2  and  C_21
REMARK    3  A    between atoms: C_4  and  C_5
REMARK    4  A    between atoms: N_9  and  C_10
REMARK    5  A    between atoms: C_10  and  C_11
REMARK    6  A    between atoms: C_14  and  N_15
REMARK                            x       y       z     vdW  Elec       q    Type
REMARK                         _______ _______ _______ _____ _____    ______ ____
ROOT
ATOM      1  C   UNL     1      35.082 -39.116 -30.051  0.00  0.00    -0.009 A 
ATOM      2  C   UNL     1      35.385 -40.451 -30.314  0.00  0.00    -0.052 A 
ATOM      3  C   UNL     1      34.601 -41.460 -29.764  0.00  0.00    -0.045 A 
ATOM      4  C   UNL     1      33.528 -41.126 -28.946  0.00  0.00    +0.005 A 
ATOM      5  N   UNL     1      33.270 -39.832 -28.643  0.00  0.00    -0.348 N 
ATOM      6  C   UNL     1      34.022 -38.840 -29.182  0.00  0.00    +0.012 A 
ENDROOT
BRANCH   1   8
ATOM      7  C   UNL     1      36.388 -36.997 -29.948  0.00  0.00    -0.011 C 
ATOM      8  C   UNL     1      35.809 -37.986 -30.647  0.00  0.00    -0.049 C 
BRANCH   7  10
ATOM      9  O   UNL     1      36.647 -34.846 -30.796  0.00  0.00    -0.284 OA
ATOM     10  C   UNL     1      37.210 -35.919 -30.582  0.00  0.00    +0.221 C 
BRANCH  10  11
ATOM     11  C   UNL     1      38.614 -36.150 -30.858  0.00  0.00    +0.176 A 
ATOM     12  C   UNL     1      39.523 -35.397 -31.580  0.00  0.00    -0.005 A 
ATOM     13  C   UNL     1      40.777 -36.054 -31.488  0.00  0.00    +0.021 A 
ATOM     14  C   UNL     1      42.075 -35.819 -31.973  0.00  0.00    -0.051 A 
ATOM     15  C   UNL     1      43.090 -36.728 -31.646  0.00  0.00    -0.061 A 
ATOM     16  C   UNL     1      42.828 -37.850 -30.855  0.00  0.00    -0.058 A 
ATOM     17  C   UNL     1      41.544 -38.100 -30.361  0.00  0.00    -0.019 A 
ATOM     18  C   UNL     1      40.557 -37.179 -30.704  0.00  0.00    +0.136 A 
ATOM     19  O   UNL     1      39.252 -37.241 -30.321  0.00  0.00    -0.452 OA
ENDBRANCH  10  11
ENDBRANCH   7  10
ENDBRANCH   1   8
BRANCH   5  20
ATOM     20  C   UNL     1      32.095 -39.456 -27.808  0.00  0.00    +0.048 C 
BRANCH  20  21
ATOM     21  C   UNL     1      32.411 -38.481 -26.697  0.00  0.00    -0.028 A 
ATOM     22  C   UNL     1      31.861 -37.189 -26.680  0.00  0.00    -0.055 A 
ATOM     23  C   UNL     1      32.158 -36.304 -25.638  0.00  0.00    -0.031 A 
ATOM     24  C   UNL     1      32.996 -36.714 -24.593  0.00  0.00    +0.126 A 
ATOM     25  C   UNL     1      33.536 -38.006 -24.588  0.00  0.00    -0.031 A 
ATOM     26  C   UNL     1      33.241 -38.883 -25.635  0.00  0.00    -0.055 A 
BRANCH  24  27
ATOM     27  N   UNL     1      33.313 -35.787 -23.499  0.00  0.00    +0.056 N 
ATOM     28  O   UNL     1      32.748 -34.685 -23.502  0.00  0.00    -0.126 OA
ATOM     29  O   UNL     1      34.116 -36.172 -22.640  0.00  0.00    -0.126 OA
ENDBRANCH  24  27
ENDBRANCH  20  21
ENDBRANCH   5  20
TORSDOF 6
ENDMDL
MODEL 11
REMARK VINA RESULT:    -7.763     18.826     22.901
REMARK INTER + INTRA:         -11.232
REMARK INTER:                 -10.588
REMARK INTRA:                  -0.643
REMARK UNBOUND:                -0.747
REMARK  Name = cpd324.pdb
REMARK  6 active torsions:
REMARK  status: ('A' for Active; 'I' for Inactive)
REMARK    1  A    between atoms: C_2  and  C_3
REMARK    2  A    between atoms: C_2  and  C_21
REMARK    3  A    between atoms: C_4  and  C_5
REMARK    4  A    between atoms: N_9  and  C_10
REMARK    5  A    between atoms: C_10  and  C_11
REMARK    6  A    between atoms: C_14  and  N_15
REMARK                            x       y       z     vdW  Elec       q    Type
REMARK                         _______ _______ _______ _____ _____    ______ ____
ROOT
ATOM      1  C   UNL     1      44.956 -18.584 -35.425  0.00  0.00    -0.009 A 
ATOM      2  C   UNL     1      46.154 -18.682 -34.720  0.00  0.00    -0.052 A 
ATOM      3  C   UNL     1      47.363 -18.668 -35.406  0.00  0.00    -0.045 A 
ATOM      4  C   UNL     1      47.364 -18.568 -36.792  0.00  0.00    +0.005 A 
ATOM      5  N   UNL     1      46.199 -18.532 -37.481  0.00  0.00    -0.348 N 
ATOM      6  C   UNL     1      45.014 -18.535 -36.821  0.00  0.00    +0.012 A 
ENDROOT
BRANCH   1   8
ATOM      7  C   UNL     1      43.405 -18.792 -33.485  0.00  0.00    -0.011 C 
ATOM      8  C   UNL     1      43.637 -18.517 -34.778  0.00  0.00    -0.049 C 
BRANCH   7  10
ATOM      9  O   UNL     1      41.875 -17.546 -32.252  0.00  0.00    -0.284 OA
ATOM     10  C   UNL     1      42.069 -18.611 -32.836  0.00  0.00    +0.221 C 
BRANCH  10  11
ATOM     11  C   UNL     1      41.059 -19.644 -32.964  0.00  0.00    +0.176 A 
ATOM     12  C   UNL     1      39.724 -19.644 -32.600  0.00  0.00    -0.005 A 
ATOM     13  C   UNL     1      39.182 -20.891 -33.001  0.00  0.00    +0.021 A 
ATOM     14  C   UNL     1      37.921 -21.508 -32.936  0.00  0.00    -0.051 A 
ATOM     15  C   UNL     1      37.773 -22.795 -33.472  0.00  0.00    -0.061 A 
ATOM     16  C   UNL     1      38.852 -23.460 -34.062  0.00  0.00    -0.058 A 
ATOM     17  C   UNL     1      40.114 -22.862 -34.138  0.00  0.00    -0.019 A 
ATOM     18  C   UNL     1      40.228 -21.583 -33.596  0.00  0.00    +0.136 A 
ATOM     19  O   UNL     1      41.364 -20.834 -33.576  0.00  0.00    -0.452 OA
ENDBRANCH  10  11
ENDBRANCH   7  10
ENDBRANCH   1   8
BRANCH   5  20
ATOM     20  C   UNL     1      46.184 -18.375 -38.962  0.00  0.00    +0.048 C 
BRANCH  20  21
ATOM     21  C   UNL     1      46.506 -19.642 -39.722  0.00  0.00    -0.028 A 
ATOM     22  C   UNL     1      46.426 -20.903 -39.108  0.00  0.00    -0.055 A 
ATOM     23  C   UNL     1      46.719 -22.065 -39.831  0.00  0.00    -0.031 A 
ATOM     24  C   UNL     1      47.078 -21.972 -41.182  0.00  0.00    +0.126 A 
ATOM     25  C   UNL     1      47.143 -20.724 -41.811  0.00  0.00    -0.031 A 
ATOM     26  C   UNL     1      46.856 -19.566 -41.082  0.00  0.00    -0.055 A 
BRANCH  24  27
ATOM     27  N   UNL     1      47.389 -23.190 -41.942  0.00  0.00    +0.056 N 
ATOM     28  O   UNL     1      46.474 -23.702 -42.600  0.00  0.00    -0.126 OA
ATOM     29  O   UNL     1      48.549 -23.617 -41.884  0.00  0.00    -0.126 OA
ENDBRANCH  24  27
ENDBRANCH  20  21
ENDBRANCH   5  20
TORSDOF 6
ENDMDL
MODEL 12
REMARK VINA RESULT:    -7.734     19.095     22.125
REMARK INTER + INTRA:         -11.193
REMARK INTER:                 -10.107
REMARK INTRA:                  -1.086
REMARK UNBOUND:                -0.747
REMARK  Name = cpd324.pdb
REMARK  6 active torsions:
REMARK  status: ('A' for Active; 'I' for Inactive)
REMARK    1  A    between atoms: C_2  and  C_3
REMARK    2  A    between atoms: C_2  and  C_21
REMARK    3  A    between atoms: C_4  and  C_5
REMARK    4  A    between atoms: N_9  and  C_10
REMARK    5  A    between atoms: C_10  and  C_11
REMARK    6  A    between atoms: C_14  and  N_15
REMARK                            x       y       z     vdW  Elec       q    Type
REMARK                         _______ _______ _______ _____ _____    ______ ____
ROOT
ATOM      1  C   UNL     1      43.924 -20.918 -40.551  0.00  0.00    -0.009 A 
ATOM      2  C   UNL     1      44.238 -20.465 -41.830  0.00  0.00    -0.052 A 
ATOM      3  C   UNL     1      45.470 -19.866 -42.070  0.00  0.00    -0.045 A 
ATOM      4  C   UNL     1      46.373 -19.714 -41.024  0.00  0.00    +0.005 A 
ATOM      5  N   UNL     1      46.045 -20.102 -39.769  0.00  0.00    -0.348 N 
ATOM      6  C   UNL     1      44.850 -20.696 -39.527  0.00  0.00    +0.012 A 
ENDROOT
BRANCH   1   8
ATOM      7  C   UNL     1      42.303 -21.979 -38.984  0.00  0.00    -0.011 C 
ATOM      8  C   UNL     1      42.678 -21.627 -40.224  0.00  0.00    -0.049 C 
BRANCH   7  10
ATOM      9  O   UNL     1      40.499 -23.340 -39.538  0.00  0.00    -0.284 OA
ATOM     10  C   UNL     1      40.979 -22.606 -38.676  0.00  0.00    +0.221 C 
BRANCH  10  11
ATOM     11  C   UNL     1      40.357 -22.380 -37.386  0.00  0.00    +0.176 A 
ATOM     12  C   UNL     1      39.246 -21.629 -37.045  0.00  0.00    -0.005 A 
ATOM     13  C   UNL     1      39.041 -21.795 -35.652  0.00  0.00    +0.021 A 
ATOM     14  C   UNL     1      38.112 -21.326 -34.708  0.00  0.00    -0.051 A 
ATOM     15  C   UNL     1      38.240 -21.739 -33.374  0.00  0.00    -0.061 A 
ATOM     16  C   UNL     1      39.269 -22.601 -32.981  0.00  0.00    -0.058 A 
ATOM     17  C   UNL     1      40.202 -23.079 -33.906  0.00  0.00    -0.019 A 
ATOM     18  C   UNL     1      40.047 -22.650 -35.222  0.00  0.00    +0.136 A 
ATOM     19  O   UNL     1      40.845 -23.006 -36.266  0.00  0.00    -0.452 OA
ENDBRANCH  10  11
ENDBRANCH   7  10
ENDBRANCH   1   8
BRANCH   5  20
ATOM     20  C   UNL     1      47.020 -19.991 -38.648  0.00  0.00    +0.048 C 
BRANCH  20  21
ATOM     21  C   UNL     1      46.430 -19.458 -37.363  0.00  0.00    -0.028 A 
ATOM     22  C   UNL     1      45.953 -18.140 -37.269  0.00  0.00    -0.055 A 
ATOM     23  C   UNL     1      45.400 -17.669 -36.073  0.00  0.00    -0.031 A 
ATOM     24  C   UNL     1      45.304 -18.522 -34.966  0.00  0.00    +0.126 A 
ATOM     25  C   UNL     1      45.758 -19.844 -35.052  0.00  0.00    -0.031 A 
ATOM     26  C   UNL     1      46.315 -20.307 -36.247  0.00  0.00    -0.055 A 
BRANCH  24  27
ATOM     27  N   UNL     1      44.728 -18.030 -33.708  0.00  0.00    +0.056 N 
ATOM     28  O   UNL     1      45.004 -18.649 -32.672  0.00  0.00    -0.126 OA
ATOM     29  O   UNL     1      44.011 -17.022 -33.765  0.00  0.00    -0.126 OA
ENDBRANCH  24  27
ENDBRANCH  20  21
ENDBRANCH   5  20
TORSDOF 6
ENDMDL
MODEL 13
REMARK VINA RESULT:    -7.723      5.294      9.700
REMARK INTER + INTRA:         -11.178
REMARK INTER:                 -10.311
REMARK INTRA:                  -0.867
REMARK UNBOUND:                -0.747
REMARK  Name = cpd324.pdb
REMARK  6 active torsions:
REMARK  status: ('A' for Active; 'I' for Inactive)
REMARK    1  A    between atoms: C_2  and  C_3
REMARK    2  A    between atoms: C_2  and  C_21
REMARK    3  A    between atoms: C_4  and  C_5
REMARK    4  A    between atoms: N_9  and  C_10
REMARK    5  A    between atoms: C_10  and  C_11
REMARK    6  A    between atoms: C_14  and  N_15
REMARK                            x       y       z     vdW  Elec       q    Type
REMARK                         _______ _______ _______ _____ _____    ______ ____
ROOT
ATOM      1  C   UNL     1      34.022 -33.934 -30.152  0.00  0.00    -0.009 A 
ATOM      2  C   UNL     1      33.920 -32.547 -30.247  0.00  0.00    -0.052 A 
ATOM      3  C   UNL     1      32.743 -31.970 -30.713  0.00  0.00    -0.045 A 
ATOM      4  C   UNL     1      31.683 -32.785 -31.091  0.00  0.00    +0.005 A 
ATOM      5  N   UNL     1      31.803 -34.133 -31.055  0.00  0.00    -0.348 N 
ATOM      6  C   UNL     1      32.942 -34.705 -30.593  0.00  0.00    +0.012 A 
ENDROOT
BRANCH   1   8
ATOM      7  C   UNL     1      35.308 -35.957 -29.473  0.00  0.00    -0.011 C 
ATOM      8  C   UNL     1      35.197 -34.626 -29.604  0.00  0.00    -0.049 C 
BRANCH   7  10
ATOM      9  O   UNL     1      36.516 -37.186 -27.910  0.00  0.00    -0.284 OA
ATOM     10  C   UNL     1      36.559 -36.634 -29.009  0.00  0.00    +0.221 C 
BRANCH  10  11
ATOM     11  C   UNL     1      37.724 -36.666 -29.871  0.00  0.00    +0.176 A 
ATOM     12  C   UNL     1      37.952 -36.062 -31.095  0.00  0.00    -0.005 A 
ATOM     13  C   UNL     1      39.281 -36.378 -31.475  0.00  0.00    +0.021 A 
ATOM     14  C   UNL     1      40.113 -36.081 -32.568  0.00  0.00    -0.051 A 
ATOM     15  C   UNL     1      41.420 -36.589 -32.577  0.00  0.00    -0.061 A 
ATOM     16  C   UNL     1      41.896 -37.375 -31.523  0.00  0.00    -0.058 A 
ATOM     17  C   UNL     1      41.085 -37.679 -30.426  0.00  0.00    -0.019 A 
ATOM     18  C   UNL     1      39.792 -37.160 -30.448  0.00  0.00    +0.136 A 
ATOM     19  O   UNL     1      38.855 -37.337 -29.477  0.00  0.00    -0.452 OA
ENDBRANCH  10  11
ENDBRANCH   7  10
ENDBRANCH   1   8
BRANCH   5  20
ATOM     20  C   UNL     1      30.659 -35.018 -31.410  0.00  0.00    +0.048 C 
BRANCH  20  21
ATOM     21  C   UNL     1      31.021 -36.158 -32.334  0.00  0.00    -0.028 A 
ATOM     22  C   UNL     1      31.101 -37.481 -31.866  0.00  0.00    -0.055 A 
ATOM     23  C   UNL     1      31.429 -38.524 -32.738  0.00  0.00    -0.031 A 
ATOM     24  C   UNL     1      31.662 -38.252 -34.092  0.00  0.00    +0.126 A 
ATOM     25  C   UNL     1      31.568 -36.942 -34.576  0.00  0.00    -0.031 A 
ATOM     26  C   UNL     1      31.246 -35.903 -33.698  0.00  0.00    -0.055 A 
BRANCH  24  27
ATOM     27  N   UNL     1      32.010 -39.345 -35.011  0.00  0.00    +0.056 N 
ATOM     28  O   UNL     1      31.576 -39.279 -36.168  0.00  0.00    -0.126 OA
ATOM     29  O   UNL     1      32.723 -40.255 -34.569  0.00  0.00    -0.126 OA
ENDBRANCH  24  27
ENDBRANCH  20  21
ENDBRANCH   5  20
TORSDOF 6
ENDMDL
MODEL 14
REMARK VINA RESULT:    -7.656     19.055     22.535
REMARK INTER + INTRA:         -11.088
REMARK INTER:                 -10.374
REMARK INTRA:                  -0.713
REMARK UNBOUND:                -0.747
REMARK  Name = cpd324.pdb
REMARK  6 active torsions:
REMARK  status: ('A' for Active; 'I' for Inactive)
REMARK    1  A    between atoms: C_2  and  C_3
REMARK    2  A    between atoms: C_2  and  C_21
REMARK    3  A    between atoms: C_4  and  C_5
REMARK    4  A    between atoms: N_9  and  C_10
REMARK    5  A    between atoms: C_10  and  C_11
REMARK    6  A    between atoms: C_14  and  N_15
REMARK                            x       y       z     vdW  Elec       q    Type
REMARK                         _______ _______ _______ _____ _____    ______ ____
ROOT
ATOM      1  C   UNL     1      42.226 -18.840 -38.586  0.00  0.00    -0.009 A 
ATOM      2  C   UNL     1      42.094 -17.535 -38.114  0.00  0.00    -0.052 A 
ATOM      3  C   UNL     1      42.646 -16.480 -38.832  0.00  0.00    -0.045 A 
ATOM      4  C   UNL     1      43.338 -16.740 -40.010  0.00  0.00    +0.005 A 
ATOM      5  N   UNL     1      43.517 -18.012 -40.437  0.00  0.00    -0.348 N 
ATOM      6  C   UNL     1      42.973 -19.047 -39.749  0.00  0.00    +0.012 A 
ENDROOT
BRANCH   1   8
ATOM      7  C   UNL     1      40.857 -20.922 -38.557  0.00  0.00    -0.011 C 
ATOM      8  C   UNL     1      41.614 -20.006 -37.932  0.00  0.00    -0.049 C 
BRANCH   7  10
ATOM      9  O   UNL     1      40.653 -23.232 -38.381  0.00  0.00    -0.284 OA
ATOM     10  C   UNL     1      40.337 -22.152 -37.884  0.00  0.00    +0.221 C 
BRANCH  10  11
ATOM     11  C   UNL     1      39.551 -22.034 -36.671  0.00  0.00    +0.176 A 
ATOM     12  C   UNL     1      39.382 -22.919 -35.621  0.00  0.00    -0.005 A 
ATOM     13  C   UNL     1      38.552 -22.280 -34.666  0.00  0.00    +0.021 A 
ATOM     14  C   UNL     1      38.019 -22.616 -33.410  0.00  0.00    -0.051 A 
ATOM     15  C   UNL     1      37.219 -21.676 -32.744  0.00  0.00    -0.061 A 
ATOM     16  C   UNL     1      36.951 -20.427 -33.310  0.00  0.00    -0.058 A 
ATOM     17  C   UNL     1      37.473 -20.073 -34.558  0.00  0.00    -0.019 A 
ATOM     18  C   UNL     1      38.263 -21.028 -35.194  0.00  0.00    +0.136 A 
ATOM     19  O   UNL     1      38.865 -20.875 -36.405  0.00  0.00    -0.452 OA
ENDBRANCH  10  11
ENDBRANCH   7  10
ENDBRANCH   1   8
BRANCH   5  20
ATOM     20  C   UNL     1      44.213 -18.302 -41.722  0.00  0.00    +0.048 C 
BRANCH  20  21
ATOM     21  C   UNL     1      44.981 -19.604 -41.730  0.00  0.00    -0.028 A 
ATOM     22  C   UNL     1      46.156 -19.763 -40.976  0.00  0.00    -0.055 A 
ATOM     23  C   UNL     1      46.849 -20.979 -40.989  0.00  0.00    -0.031 A 
ATOM     24  C   UNL     1      46.357 -22.052 -41.744  0.00  0.00    +0.126 A 
ATOM     25  C   UNL     1      45.177 -21.913 -42.484  0.00  0.00    -0.031 A 
ATOM     26  C   UNL     1      44.494 -20.694 -42.473  0.00  0.00    -0.055 A 
BRANCH  24  27
ATOM     27  N   UNL     1      47.083 -23.329 -41.762  0.00  0.00    +0.056 N 
ATOM     28  O   UNL     1      47.982 -23.488 -40.926  0.00  0.00    -0.126 OA
ATOM     29  O   UNL     1      46.741 -24.167 -42.606  0.00  0.00    -0.126 OA
ENDBRANCH  24  27
ENDBRANCH  20  21
ENDBRANCH   5  20
TORSDOF 6
ENDMDL
MODEL 15
REMARK VINA RESULT:    -7.648     20.904     24.509
REMARK INTER + INTRA:         -11.077
REMARK INTER:                 -10.219
REMARK INTRA:                  -0.858
REMARK UNBOUND:                -0.747
REMARK  Name = cpd324.pdb
REMARK  6 active torsions:
REMARK  status: ('A' for Active; 'I' for Inactive)
REMARK    1  A    between atoms: C_2  and  C_3
REMARK    2  A    between atoms: C_2  and  C_21
REMARK    3  A    between atoms: C_4  and  C_5
REMARK    4  A    between atoms: N_9  and  C_10
REMARK    5  A    between atoms: C_10  and  C_11
REMARK    6  A    between atoms: C_14  and  N_15
REMARK                            x       y       z     vdW  Elec       q    Type
REMARK                         _______ _______ _______ _____ _____    ______ ____
ROOT
ATOM      1  C   UNL     1      46.076 -17.384 -36.844  0.00  0.00    -0.009 A 
ATOM      2  C   UNL     1      46.851 -16.240 -37.019  0.00  0.00    -0.052 A 
ATOM      3  C   UNL     1      47.040 -15.719 -38.294  0.00  0.00    -0.045 A 
ATOM      4  C   UNL     1      46.461 -16.354 -39.387  0.00  0.00    +0.005 A 
ATOM      5  N   UNL     1      45.757 -17.499 -39.224  0.00  0.00    -0.348 N 
ATOM      6  C   UNL     1      45.559 -18.009 -37.983  0.00  0.00    +0.012 A 
ENDROOT
BRANCH   1   8
ATOM      7  C   UNL     1      45.179 -17.294 -34.521  0.00  0.00    -0.011 C 
ATOM      8  C   UNL     1      45.764 -17.961 -35.528  0.00  0.00    -0.049 C 
BRANCH   7  10
ATOM      9  O   UNL     1      45.549 -17.803 -32.282  0.00  0.00    -0.284 OA
ATOM     10  C   UNL     1      44.780 -17.940 -33.233  0.00  0.00    +0.221 C 
BRANCH  10  11
ATOM     11  C   UNL     1      43.511 -18.635 -33.136  0.00  0.00    +0.176 A 
ATOM     12  C   UNL     1      43.169 -19.931 -33.476  0.00  0.00    -0.005 A 
ATOM     13  C   UNL     1      41.807 -20.110 -33.125  0.00  0.00    +0.021 A 
ATOM     14  C   UNL     1      40.878 -21.163 -33.197  0.00  0.00    -0.051 A 
ATOM     15  C   UNL     1      39.577 -20.946 -32.720  0.00  0.00    -0.061 A 
ATOM     16  C   UNL     1      39.202 -19.712 -32.183  0.00  0.00    -0.058 A 
ATOM     17  C   UNL     1      40.111 -18.653 -32.101  0.00  0.00    -0.019 A 
ATOM     18  C   UNL     1      41.395 -18.900 -32.583  0.00  0.00    +0.136 A 
ATOM     19  O   UNL     1      42.421 -18.005 -32.588  0.00  0.00    -0.452 OA
ENDBRANCH  10  11
ENDBRANCH   7  10
ENDBRANCH   1   8
BRANCH   5  20
ATOM     20  C   UNL     1      45.090 -18.164 -40.378  0.00  0.00    +0.048 C 
BRANCH  20  21
ATOM     21  C   UNL     1      45.733 -19.466 -40.799  0.00  0.00    -0.028 A 
ATOM     22  C   UNL     1      47.054 -19.508 -41.276  0.00  0.00    -0.055 A 
ATOM     23  C   UNL     1      47.634 -20.725 -41.652  0.00  0.00    -0.031 A 
ATOM     24  C   UNL     1      46.901 -21.912 -41.534  0.00  0.00    +0.126 A 
ATOM     25  C   UNL     1      45.591 -21.887 -41.041  0.00  0.00    -0.031 A 
ATOM     26  C   UNL     1      45.014 -20.668 -40.674  0.00  0.00    -0.055 A 
BRANCH  24  27
ATOM     27  N   UNL     1      47.506 -23.190 -41.930  0.00  0.00    +0.056 N 
ATOM     28  O   UNL     1      48.711 -23.350 -41.693  0.00  0.00    -0.126 OA
ATOM     29  O   UNL     1      46.769 -24.029 -42.465  0.00  0.00    -0.126 OA
ENDBRANCH  24  27
ENDBRANCH  20  21
ENDBRANCH   5  20
TORSDOF 6
ENDMDL
MODEL 16
REMARK VINA RESULT:    -7.632      4.984      8.124
REMARK INTER + INTRA:         -11.055
REMARK INTER:                 -10.279
REMARK INTRA:                  -0.776
REMARK UNBOUND:                -0.747
REMARK  Name = cpd324.pdb
REMARK  6 active torsions:
REMARK  status: ('A' for Active; 'I' for Inactive)
REMARK    1  A    between atoms: C_2  and  C_3
REMARK    2  A    between atoms: C_2  and  C_21
REMARK    3  A    between atoms: C_4  and  C_5
REMARK    4  A    between atoms: N_9  and  C_10
REMARK    5  A    between atoms: C_10  and  C_11
REMARK    6  A    between atoms: C_14  and  N_15
REMARK                            x       y       z     vdW  Elec       q    Type
REMARK                         _______ _______ _______ _____ _____    ______ ____
ROOT
ATOM      1  C   UNL     1      34.255 -38.482 -31.512  0.00  0.00    -0.009 A 
ATOM      2  C   UNL     1      34.331 -39.872 -31.542  0.00  0.00    -0.052 A 
ATOM      3  C   UNL     1      35.254 -40.534 -30.740  0.00  0.00    -0.045 A 
ATOM      4  C   UNL     1      36.103 -39.797 -29.922  0.00  0.00    +0.005 A 
ATOM      5  N   UNL     1      36.070 -38.443 -29.936  0.00  0.00    -0.348 N 
ATOM      6  C   UNL     1      35.166 -37.790 -30.708  0.00  0.00    +0.012 A 
ENDROOT
BRANCH   1   8
ATOM      7  C   UNL     1      32.457 -36.772 -31.740  0.00  0.00    -0.011 C 
ATOM      8  C   UNL     1      33.262 -37.705 -32.270  0.00  0.00    -0.049 C 
BRANCH   7  10
ATOM      9  O   UNL     1      30.961 -36.480 -33.497  0.00  0.00    -0.284 OA
ATOM     10  C   UNL     1      31.532 -35.927 -32.558  0.00  0.00    +0.221 C 
BRANCH  10  11
ATOM     11  C   UNL     1      31.304 -34.543 -32.192  0.00  0.00    +0.176 A 
ATOM     12  C   UNL     1      30.200 -33.733 -32.387  0.00  0.00    -0.005 A 
ATOM     13  C   UNL     1      30.487 -32.482 -31.784  0.00  0.00    +0.021 A 
ATOM     14  C   UNL     1      29.809 -31.262 -31.624  0.00  0.00    -0.051 A 
ATOM     15  C   UNL     1      30.447 -30.223 -30.932  0.00  0.00    -0.061 A 
ATOM     16  C   UNL     1      31.732 -30.387 -30.408  0.00  0.00    -0.058 A 
ATOM     17  C   UNL     1      32.423 -31.594 -30.555  0.00  0.00    -0.019 A 
ATOM     18  C   UNL     1      31.762 -32.606 -31.248  0.00  0.00    +0.136 A 
ATOM     19  O   UNL     1      32.260 -33.849 -31.492  0.00  0.00    -0.452 OA
ENDBRANCH  10  11
ENDBRANCH   7  10
ENDBRANCH   1   8
BRANCH   5  20
ATOM     20  C   UNL     1      36.939 -37.642 -29.030  0.00  0.00    +0.048 C 
BRANCH  20  21
ATOM     21  C   UNL     1      38.396 -37.618 -29.431  0.00  0.00    -0.028 A 
ATOM     22  C   UNL     1      39.374 -38.284 -28.673  0.00  0.00    -0.055 A 
ATOM     23  C   UNL     1      40.717 -38.258 -29.066  0.00  0.00    -0.031 A 
ATOM     24  C   UNL     1      41.088 -37.579 -30.234  0.00  0.00    +0.126 A 
ATOM     25  C   UNL     1      40.121 -36.927 -31.009  0.00  0.00    -0.031 A 
ATOM     26  C   UNL     1      38.782 -36.951 -30.608  0.00  0.00    -0.055 A 
BRANCH  24  27
ATOM     27  N   UNL     1      42.496 -37.547 -30.648  0.00  0.00    +0.056 N 
ATOM     28  O   UNL     1      43.111 -36.482 -30.504  0.00  0.00    -0.126 OA
ATOM     29  O   UNL     1      42.980 -38.591 -31.104  0.00  0.00    -0.126 OA
ENDBRANCH  24  27
ENDBRANCH  20  21
ENDBRANCH   5  20
TORSDOF 6
ENDMDL
MODEL 17
REMARK VINA RESULT:    -7.475      4.759      8.954
REMARK INTER + INTRA:         -10.843
REMARK INTER:                  -9.878
REMARK INTRA:                  -0.965
REMARK UNBOUND:                -0.747
REMARK  Name = cpd324.pdb
REMARK  6 active torsions:
REMARK  status: ('A' for Active; 'I' for Inactive)
REMARK    1  A    between atoms: C_2  and  C_3
REMARK    2  A    between atoms: C_2  and  C_21
REMARK    3  A    between atoms: C_4  and  C_5
REMARK    4  A    between atoms: N_9  and  C_10
REMARK    5  A    between atoms: C_10  and  C_11
REMARK    6  A    between atoms: C_14  and  N_15
REMARK                            x       y       z     vdW  Elec       q    Type
REMARK                         _______ _______ _______ _____ _____    ______ ____
ROOT
ATOM      1  C   UNL     1      33.828 -39.245 -30.949  0.00  0.00    -0.009 A 
ATOM      2  C   UNL     1      33.482 -40.369 -31.698  0.00  0.00    -0.052 A 
ATOM      3  C   UNL     1      32.322 -40.360 -32.465  0.00  0.00    -0.045 A 
ATOM      4  C   UNL     1      31.511 -39.232 -32.467  0.00  0.00    +0.005 A 
ATOM      5  N   UNL     1      31.815 -38.162 -31.695  0.00  0.00    -0.348 N 
ATOM      6  C   UNL     1      32.949 -38.157 -30.951  0.00  0.00    +0.012 A 
ENDROOT
BRANCH   1   8
ATOM      7  C   UNL     1      35.717 -37.991 -29.918  0.00  0.00    -0.011 C 
ATOM      8  C   UNL     1      35.069 -39.139 -30.170  0.00  0.00    -0.049 C 
BRANCH   7  10
ATOM      9  O   UNL     1      36.792 -38.321 -27.881  0.00  0.00    -0.284 OA
ATOM     10  C   UNL     1      36.920 -37.906 -29.032  0.00  0.00    +0.221 C 
BRANCH  10  11
ATOM     11  C   UNL     1      38.174 -37.408 -29.564  0.00  0.00    +0.176 A 
ATOM     12  C   UNL     1      39.466 -37.873 -29.400  0.00  0.00    -0.005 A 
ATOM     13  C   UNL     1      40.311 -37.046 -30.183  0.00  0.00    +0.021 A 
ATOM     14  C   UNL     1      41.688 -36.984 -30.457  0.00  0.00    -0.051 A 
ATOM     15  C   UNL     1      42.158 -35.989 -31.325  0.00  0.00    -0.061 A 
ATOM     16  C   UNL     1      41.282 -35.072 -31.914  0.00  0.00    -0.058 A 
ATOM     17  C   UNL     1      39.908 -35.118 -31.656  0.00  0.00    -0.019 A 
ATOM     18  C   UNL     1      39.473 -36.118 -30.789  0.00  0.00    +0.136 A 
ATOM     19  O   UNL     1      38.182 -36.332 -30.417  0.00  0.00    -0.452 OA
ENDBRANCH  10  11
ENDBRANCH   7  10
ENDBRANCH   1   8
BRANCH   5  20
ATOM     20  C   UNL     1      30.982 -36.928 -31.725  0.00  0.00    +0.048 C 
BRANCH  20  21
ATOM     21  C   UNL     1      31.773 -35.644 -31.629  0.00  0.00    -0.028 A 
ATOM     22  C   UNL     1      32.581 -35.203 -32.691  0.00  0.00    -0.055 A 
ATOM     23  C   UNL     1      33.298 -34.006 -32.586  0.00  0.00    -0.031 A 
ATOM     24  C   UNL     1      33.196 -33.232 -31.424  0.00  0.00    +0.126 A 
ATOM     25  C   UNL     1      32.380 -33.650 -30.366  0.00  0.00    -0.031 A 
ATOM     26  C   UNL     1      31.671 -34.850 -30.473  0.00  0.00    -0.055 A 
BRANCH  24  27
ATOM     27  N   UNL     1      33.950 -31.976 -31.310  0.00  0.00    +0.056 N 
ATOM     28  O   UNL     1      33.537 -31.132 -30.504  0.00  0.00    -0.126 OA
ATOM     29  O   UNL     1      34.956 -31.849 -32.021  0.00  0.00    -0.126 OA
ENDBRANCH  24  27
ENDBRANCH  20  21
ENDBRANCH   5  20
TORSDOF 6
ENDMDL
MODEL 18
REMARK VINA RESULT:    -7.433      7.661     10.372
REMARK INTER + INTRA:         -10.787
REMARK INTER:                  -9.908
REMARK INTRA:                  -0.880
REMARK UNBOUND:                -0.747
REMARK  Name = cpd324.pdb
REMARK  6 active torsions:
REMARK  status: ('A' for Active; 'I' for Inactive)
REMARK    1  A    between atoms: C_2  and  C_3
REMARK    2  A    between atoms: C_2  and  C_21
REMARK    3  A    between atoms: C_4  and  C_5
REMARK    4  A    between atoms: N_9  and  C_10
REMARK    5  A    between atoms: C_10  and  C_11
REMARK    6  A    between atoms: C_14  and  N_15
REMARK                            x       y       z     vdW  Elec       q    Type
REMARK                         _______ _______ _______ _____ _____    ______ ____
ROOT
ATOM      1  C   UNL     1      36.120 -37.482 -27.972  0.00  0.00    -0.009 A 
ATOM      2  C   UNL     1      37.441 -37.904 -27.834  0.00  0.00    -0.052 A 
ATOM      3  C   UNL     1      38.366 -37.621 -28.833  0.00  0.00    -0.045 A 
ATOM      4  C   UNL     1      37.959 -36.930 -29.968  0.00  0.00    +0.005 A 
ATOM      5  N   UNL     1      36.663 -36.572 -30.129  0.00  0.00    -0.348 N 
ATOM      6  C   UNL     1      35.755 -36.834 -29.156  0.00  0.00    +0.012 A 
ENDROOT
BRANCH   1   8
ATOM      7  C   UNL     1      34.132 -36.784 -26.642  0.00  0.00    -0.011 C 
ATOM      8  C   UNL     1      35.094 -37.672 -26.936  0.00  0.00    -0.049 C 
BRANCH   7  10
ATOM      9  O   UNL     1      31.889 -36.842 -26.028  0.00  0.00    -0.284 OA
ATOM     10  C   UNL     1      33.041 -37.054 -25.654  0.00  0.00    +0.221 C 
BRANCH  10  11
ATOM     11  C   UNL     1      33.367 -37.596 -24.350  0.00  0.00    +0.176 A 
ATOM     12  C   UNL     1      33.664 -36.956 -23.160  0.00  0.00    -0.005 A 
ATOM     13  C   UNL     1      33.852 -37.963 -22.179  0.00  0.00    +0.021 A 
ATOM     14  C   UNL     1      34.159 -37.988 -20.808  0.00  0.00    -0.051 A 
ATOM     15  C   UNL     1      34.253 -39.229 -20.161  0.00  0.00    -0.061 A 
ATOM     16  C   UNL     1      34.046 -40.422 -20.858  0.00  0.00    -0.058 A 
ATOM     17  C   UNL     1      33.738 -40.419 -22.222  0.00  0.00    -0.019 A 
ATOM     18  C   UNL     1      33.653 -39.170 -22.835  0.00  0.00    +0.136 A 
ATOM     19  O   UNL     1      33.360 -38.954 -24.146  0.00  0.00    -0.452 OA
ENDBRANCH  10  11
ENDBRANCH   7  10
ENDBRANCH   1   8
BRANCH   5  20
ATOM     20  C   UNL     1      36.222 -35.788 -31.317  0.00  0.00    +0.048 C 
BRANCH  20  21
ATOM     21  C   UNL     1      35.139 -34.775 -31.024  0.00  0.00    -0.028 A 
ATOM     22  C   UNL     1      35.408 -33.612 -30.283  0.00  0.00    -0.055 A 
ATOM     23  C   UNL     1      34.394 -32.682 -30.030  0.00  0.00    -0.031 A 
ATOM     24  C   UNL     1      33.106 -32.901 -30.534  0.00  0.00    +0.126 A 
ATOM     25  C   UNL     1      32.829 -34.046 -31.290  0.00  0.00    -0.031 A 
ATOM     26  C   UNL     1      33.844 -34.975 -31.534  0.00  0.00    -0.055 A 
BRANCH  24  27
ATOM     27  N   UNL     1      32.039 -31.927 -30.268  0.00  0.00    +0.056 N 
ATOM     28  O   UNL     1      32.374 -30.752 -30.066  0.00  0.00    -0.126 OA
ATOM     29  O   UNL     1      30.873 -32.344 -30.273  0.00  0.00    -0.126 OA
ENDBRANCH  24  27
ENDBRANCH  20  21
ENDBRANCH   5  20
TORSDOF 6
ENDMDL
MODEL 19
REMARK VINA RESULT:    -7.277     20.418     22.562
REMARK INTER + INTRA:         -10.576
REMARK INTER:                  -9.702
REMARK INTRA:                  -0.874
REMARK UNBOUND:                -0.747
REMARK  Name = cpd324.pdb
REMARK  6 active torsions:
REMARK  status: ('A' for Active; 'I' for Inactive)
REMARK    1  A    between atoms: C_2  and  C_3
REMARK    2  A    between atoms: C_2  and  C_21
REMARK    3  A    between atoms: C_4  and  C_5
REMARK    4  A    between atoms: N_9  and  C_10
REMARK    5  A    between atoms: C_10  and  C_11
REMARK    6  A    between atoms: C_14  and  N_15
REMARK                            x       y       z     vdW  Elec       q    Type
REMARK                         _______ _______ _______ _____ _____    ______ ____
ROOT
ATOM      1  C   UNL     1      41.127 -20.899 -37.380  0.00  0.00    -0.009 A 
ATOM      2  C   UNL     1      40.468 -21.963 -37.992  0.00  0.00    -0.052 A 
ATOM      3  C   UNL     1      40.818 -22.345 -39.283  0.00  0.00    -0.045 A 
ATOM      4  C   UNL     1      41.816 -21.650 -39.956  0.00  0.00    +0.005 A 
ATOM      5  N   UNL     1      42.416 -20.579 -39.384  0.00  0.00    -0.348 N 
ATOM      6  C   UNL     1      42.089 -20.206 -38.122  0.00  0.00    +0.012 A 
ENDROOT
BRANCH   1   8
ATOM      7  C   UNL     1      40.705 -21.312 -34.959  0.00  0.00    -0.011 C 
ATOM      8  C   UNL     1      40.875 -20.475 -35.995  0.00  0.00    -0.049 C 
BRANCH   7  10
ATOM      9  O   UNL     1      41.402 -21.233 -32.741  0.00  0.00    -0.284 OA
ATOM     10  C   UNL     1      40.555 -20.846 -33.546  0.00  0.00    +0.221 C 
BRANCH  10  11
ATOM     11  C   UNL     1      39.483 -19.934 -33.196  0.00  0.00    +0.176 A 
ATOM     12  C   UNL     1      39.527 -18.620 -32.768  0.00  0.00    -0.005 A 
ATOM     13  C   UNL     1      38.186 -18.183 -32.620  0.00  0.00    +0.021 A 
ATOM     14  C   UNL     1      37.552 -16.990 -32.234  0.00  0.00    -0.051 A 
ATOM     15  C   UNL     1      36.150 -16.945 -32.223  0.00  0.00    -0.061 A 
ATOM     16  C   UNL     1      35.390 -18.060 -32.586  0.00  0.00    -0.058 A 
ATOM     17  C   UNL     1      36.002 -19.256 -32.974  0.00  0.00    -0.019 A 
ATOM     18  C   UNL     1      37.395 -19.268 -32.974  0.00  0.00    +0.136 A 
ATOM     19  O   UNL     1      38.175 -20.328 -33.323  0.00  0.00    -0.452 OA
ENDBRANCH  10  11
ENDBRANCH   7  10
ENDBRANCH   1   8
BRANCH   5  20
ATOM     20  C   UNL     1      43.520 -19.855 -40.074  0.00  0.00    +0.048 C 
BRANCH  20  21
ATOM     21  C   UNL     1      44.699 -20.727 -40.439  0.00  0.00    -0.028 A 
ATOM     22  C   UNL     1      44.965 -21.076 -41.774  0.00  0.00    -0.055 A 
ATOM     23  C   UNL     1      46.067 -21.877 -42.092  0.00  0.00    -0.031 A 
ATOM     24  C   UNL     1      46.923 -22.320 -41.076  0.00  0.00    +0.126 A 
ATOM     25  C   UNL     1      46.681 -21.964 -39.744  0.00  0.00    -0.031 A 
ATOM     26  C   UNL     1      45.574 -21.170 -39.431  0.00  0.00    -0.055 A 
BRANCH  24  27
ATOM     27  N   UNL     1      48.079 -23.163 -41.407  0.00  0.00    +0.056 N 
ATOM     28  O   UNL     1      47.941 -23.993 -42.315  0.00  0.00    -0.126 OA
ATOM     29  O   UNL     1      49.120 -22.981 -40.762  0.00  0.00    -0.126 OA
ENDBRANCH  24  27
ENDBRANCH  20  21
ENDBRANCH   5  20
TORSDOF 6
ENDMDL
MODEL 20
REMARK VINA RESULT:    -6.851     19.061     23.111
REMARK INTER + INTRA:         -10.001
REMARK INTER:                  -9.120
REMARK INTRA:                  -0.881
REMARK UNBOUND:                -0.747
REMARK  Name = cpd324.pdb
REMARK  6 active torsions:
REMARK  status: ('A' for Active; 'I' for Inactive)
REMARK    1  A    between atoms: C_2  and  C_3
REMARK    2  A    between atoms: C_2  and  C_21
REMARK    3  A    between atoms: C_4  and  C_5
REMARK    4  A    between atoms: N_9  and  C_10
REMARK    5  A    between atoms: C_10  and  C_11
REMARK    6  A    between atoms: C_14  and  N_15
REMARK                            x       y       z     vdW  Elec       q    Type
REMARK                         _______ _______ _______ _____ _____    ______ ____
ROOT
ATOM      1  C   UNL     1      43.785 -18.099 -35.462  0.00  0.00    -0.009 A 
ATOM      2  C   UNL     1      44.981 -18.076 -34.747  0.00  0.00    -0.052 A 
ATOM      3  C   UNL     1      44.960 -18.183 -33.361  0.00  0.00    -0.045 A 
ATOM      4  C   UNL     1      43.743 -18.299 -32.700  0.00  0.00    +0.005 A 
ATOM      5  N   UNL     1      42.578 -18.262 -33.390  0.00  0.00    -0.348 N 
ATOM      6  C   UNL     1      42.588 -18.168 -34.743  0.00  0.00    +0.012 A 
ENDROOT
BRANCH   1   8
ATOM      7  C   UNL     1      44.515 -17.326 -37.716  0.00  0.00    -0.011 C 
ATOM      8  C   UNL     1      43.717 -18.066 -36.931  0.00  0.00    -0.049 C 
BRANCH   7  10
ATOM      9  O   UNL     1      44.144 -16.377 -39.808  0.00  0.00    -0.284 OA
ATOM     10  C   UNL     1      44.488 -17.397 -39.210  0.00  0.00    +0.221 C 
BRANCH  10  11
ATOM     11  C   UNL     1      44.911 -18.609 -39.883  0.00  0.00    +0.176 A 
ATOM     12  C   UNL     1      45.785 -19.602 -39.478  0.00  0.00    -0.005 A 
ATOM     13  C   UNL     1      45.798 -20.589 -40.497  0.00  0.00    +0.021 A 
ATOM     14  C   UNL     1      46.447 -21.819 -40.699  0.00  0.00    -0.051 A 
ATOM     15  C   UNL     1      46.181 -22.534 -41.876  0.00  0.00    -0.061 A 
ATOM     16  C   UNL     1      45.289 -22.044 -42.833  0.00  0.00    -0.058 A 
ATOM     17  C   UNL     1      44.632 -20.823 -42.649  0.00  0.00    -0.019 A 
ATOM     18  C   UNL     1      44.918 -20.136 -41.471  0.00  0.00    +0.136 A 
ATOM     19  O   UNL     1      44.381 -18.940 -41.105  0.00  0.00    -0.452 OA
ENDBRANCH  10  11
ENDBRANCH   7  10
ENDBRANCH   1   8
BRANCH   5  20
ATOM     20  C   UNL     1      41.269 -18.434 -32.701  0.00  0.00    +0.048 C 
BRANCH  20  21
ATOM     21  C   UNL     1      40.575 -19.741 -33.007  0.00  0.00    -0.028 A 
ATOM     22  C   UNL     1      39.313 -19.772 -33.623  0.00  0.00    -0.055 A 
ATOM     23  C   UNL     1      38.691 -20.993 -33.907  0.00  0.00    -0.031 A 
ATOM     24  C   UNL     1      39.339 -22.194 -33.592  0.00  0.00    +0.126 A 
ATOM     25  C   UNL     1      40.605 -22.178 -32.995  0.00  0.00    -0.031 A 
ATOM     26  C   UNL     1      41.218 -20.955 -32.708  0.00  0.00    -0.055 A 
BRANCH  24  27
ATOM     27  N   UNL     1      38.687 -23.478 -33.885  0.00  0.00    +0.056 N 
ATOM     28  O   UNL     1      39.009 -24.055 -34.932  0.00  0.00    -0.126 OA
ATOM     29  O   UNL     1      37.867 -23.902 -33.062  0.00  0.00    -0.126 OA
ENDBRANCH  24  27
ENDBRANCH  20  21
ENDBRANCH   5  20
TORSDOF 6
ENDMDL
