REMARK  Name = cpd77.pdb
REMARK  16 active torsions:
REMARK  status: ('A' for Active; 'I' for Inactive)
REMARK    1  A    between atoms: C_1  and  O_2
REMARK    2  A    between atoms: O_2  and  C_3
REMARK    3  A    between atoms: C_5  and  C_6
REMARK    4  A    between atoms: C_6  and  C_7
REMARK    5  A    between atoms: C_7  and  C_8
REMARK    6  A    between atoms: N_10  and  C_11
REMARK    7  A    between atoms: C_11  and  C_12
REMARK    8  A    between atoms: C_12  and  C_13
REMARK    9  A    between atoms: C_13  and  C_14
REMARK   10  A    between atoms: C_14  and  C_15
REMARK   11  A    between atoms: N_17  and  N_18
REMARK   12  A    between atoms: N_18  and  C_19
REMARK   13  A    between atoms: C_34  and  O_35
REMARK   14  A    between atoms: O_35  and  C_36
REMARK   15  A    between atoms: C_37  and  O_38
REMARK   16  A    between atoms: O_38  and  C_39
REMARK                            x       y       z     vdW  Elec       q    Type
REMARK                         _______ _______ _______ _____ _____    ______ ____
ROOT
ATOM      1  C   UNL A   1       6.398  -5.395   0.050  0.00  0.00    -0.043 C 
ENDROOT
BRANCH   1   2
ATOM      2  C   UNL A   1       4.970  -4.999  -0.323  0.00  0.00    -0.037 C 
BRANCH   2   3
ATOM      3  C   UNL A   1       4.782  -3.490  -0.166  0.00  0.00    +0.012 C 
BRANCH   3   6
ATOM      4  C   UNL A   1       2.474  -3.136   0.613  0.00  0.00    +0.213 C 
ATOM      5  O   UNL A   1       2.706  -3.565   1.739  0.00  0.00    -0.276 OA
ATOM      6  N   UNL A   1       3.415  -3.075  -0.389  0.00  0.00    -0.315 N 
ATOM      7  H   UNL A   1       3.152  -2.742  -1.277  0.00  0.00    +0.000 HD
BRANCH   4   8
ATOM      8  C   UNL A   1       1.132  -2.550   0.240  0.00  0.00    +0.028 C 
BRANCH   8   9
ATOM      9  C   UNL A   1       1.140  -1.051   0.536  0.00  0.00    -0.019 C 
BRANCH   9  12
ATOM     10  C   UNL A   1      -1.087   1.926  -0.283  0.00  0.00    +0.165 A 
ATOM     11  C   UNL A   1       0.015   1.133   0.051  0.00  0.00    -0.013 A 
ATOM     12  C   UNL A   1      -0.092  -0.269   0.132  0.00  0.00    -0.040 A 
ATOM     13  C   UNL A   1      -1.338  -0.869  -0.112  0.00  0.00    -0.013 A 
ATOM     14  C   UNL A   1      -2.453  -0.097  -0.453  0.00  0.00    +0.165 A 
ATOM     15  C   UNL A   1      -2.320   1.299  -0.519  0.00  0.00    +0.204 A 
BRANCH  10  17
ATOM     16  C   UNL A   1       0.175   3.951  -0.193  0.00  0.00    +0.079 C 
ATOM     17  O   UNL A   1      -1.069   3.293  -0.386  0.00  0.00    -0.491 OA
ENDBRANCH  10  17
BRANCH  14  18
ATOM     18  O   UNL A   1      -3.702  -0.599  -0.716  0.00  0.00    -0.491 OA
ATOM     19  C   UNL A   1      -3.850  -2.011  -0.760  0.00  0.00    +0.079 C 
ENDBRANCH  14  18
BRANCH  15  20
ATOM     20  O   UNL A   1      -3.405   2.065  -0.889  0.00  0.00    -0.488 OA
ATOM     21  C   UNL A   1      -4.137   2.453   0.272  0.00  0.00    +0.079 C 
ENDBRANCH  15  20
ENDBRANCH   9  12
ENDBRANCH   8   9
ENDBRANCH   4   8
ENDBRANCH   3   6
ENDBRANCH   2   3
ENDBRANCH   1   2
BRANCH   1  22
ATOM     22  C   UNL A   1       6.674  -6.883  -0.168  0.00  0.00    +0.025 C 
BRANCH  22  23
ATOM     23  C   UNL A   1       7.935  -7.338   0.545  0.00  0.00    +0.229 C 
ATOM     24  O   UNL A   1       7.955  -8.311   1.297  0.00  0.00    -0.274 OA
ATOM     25  N   UNL A   1       9.062  -6.595   0.242  0.00  0.00    -0.236 N 
ATOM     26  H   UNL A   1       9.126  -6.058  -0.580  0.00  0.00    +0.000 HD
BRANCH  25  27
ATOM     27  N   UNL A   1      10.118  -6.652   1.183  0.00  0.00    -0.264 N 
ATOM     28  H   UNL A   1      10.046  -7.050   2.080  0.00  0.00    +0.000 HD
BRANCH  27  29
ATOM     29  C   UNL A   1      11.300  -6.055   0.656  0.00  0.00    +0.058 A 
ATOM     30  C   UNL A   1      12.331  -6.850   0.118  0.00  0.00    -0.003 A 
ATOM     31  C   UNL A   1      13.432  -6.189  -0.430  0.00  0.00    +0.047 A 
ATOM     32  N   UNL A   1      13.519  -4.841  -0.523  0.00  0.00    -0.251 NA
ATOM     33  C   UNL A   1      12.530  -4.086  -0.027  0.00  0.00    +0.073 A 
ATOM     34  C   UNL A   1      12.640  -2.704  -0.127  0.00  0.00    -0.036 A 
ATOM     35  C   UNL A   1      11.662  -1.844   0.379  0.00  0.00    -0.060 A 
ATOM     36  C   UNL A   1      10.547  -2.372   1.013  0.00  0.00    -0.061 A 
ATOM     37  C   UNL A   1      10.416  -3.755   1.122  0.00  0.00    -0.051 A 
ATOM     38  C   UNL A   1      11.392  -4.635   0.589  0.00  0.00    +0.023 A 
ATOM     39  C   UNL A   1      14.596  -6.943  -1.022  0.00  0.00    -0.010 C 
ATOM     40  C   UNL A   1      14.690  -8.381  -0.528  0.00  0.00    -0.047 C 
ATOM     41  C   UNL A   1      13.337  -9.060  -0.673  0.00  0.00    -0.049 C 
ATOM     42  C   UNL A   1      12.286  -8.358   0.187  0.00  0.00    -0.024 C 
ENDBRANCH  27  29
ENDBRANCH  25  27
ENDBRANCH  22  23
ENDBRANCH   1  22
TORSDOF 13
