@<TRIPOS>MOLECULE
*****
 50 57 0 0 0
SMALL
GASTEIGER

@<TRIPOS>ATOM
      1 N           3.4641    2.0000    0.0000 N.pl3   1  UNL1       -0.1281
      2 C           2.5981    1.5000    0.0000 C.ar    1  UNL1        0.0893
      3 C           1.7321    2.0000    0.0000 C.ar    1  UNL1        0.0181
      4 C           0.8660    1.5000    0.0000 C.ar    1  UNL1        0.0018
      5 C           0.8660    0.5000    0.0000 C.ar    1  UNL1        0.0115
      6 C           1.7321   -0.0000    0.0000 C.ar    1  UNL1        0.0651
      7 C           2.5981    0.5000    0.0000 C.ar    1  UNL1        0.0240
      8 C           1.7321   -1.0000    0.0000 C.ar    1  UNL1        0.2259
      9 C           2.5981   -1.5000    0.0000 C.ar    1  UNL1        0.0635
     10 C           3.4641   -1.0000    0.0000 C.ar    1  UNL1        0.0059
     11 C           4.3301   -1.5000    0.0000 C.ar    1  UNL1        0.0002
     12 C           4.3301   -2.5000    0.0000 C.ar    1  UNL1        0.0000
     13 C           3.4641   -3.0000    0.0000 C.ar    1  UNL1        0.0002
     14 C           2.5981   -2.5000    0.0000 C.ar    1  UNL1        0.0059
     15 N           0.8660   -1.5000    0.0000 N.ar    1  UNL1       -0.1694
     16 C           0.8660   -2.5000    0.0000 C.3     1  UNL1        0.3220
     17 C           1.7321   -3.0000    0.0000 C.3     1  UNL1        0.0852
     18 C           1.7321   -4.0000    0.0000 C.3     1  UNL1        0.0073
     19 C           2.5981   -4.5000    0.0000 C.3     1  UNL1        0.0006
     20 C           2.5981   -5.5000    0.0000 C.3     1  UNL1        0.0063
     21 C           3.4641   -6.0000    0.0000 C.3     1  UNL1        0.0472
     22 C           3.4641   -7.0000    0.0000 C.ar    1  UNL1        0.0781
     23 C           2.6551   -7.5878    0.0000 C.ar    1  UNL1        0.1381
     24 N           2.9641   -8.5388    0.0000 N.ar    1  UNL1       -0.1275
     25 N           3.9641   -8.5388    0.0000 N.ar    1  UNL1       -0.0641
     26 N           4.2731   -7.5878    0.0000 N.ar    1  UNL1       -0.2339
     27 C           5.2242   -7.2788    0.0000 C.3     1  UNL1        0.1520
     28 C           5.4321   -6.3006    0.0000 C.3     1  UNL1        0.1385
     29 N           6.3831   -5.9916    0.0000 N.pl3   1  UNL1       -0.2357
     30 C           6.5911   -5.0135    0.0000 C.ar    1  UNL1        0.0639
     31 C           7.5421   -4.7044    0.0000 C.ar    1  UNL1        0.0062
     32 C           7.7500   -3.7263    0.0000 C.ar    1  UNL1        0.0562
     33 N           7.0069   -3.0572    0.0000 N.ar    1  UNL1       -0.2499
     34 C           6.0558   -3.3662    0.0000 C.ar    1  UNL1        0.0821
     35 C           5.3127   -2.6970    0.0000 C.ar    1  UNL1        0.0191
     36 C           4.3616   -3.0061    0.0000 C.ar    1  UNL1        0.0015
     37 C           4.1537   -3.9842    0.0000 C.ar    1  UNL1        0.0001
     38 C           4.8969   -4.6533    0.0000 C.ar    1  UNL1        0.0028
     39 C           5.8479   -4.3443    0.0000 C.ar    1  UNL1        0.0322
     40 C           8.7011   -3.4173    0.0000 C.3     1  UNL1        0.0455
     41 C           9.4442   -4.0864    0.0000 C.3     1  UNL1        0.0066
     42 C           9.2363   -5.0646    0.0000 C.3     1  UNL1        0.0052
     43 C           8.2853   -5.3736    0.0000 C.3     1  UNL1        0.0289
     44 C           0.0000   -1.0000    0.0000 C.ar    1  UNL1        0.2274
     45 C          -0.8660   -1.5000    0.0000 C.ar    1  UNL1        0.0872
     46 C          -1.7321   -1.0000    0.0000 C.ar    1  UNL1        0.0950
     47 N          -2.5981   -1.5000    0.0000 N.pl3   1  UNL1       -0.1279
     48 C          -1.7321   -0.0000    0.0000 C.ar    1  UNL1        0.0185
     49 C          -0.8660    0.5000    0.0000 C.ar    1  UNL1        0.0073
     50 C           0.0000   -0.0000    0.0000 C.ar    1  UNL1        0.0638
@<TRIPOS>UNITY_ATOM_ATTR
15 1
charge 1
@<TRIPOS>BOND
     1     1     2    1
     2     2     3   ar
     3     3     4   ar
     4     4     5   ar
     5     5     6   ar
     6     6     7   ar
     7     2     7   ar
     8     6     8   ar
     9     8     9    1
    10     9    10   ar
    11    10    11   ar
    12    11    12   ar
    13    12    13   ar
    14    13    14   ar
    15     9    14   ar
    16     8    15   ar
    17    15    16    1
    18    16    17    1
    19    17    18    1
    20    18    19    1
    21    19    20    1
    22    20    21    1
    23    21    22    1
    24    22    23   ar
    25    23    24   ar
    26    24    25   ar
    27    25    26   ar
    28    22    26   ar
    29    26    27    1
    30    27    28    1
    31    28    29    1
    32    29    30    1
    33    30    31   ar
    34    31    32   ar
    35    32    33   ar
    36    33    34   ar
    37    34    35   ar
    38    35    36   ar
    39    36    37   ar
    40    37    38   ar
    41    38    39   ar
    42    30    39   ar
    43    34    39   ar
    44    32    40    1
    45    40    41    1
    46    41    42    1
    47    42    43    1
    48    31    43    1
    49    15    44   ar
    50    44    45   ar
    51    45    46   ar
    52    46    47    1
    53    46    48   ar
    54    48    49   ar
    55    49    50   ar
    56     5    50   ar
    57    44    50   ar
