MODEL 1
REMARK VINA RESULT:    -7.081      0.000      0.000
REMARK INTER + INTRA:         -19.652
REMARK INTER:                 -12.462
REMARK INTRA:                  -7.191
REMARK UNBOUND:                -7.191
REMARK  Name = cpd163.pdb
REMARK  14 active torsions:
REMARK  status: ('A' for Active; 'I' for Inactive)
REMARK    1  A    between atoms: N_1  and  C_2
REMARK    2  A    between atoms: C_8  and  C_9
REMARK    3  A    between atoms: N_15  and  C_16
REMARK    4  A    between atoms: C_16  and  C_17
REMARK    5  A    between atoms: C_17  and  C_18
REMARK    6  A    between atoms: C_18  and  C_19
REMARK    7  A    between atoms: C_19  and  C_20
REMARK    8  A    between atoms: C_20  and  C_21
REMARK    9  A    between atoms: C_21  and  C_22
REMARK   10  A    between atoms: N_26  and  C_27
REMARK   11  A    between atoms: C_27  and  C_28
REMARK   12  A    between atoms: C_28  and  N_29
REMARK   13  A    between atoms: N_29  and  C_30
REMARK   14  A    between atoms: C_46  and  N_47
REMARK                            x       y       z     vdW  Elec       q    Type
REMARK                         _______ _______ _______ _____ _____    ______ ____
ROOT
ATOM      1  C   UNL A   1      30.751 -35.439 -28.839  0.00  0.00    -0.035 C 
ENDROOT
BRANCH   1   2
ATOM      2  C   UNL A   1      31.748 -34.572 -28.066  0.00  0.00    +0.024 C 
BRANCH   2  10
ATOM      3  C   UNL A   1      37.415 -36.806 -29.451  0.00  0.00    +0.025 A 
ATOM      4  C   UNL A   1      37.468 -37.745 -28.437  0.00  0.00    -0.040 A 
ATOM      5  C   UNL A   1      36.444 -37.820 -27.489  0.00  0.00    -0.052 A 
ATOM      6  C   UNL A   1      35.292 -36.992 -27.539  0.00  0.00    -0.007 A 
ATOM      7  C   UNL A   1      35.202 -36.084 -28.606  0.00  0.00    +0.009 A 
ATOM      8  C   UNL A   1      36.267 -36.022 -29.548  0.00  0.00    -0.031 A 
ATOM      9  C   UNL A   1      34.050 -35.270 -28.720  0.00  0.00    +0.057 A 
ATOM     10  N   UNL A   1      33.012 -35.361 -27.827  0.00  0.00    -0.339 N 
ATOM     11  C   UNL A   1      33.096 -36.203 -26.739  0.00  0.00    +0.052 A 
ATOM     12  C   UNL A   1      32.070 -36.278 -25.761  0.00  0.00    -0.017 A 
ATOM     13  C   UNL A   1      32.144 -37.107 -24.639  0.00  0.00    +0.027 A 
ATOM     14  C   UNL A   1      33.223 -37.964 -24.535  0.00  0.00    -0.040 A 
ATOM     15  C   UNL A   1      34.256 -37.915 -25.471  0.00  0.00    -0.050 A 
ATOM     16  C   UNL A   1      34.234 -37.040 -26.584  0.00  0.00    +0.006 A 
BRANCH   9  17
ATOM     17  C   UNL A   1      33.934 -34.259 -29.787  0.00  0.00    -0.001 A 
ATOM     18  C   UNL A   1      33.605 -34.623 -31.104  0.00  0.00    -0.053 A 
ATOM     19  C   UNL A   1      33.501 -33.652 -32.101  0.00  0.00    -0.061 A 
ATOM     20  C   UNL A   1      33.735 -32.311 -31.803  0.00  0.00    -0.062 A 
ATOM     21  C   UNL A   1      34.083 -31.937 -30.509  0.00  0.00    -0.061 A 
ATOM     22  C   UNL A   1      34.187 -32.903 -29.507  0.00  0.00    -0.053 A 
ENDBRANCH   9  17
BRANCH   3  23
ATOM     23  N   UNL A   1      38.354 -36.819 -30.479  0.00  0.00    -0.358 N 
ATOM     24  H   UNL A   1      39.225 -36.376 -30.357  0.00  0.00    +0.000 HD
ATOM     25  H   UNL A   1      38.146 -37.270 -31.329  0.00  0.00    +0.000 HD
ENDBRANCH   3  23
BRANCH  13  26
ATOM     26  N   UNL A   1      31.051 -37.243 -23.787  0.00  0.00    -0.358 N 
ATOM     27  H   UNL A   1      30.238 -36.708 -23.939  0.00  0.00    +0.000 HD
ATOM     28  H   UNL A   1      31.090 -37.875 -23.033  0.00  0.00    +0.000 HD
ENDBRANCH  13  26
ENDBRANCH   2  10
ENDBRANCH   1   2
BRANCH   1  29
ATOM     29  C   UNL A   1      29.627 -34.633 -29.496  0.00  0.00    -0.051 C 
BRANCH  29  30
ATOM     30  C   UNL A   1      30.157 -33.517 -30.399  0.00  0.00    -0.053 C 
BRANCH  30  31
ATOM     31  C   UNL A   1      29.962 -33.839 -31.881  0.00  0.00    -0.048 C 
BRANCH  31  32
ATOM     32  C   UNL A   1      29.344 -35.229 -32.064  0.00  0.00    -0.009 C 
BRANCH  32  33
ATOM     33  C   UNL A   1      30.311 -36.222 -32.607  0.00  0.00    +0.059 A 
ATOM     34  C   UNL A   1      31.301 -36.129 -33.565  0.00  0.00    +0.072 A 
ATOM     35  N   UNL A   1      31.921 -37.334 -33.713  0.00  0.00    -0.138 NA
ATOM     36  N   UNL A   1      31.363 -38.186 -32.869  0.00  0.00    -0.065 NA
ATOM     37  N   UNL A   1      30.410 -37.527 -32.191  0.00  0.00    -0.247 N 
BRANCH  37  38
ATOM     38  C   UNL A   1      29.662 -38.228 -31.170  0.00  0.00    +0.059 C 
BRANCH  38  39
ATOM     39  C   UNL A   1      30.547 -39.212 -30.410  0.00  0.00    +0.029 C 
BRANCH  39  40
ATOM     40  N   UNL A   1      31.585 -38.559 -29.588  0.00  0.00    -0.341 N 
ATOM     41  H   UNL A   1      31.616 -37.582 -29.473  0.00  0.00    +0.000 HD
BRANCH  40  42
ATOM     42  C   UNL A   1      32.535 -39.411 -28.974  0.00  0.00    +0.041 A 
ATOM     43  C   UNL A   1      32.234 -40.043 -27.746  0.00  0.00    -0.005 A 
ATOM     44  C   UNL A   1      33.173 -40.940 -27.228  0.00  0.00    +0.047 A 
ATOM     45  N   UNL A   1      34.327 -41.255 -27.865  0.00  0.00    -0.251 NA
ATOM     46  C   UNL A   1      34.639 -40.617 -28.997  0.00  0.00    +0.073 A 
ATOM     47  C   UNL A   1      35.871 -40.891 -29.578  0.00  0.00    -0.036 A 
ATOM     48  C   UNL A   1      36.292 -40.265 -30.752  0.00  0.00    -0.060 A 
ATOM     49  C   UNL A   1      35.467 -39.330 -31.358  0.00  0.00    -0.061 A 
ATOM     50  C   UNL A   1      34.228 -39.037 -30.788  0.00  0.00    -0.051 A 
ATOM     51  C   UNL A   1      33.780 -39.685 -29.609  0.00  0.00    +0.021 A 
ATOM     52  C   UNL A   1      32.947 -41.672 -25.929  0.00  0.00    -0.010 C 
ATOM     53  C   UNL A   1      31.930 -40.989 -25.023  0.00  0.00    -0.047 C 
ATOM     54  C   UNL A   1      30.674 -40.668 -25.817  0.00  0.00    -0.049 C 
ATOM     55  C   UNL A   1      30.993 -39.698 -26.952  0.00  0.00    -0.024 C 
ENDBRANCH  40  42
ENDBRANCH  39  40
ENDBRANCH  38  39
ENDBRANCH  37  38
ENDBRANCH  32  33
ENDBRANCH  31  32
ENDBRANCH  30  31
ENDBRANCH  29  30
ENDBRANCH   1  29
TORSDOF 14
ENDMDL
MODEL 2
REMARK VINA RESULT:    -6.935     17.994     23.319
REMARK INTER + INTRA:         -19.397
REMARK INTER:                 -13.193
REMARK INTRA:                  -6.204
REMARK UNBOUND:                -7.191
REMARK  Name = cpd163.pdb
REMARK  14 active torsions:
REMARK  status: ('A' for Active; 'I' for Inactive)
REMARK    1  A    between atoms: N_1  and  C_2
REMARK    2  A    between atoms: C_8  and  C_9
REMARK    3  A    between atoms: N_15  and  C_16
REMARK    4  A    between atoms: C_16  and  C_17
REMARK    5  A    between atoms: C_17  and  C_18
REMARK    6  A    between atoms: C_18  and  C_19
REMARK    7  A    between atoms: C_19  and  C_20
REMARK    8  A    between atoms: C_20  and  C_21
REMARK    9  A    between atoms: C_21  and  C_22
REMARK   10  A    between atoms: N_26  and  C_27
REMARK   11  A    between atoms: C_27  and  C_28
REMARK   12  A    between atoms: C_28  and  N_29
REMARK   13  A    between atoms: N_29  and  C_30
REMARK   14  A    between atoms: C_46  and  N_47
REMARK                            x       y       z     vdW  Elec       q    Type
REMARK                         _______ _______ _______ _____ _____    ______ ____
ROOT
ATOM      1  C   UNL A   1      41.600 -17.521 -36.896  0.00  0.00    -0.035 C 
ENDROOT
BRANCH   1   2
ATOM      2  C   UNL A   1      41.059 -17.889 -38.279  0.00  0.00    +0.024 C 
BRANCH   2  10
ATOM      3  C   UNL A   1      45.547 -21.375 -40.873  0.00  0.00    +0.025 A 
ATOM      4  C   UNL A   1      46.215 -20.337 -41.495  0.00  0.00    -0.040 A 
ATOM      5  C   UNL A   1      45.699 -19.039 -41.454  0.00  0.00    -0.052 A 
ATOM      6  C   UNL A   1      44.515 -18.708 -40.745  0.00  0.00    -0.007 A 
ATOM      7  C   UNL A   1      43.870 -19.746 -40.055  0.00  0.00    +0.009 A 
ATOM      8  C   UNL A   1      44.413 -21.060 -40.127  0.00  0.00    -0.031 A 
ATOM      9  C   UNL A   1      42.711 -19.453 -39.298  0.00  0.00    +0.057 A 
ATOM     10  N   UNL A   1      42.215 -18.177 -39.206  0.00  0.00    -0.339 N 
ATOM     11  C   UNL A   1      42.794 -17.147 -39.915  0.00  0.00    +0.052 A 
ATOM     12  C   UNL A   1      42.271 -15.827 -39.894  0.00  0.00    -0.017 A 
ATOM     13  C   UNL A   1      42.828 -14.774 -40.624  0.00  0.00    +0.027 A 
ATOM     14  C   UNL A   1      43.999 -15.012 -41.317  0.00  0.00    -0.040 A 
ATOM     15  C   UNL A   1      44.541 -16.297 -41.369  0.00  0.00    -0.050 A 
ATOM     16  C   UNL A   1      43.961 -17.396 -40.689  0.00  0.00    +0.006 A 
BRANCH   9  17
ATOM     17  C   UNL A   1      41.963 -20.519 -38.605  0.00  0.00    -0.001 A 
ATOM     18  C   UNL A   1      40.786 -21.056 -39.152  0.00  0.00    -0.053 A 
ATOM     19  C   UNL A   1      40.091 -22.064 -38.481  0.00  0.00    -0.061 A 
ATOM     20  C   UNL A   1      40.551 -22.539 -37.255  0.00  0.00    -0.062 A 
ATOM     21  C   UNL A   1      41.704 -22.003 -36.690  0.00  0.00    -0.061 A 
ATOM     22  C   UNL A   1      42.404 -20.995 -37.356  0.00  0.00    -0.053 A 
ENDBRANCH   9  17
BRANCH   3  23
ATOM     23  N   UNL A   1      46.124 -22.640 -40.786  0.00  0.00    -0.358 N 
ATOM     24  H   UNL A   1      46.122 -23.237 -41.569  0.00  0.00    +0.000 HD
ATOM     25  H   UNL A   1      46.533 -22.937 -39.942  0.00  0.00    +0.000 HD
ENDBRANCH   3  23
BRANCH  13  26
ATOM     26  N   UNL A   1      42.359 -13.473 -40.457  0.00  0.00    -0.358 N 
ATOM     27  H   UNL A   1      41.910 -13.215 -39.619  0.00  0.00    +0.000 HD
ATOM     28  H   UNL A   1      42.477 -12.812 -41.176  0.00  0.00    +0.000 HD
ENDBRANCH  13  26
ENDBRANCH   2  10
ENDBRANCH   1   2
BRANCH   1  29
ATOM     29  C   UNL A   1      40.708 -17.999 -35.748  0.00  0.00    -0.051 C 
BRANCH  29  30
ATOM     30  C   UNL A   1      39.324 -18.444 -36.227  0.00  0.00    -0.053 C 
BRANCH  30  31
ATOM     31  C   UNL A   1      38.932 -19.807 -35.656  0.00  0.00    -0.048 C 
BRANCH  31  32
ATOM     32  C   UNL A   1      39.078 -19.826 -34.130  0.00  0.00    -0.009 C 
BRANCH  32  33
ATOM     33  C   UNL A   1      39.650 -21.104 -33.623  0.00  0.00    +0.059 A 
ATOM     34  C   UNL A   1      39.171 -22.399 -33.611  0.00  0.00    +0.072 A 
ATOM     35  N   UNL A   1      40.078 -23.227 -33.022  0.00  0.00    -0.138 NA
ATOM     36  N   UNL A   1      41.126 -22.499 -32.670  0.00  0.00    -0.065 NA
ATOM     37  N   UNL A   1      40.886 -21.231 -33.040  0.00  0.00    -0.247 N 
BRANCH  37  38
ATOM     38  C   UNL A   1      41.899 -20.225 -32.799  0.00  0.00    +0.059 C 
BRANCH  38  39
ATOM     39  C   UNL A   1      43.013 -20.300 -33.840  0.00  0.00    +0.029 C 
BRANCH  39  40
ATOM     40  N   UNL A   1      44.214 -19.522 -33.476  0.00  0.00    -0.341 N 
ATOM     41  H   UNL A   1      44.742 -19.731 -32.671  0.00  0.00    +0.000 HD
BRANCH  40  42
ATOM     42  C   UNL A   1      44.568 -18.461 -34.344  0.00  0.00    +0.041 A 
ATOM     43  C   UNL A   1      45.259 -18.727 -35.547  0.00  0.00    -0.005 A 
ATOM     44  C   UNL A   1      45.507 -17.652 -36.407  0.00  0.00    +0.047 A 
ATOM     45  N   UNL A   1      45.085 -16.390 -36.157  0.00  0.00    -0.251 NA
ATOM     46  C   UNL A   1      44.481 -16.126 -34.994  0.00  0.00    +0.073 A 
ATOM     47  C   UNL A   1      44.142 -14.806 -34.723  0.00  0.00    -0.036 A 
ATOM     48  C   UNL A   1      43.523 -14.430 -33.531  0.00  0.00    -0.060 A 
ATOM     49  C   UNL A   1      43.242 -15.394 -32.575  0.00  0.00    -0.061 A 
ATOM     50  C   UNL A   1      43.578 -16.725 -32.826  0.00  0.00    -0.051 A 
ATOM     51  C   UNL A   1      44.186 -17.122 -34.043  0.00  0.00    +0.021 A 
ATOM     52  C   UNL A   1      46.231 -17.830 -37.718  0.00  0.00    -0.010 C 
ATOM     53  C   UNL A   1      47.087 -19.090 -37.768  0.00  0.00    -0.047 C 
ATOM     54  C   UNL A   1      46.263 -20.283 -37.313  0.00  0.00    -0.049 C 
ATOM     55  C   UNL A   1      45.811 -20.100 -35.866  0.00  0.00    -0.024 C 
ENDBRANCH  40  42
ENDBRANCH  39  40
ENDBRANCH  38  39
ENDBRANCH  37  38
ENDBRANCH  32  33
ENDBRANCH  31  32
ENDBRANCH  30  31
ENDBRANCH  29  30
ENDBRANCH   1  29
TORSDOF 14
ENDMDL
MODEL 3
REMARK VINA RESULT:    -6.724     18.247     23.454
REMARK INTER + INTRA:         -19.026
REMARK INTER:                 -13.143
REMARK INTRA:                  -5.883
REMARK UNBOUND:                -7.191
REMARK  Name = cpd163.pdb
REMARK  14 active torsions:
REMARK  status: ('A' for Active; 'I' for Inactive)
REMARK    1  A    between atoms: N_1  and  C_2
REMARK    2  A    between atoms: C_8  and  C_9
REMARK    3  A    between atoms: N_15  and  C_16
REMARK    4  A    between atoms: C_16  and  C_17
REMARK    5  A    between atoms: C_17  and  C_18
REMARK    6  A    between atoms: C_18  and  C_19
REMARK    7  A    between atoms: C_19  and  C_20
REMARK    8  A    between atoms: C_20  and  C_21
REMARK    9  A    between atoms: C_21  and  C_22
REMARK   10  A    between atoms: N_26  and  C_27
REMARK   11  A    between atoms: C_27  and  C_28
REMARK   12  A    between atoms: C_28  and  N_29
REMARK   13  A    between atoms: N_29  and  C_30
REMARK   14  A    between atoms: C_46  and  N_47
REMARK                            x       y       z     vdW  Elec       q    Type
REMARK                         _______ _______ _______ _____ _____    ______ ____
ROOT
ATOM      1  C   UNL A   1      42.190 -17.523 -37.012  0.00  0.00    -0.035 C 
ENDROOT
BRANCH   1   2
ATOM      2  C   UNL A   1      41.787 -17.772 -38.467  0.00  0.00    +0.024 C 
BRANCH   2  10
ATOM      3  C   UNL A   1      46.138 -21.650 -40.716  0.00  0.00    +0.025 A 
ATOM      4  C   UNL A   1      46.996 -20.671 -41.184  0.00  0.00    -0.040 A 
ATOM      5  C   UNL A   1      46.633 -19.324 -41.122  0.00  0.00    -0.052 A 
ATOM      6  C   UNL A   1      45.413 -18.885 -40.542  0.00  0.00    -0.007 A 
ATOM      7  C   UNL A   1      44.569 -19.870 -40.004  0.00  0.00    +0.009 A 
ATOM      8  C   UNL A   1      44.962 -21.235 -40.094  0.00  0.00    -0.031 A 
ATOM      9  C   UNL A   1      43.365 -19.475 -39.376  0.00  0.00    +0.057 A 
ATOM     10  N   UNL A   1      43.012 -18.153 -39.263  0.00  0.00    -0.339 N 
ATOM     11  C   UNL A   1      43.792 -17.169 -39.829  0.00  0.00    +0.052 A 
ATOM     12  C   UNL A   1      43.427 -15.797 -39.786  0.00  0.00    -0.017 A 
ATOM     13  C   UNL A   1      44.190 -14.786 -40.374  0.00  0.00    +0.027 A 
ATOM     14  C   UNL A   1      45.405 -15.131 -40.933  0.00  0.00    -0.040 A 
ATOM     15  C   UNL A   1      45.797 -16.468 -41.002  0.00  0.00    -0.050 A 
ATOM     16  C   UNL A   1      45.011 -17.520 -40.470  0.00  0.00    +0.006 A 
BRANCH   9  17
ATOM     17  C   UNL A   1      42.417 -20.473 -38.850  0.00  0.00    -0.001 A 
ATOM     18  C   UNL A   1      41.291 -20.872 -39.591  0.00  0.00    -0.053 A 
ATOM     19  C   UNL A   1      40.404 -21.819 -39.076  0.00  0.00    -0.061 A 
ATOM     20  C   UNL A   1      40.619 -22.369 -37.814  0.00  0.00    -0.062 A 
ATOM     21  C   UNL A   1      41.716 -21.969 -37.058  0.00  0.00    -0.061 A 
ATOM     22  C   UNL A   1      42.608 -21.024 -37.568  0.00  0.00    -0.053 A 
ENDBRANCH   9  17
BRANCH   3  23
ATOM     23  N   UNL A   1      46.549 -22.978 -40.641  0.00  0.00    -0.358 N 
ATOM     24  H   UNL A   1      45.915 -23.702 -40.848  0.00  0.00    +0.000 HD
ATOM     25  H   UNL A   1      47.474 -23.193 -40.382  0.00  0.00    +0.000 HD
ENDBRANCH   3  23
BRANCH  13  26
ATOM     26  N   UNL A   1      43.857 -13.447 -40.182  0.00  0.00    -0.358 N 
ATOM     27  H   UNL A   1      44.516 -12.827 -39.792  0.00  0.00    +0.000 HD
ATOM     28  H   UNL A   1      42.964 -13.120 -40.435  0.00  0.00    +0.000 HD
ENDBRANCH  13  26
ENDBRANCH   2  10
ENDBRANCH   1   2
BRANCH   1  29
ATOM     29  C   UNL A   1      41.116 -17.945 -36.004  0.00  0.00    -0.051 C 
BRANCH  29  30
ATOM     30  C   UNL A   1      39.888 -18.560 -36.679  0.00  0.00    -0.053 C 
BRANCH  30  31
ATOM     31  C   UNL A   1      39.230 -19.628 -35.805  0.00  0.00    -0.048 C 
BRANCH  31  32
ATOM     32  C   UNL A   1      39.485 -19.356 -34.319  0.00  0.00    -0.009 C 
BRANCH  32  33
ATOM     33  C   UNL A   1      39.778 -20.595 -33.549  0.00  0.00    +0.059 A 
ATOM     34  C   UNL A   1      38.961 -21.542 -32.964  0.00  0.00    +0.072 A 
ATOM     35  N   UNL A   1      39.718 -22.502 -32.360  0.00  0.00    -0.138 NA
ATOM     36  N   UNL A   1      40.992 -22.200 -32.555  0.00  0.00    -0.065 NA
ATOM     37  N   UNL A   1      41.038 -21.070 -33.279  0.00  0.00    -0.247 N 
BRANCH  37  38
ATOM     38  C   UNL A   1      42.326 -20.534 -33.664  0.00  0.00    +0.059 C 
BRANCH  38  39
ATOM     39  C   UNL A   1      42.694 -19.315 -32.823  0.00  0.00    +0.029 C 
BRANCH  39  40
ATOM     40  N   UNL A   1      44.129 -18.970 -32.879  0.00  0.00    -0.341 N 
ATOM     41  H   UNL A   1      44.771 -19.318 -32.219  0.00  0.00    +0.000 HD
BRANCH  40  42
ATOM     42  C   UNL A   1      44.532 -18.111 -33.930  0.00  0.00    +0.041 A 
ATOM     43  C   UNL A   1      44.224 -16.733 -33.880  0.00  0.00    -0.005 A 
ATOM     44  C   UNL A   1      44.721 -15.917 -34.901  0.00  0.00    +0.047 A 
ATOM     45  N   UNL A   1      45.508 -16.379 -35.901  0.00  0.00    -0.251 NA
ATOM     46  C   UNL A   1      45.754 -17.690 -35.981  0.00  0.00    +0.073 A 
ATOM     47  C   UNL A   1      46.486 -18.148 -37.070  0.00  0.00    -0.036 A 
ATOM     48  C   UNL A   1      46.781 -19.500 -37.248  0.00  0.00    -0.060 A 
ATOM     49  C   UNL A   1      46.325 -20.425 -36.322  0.00  0.00    -0.061 A 
ATOM     50  C   UNL A   1      45.585 -19.986 -35.224  0.00  0.00    -0.051 A 
ATOM     51  C   UNL A   1      45.299 -18.612 -35.020  0.00  0.00    +0.021 A 
ATOM     52  C   UNL A   1      44.455 -14.433 -34.938  0.00  0.00    -0.010 C 
ATOM     53  C   UNL A   1      43.233 -14.020 -34.127  0.00  0.00    -0.047 C 
ATOM     54  C   UNL A   1      43.312 -14.632 -32.738  0.00  0.00    -0.049 C 
ATOM     55  C   UNL A   1      43.304 -16.157 -32.825  0.00  0.00    -0.024 C 
ENDBRANCH  40  42
ENDBRANCH  39  40
ENDBRANCH  38  39
ENDBRANCH  37  38
ENDBRANCH  32  33
ENDBRANCH  31  32
ENDBRANCH  30  31
ENDBRANCH  29  30
ENDBRANCH   1  29
TORSDOF 14
ENDMDL
MODEL 4
REMARK VINA RESULT:    -6.665     18.323     23.692
REMARK INTER + INTRA:         -18.921
REMARK INTER:                 -14.668
REMARK INTRA:                  -4.253
REMARK UNBOUND:                -7.191
REMARK  Name = cpd163.pdb
REMARK  14 active torsions:
REMARK  status: ('A' for Active; 'I' for Inactive)
REMARK    1  A    between atoms: N_1  and  C_2
REMARK    2  A    between atoms: C_8  and  C_9
REMARK    3  A    between atoms: N_15  and  C_16
REMARK    4  A    between atoms: C_16  and  C_17
REMARK    5  A    between atoms: C_17  and  C_18
REMARK    6  A    between atoms: C_18  and  C_19
REMARK    7  A    between atoms: C_19  and  C_20
REMARK    8  A    between atoms: C_20  and  C_21
REMARK    9  A    between atoms: C_21  and  C_22
REMARK   10  A    between atoms: N_26  and  C_27
REMARK   11  A    between atoms: C_27  and  C_28
REMARK   12  A    between atoms: C_28  and  N_29
REMARK   13  A    between atoms: N_29  and  C_30
REMARK   14  A    between atoms: C_46  and  N_47
REMARK                            x       y       z     vdW  Elec       q    Type
REMARK                         _______ _______ _______ _____ _____    ______ ____
ROOT
ATOM      1  C   UNL A   1      45.880 -17.770 -40.401  0.00  0.00    -0.035 C 
ENDROOT
BRANCH   1   2
ATOM      2  C   UNL A   1      44.487 -18.090 -40.948  0.00  0.00    +0.024 C 
BRANCH   2  10
ATOM      3  C   UNL A   1      41.679 -21.509 -36.538  0.00  0.00    +0.025 A 
ATOM      4  C   UNL A   1      40.694 -20.589 -36.228  0.00  0.00    -0.040 A 
ATOM      5  C   UNL A   1      40.693 -19.326 -36.824  0.00  0.00    -0.052 A 
ATOM      6  C   UNL A   1      41.651 -18.938 -37.797  0.00  0.00    -0.007 A 
ATOM      7  C   UNL A   1      42.613 -19.892 -38.165  0.00  0.00    +0.009 A 
ATOM      8  C   UNL A   1      42.595 -21.166 -37.531  0.00  0.00    -0.031 A 
ATOM      9  C   UNL A   1      43.559 -19.564 -39.165  0.00  0.00    +0.057 A 
ATOM     10  N   UNL A   1      43.546 -18.345 -39.796  0.00  0.00    -0.339 N 
ATOM     11  C   UNL A   1      42.650 -17.369 -39.418  0.00  0.00    +0.052 A 
ATOM     12  C   UNL A   1      42.648 -16.077 -40.005  0.00  0.00    -0.017 A 
ATOM     13  C   UNL A   1      41.764 -15.066 -39.620  0.00  0.00    +0.027 A 
ATOM     14  C   UNL A   1      40.784 -15.376 -38.698  0.00  0.00    -0.040 A 
ATOM     15  C   UNL A   1      40.756 -16.632 -38.092  0.00  0.00    -0.050 A 
ATOM     16  C   UNL A   1      41.680 -17.655 -38.418  0.00  0.00    +0.006 A 
BRANCH   9  17
ATOM     17  C   UNL A   1      44.626 -20.508 -39.543  0.00  0.00    -0.001 A 
ATOM     18  C   UNL A   1      44.533 -21.283 -40.711  0.00  0.00    -0.053 A 
ATOM     19  C   UNL A   1      45.554 -22.173 -41.052  0.00  0.00    -0.061 A 
ATOM     20  C   UNL A   1      46.670 -22.310 -40.230  0.00  0.00    -0.062 A 
ATOM     21  C   UNL A   1      46.767 -21.566 -39.059  0.00  0.00    -0.061 A 
ATOM     22  C   UNL A   1      45.751 -20.674 -38.713  0.00  0.00    -0.053 A 
ENDBRANCH   9  17
BRANCH   3  23
ATOM     23  N   UNL A   1      41.607 -22.815 -36.061  0.00  0.00    -0.358 N 
ATOM     24  H   UNL A   1      41.009 -23.465 -36.496  0.00  0.00    +0.000 HD
ATOM     25  H   UNL A   1      42.154 -23.089 -35.290  0.00  0.00    +0.000 HD
ENDBRANCH   3  23
BRANCH  13  26
ATOM     26  N   UNL A   1      41.715 -13.864 -40.324  0.00  0.00    -0.358 N 
ATOM     27  H   UNL A   1      40.847 -13.438 -40.511  0.00  0.00    +0.000 HD
ATOM     28  H   UNL A   1      42.548 -13.441 -40.635  0.00  0.00    +0.000 HD
ENDBRANCH  13  26
ENDBRANCH   2  10
ENDBRANCH   1   2
BRANCH   1  29
ATOM     29  C   UNL A   1      46.169 -16.268 -40.319  0.00  0.00    -0.051 C 
BRANCH  29  30
ATOM     30  C   UNL A   1      46.744 -15.855 -38.963  0.00  0.00    -0.053 C 
BRANCH  30  31
ATOM     31  C   UNL A   1      47.102 -17.066 -38.101  0.00  0.00    -0.048 C 
BRANCH  31  32
ATOM     32  C   UNL A   1      46.918 -16.755 -36.612  0.00  0.00    -0.009 C 
BRANCH  32  33
ATOM     33  C   UNL A   1      47.357 -17.871 -35.731  0.00  0.00    +0.059 A 
ATOM     34  C   UNL A   1      48.570 -18.172 -35.143  0.00  0.00    +0.072 A 
ATOM     35  N   UNL A   1      48.465 -19.322 -34.420  0.00  0.00    -0.138 NA
ATOM     36  N   UNL A   1      47.219 -19.756 -34.521  0.00  0.00    -0.065 NA
ATOM     37  N   UNL A   1      46.544 -18.886 -35.289  0.00  0.00    -0.247 N 
BRANCH  37  38
ATOM     38  C   UNL A   1      45.135 -19.110 -35.533  0.00  0.00    +0.059 C 
BRANCH  38  39
ATOM     39  C   UNL A   1      44.563 -20.144 -34.568  0.00  0.00    +0.029 C 
BRANCH  39  40
ATOM     40  N   UNL A   1      44.381 -19.633 -33.195  0.00  0.00    -0.341 N 
ATOM     41  H   UNL A   1      45.043 -19.808 -32.486  0.00  0.00    +0.000 HD
BRANCH  40  42
ATOM     42  C   UNL A   1      43.208 -18.880 -32.948  0.00  0.00    +0.041 A 
ATOM     43  C   UNL A   1      43.263 -17.469 -32.914  0.00  0.00    -0.005 A 
ATOM     44  C   UNL A   1      42.061 -16.774 -32.753  0.00  0.00    +0.047 A 
ATOM     45  N   UNL A   1      40.856 -17.387 -32.669  0.00  0.00    -0.251 NA
ATOM     46  C   UNL A   1      40.807 -18.723 -32.644  0.00  0.00    +0.073 A 
ATOM     47  C   UNL A   1      39.568 -19.324 -32.462  0.00  0.00    -0.036 A 
ATOM     48  C   UNL A   1      39.418 -20.710 -32.408  0.00  0.00    -0.060 A 
ATOM     49  C   UNL A   1      40.536 -21.521 -32.527  0.00  0.00    -0.061 A 
ATOM     50  C   UNL A   1      41.790 -20.937 -32.707  0.00  0.00    -0.051 A 
ATOM     51  C   UNL A   1      41.951 -19.531 -32.787  0.00  0.00    +0.021 A 
ATOM     52  C   UNL A   1      42.009 -15.268 -32.711  0.00  0.00    -0.010 C 
ATOM     53  C   UNL A   1      43.341 -14.630 -32.336  0.00  0.00    -0.047 C 
ATOM     54  C   UNL A   1      44.447 -15.218 -33.196  0.00  0.00    -0.049 C 
ATOM     55  C   UNL A   1      44.577 -16.719 -32.946  0.00  0.00    -0.024 C 
ENDBRANCH  40  42
ENDBRANCH  39  40
ENDBRANCH  38  39
ENDBRANCH  37  38
ENDBRANCH  32  33
ENDBRANCH  31  32
ENDBRANCH  30  31
ENDBRANCH  29  30
ENDBRANCH   1  29
TORSDOF 14
ENDMDL
MODEL 5
REMARK VINA RESULT:    -6.642     19.311     24.328
REMARK INTER + INTRA:         -18.881
REMARK INTER:                 -12.311
REMARK INTRA:                  -6.570
REMARK UNBOUND:                -7.191
REMARK  Name = cpd163.pdb
REMARK  14 active torsions:
REMARK  status: ('A' for Active; 'I' for Inactive)
REMARK    1  A    between atoms: N_1  and  C_2
REMARK    2  A    between atoms: C_8  and  C_9
REMARK    3  A    between atoms: N_15  and  C_16
REMARK    4  A    between atoms: C_16  and  C_17
REMARK    5  A    between atoms: C_17  and  C_18
REMARK    6  A    between atoms: C_18  and  C_19
REMARK    7  A    between atoms: C_19  and  C_20
REMARK    8  A    between atoms: C_20  and  C_21
REMARK    9  A    between atoms: C_21  and  C_22
REMARK   10  A    between atoms: N_26  and  C_27
REMARK   11  A    between atoms: C_27  and  C_28
REMARK   12  A    between atoms: C_28  and  N_29
REMARK   13  A    between atoms: N_29  and  C_30
REMARK   14  A    between atoms: C_46  and  N_47
REMARK                            x       y       z     vdW  Elec       q    Type
REMARK                         _______ _______ _______ _____ _____    ______ ____
ROOT
ATOM      1  C   UNL A   1      45.981 -17.701 -39.139  0.00  0.00    -0.035 C 
ENDROOT
BRANCH   1   2
ATOM      2  C   UNL A   1      46.367 -19.111 -38.686  0.00  0.00    +0.024 C 
BRANCH   2  10
ATOM      3  C   UNL A   1      40.987 -22.227 -38.079  0.00  0.00    +0.025 A 
ATOM      4  C   UNL A   1      40.761 -21.897 -36.755  0.00  0.00    -0.040 A 
ATOM      5  C   UNL A   1      41.714 -21.172 -36.035  0.00  0.00    -0.052 A 
ATOM      6  C   UNL A   1      42.918 -20.698 -36.619  0.00  0.00    -0.007 A 
ATOM      7  C   UNL A   1      43.121 -20.972 -37.981  0.00  0.00    +0.009 A 
ATOM      8  C   UNL A   1      42.138 -21.724 -38.684  0.00  0.00    -0.031 A 
ATOM      9  C   UNL A   1      44.286 -20.481 -38.615  0.00  0.00    +0.057 A 
ATOM     10  N   UNL A   1      45.211 -19.727 -37.937  0.00  0.00    -0.339 N 
ATOM     11  C   UNL A   1      45.067 -19.488 -36.588  0.00  0.00    +0.052 A 
ATOM     12  C   UNL A   1      46.035 -18.766 -35.841  0.00  0.00    -0.017 A 
ATOM     13  C   UNL A   1      45.921 -18.533 -34.468  0.00  0.00    +0.027 A 
ATOM     14  C   UNL A   1      44.762 -18.939 -33.834  0.00  0.00    -0.040 A 
ATOM     15  C   UNL A   1      43.791 -19.658 -34.531  0.00  0.00    -0.050 A 
ATOM     16  C   UNL A   1      43.912 -19.962 -35.909  0.00  0.00    +0.006 A 
BRANCH   9  17
ATOM     17  C   UNL A   1      44.574 -20.793 -40.027  0.00  0.00    -0.001 A 
ATOM     18  C   UNL A   1      45.379 -21.889 -40.382  0.00  0.00    -0.053 A 
ATOM     19  C   UNL A   1      45.642 -22.167 -41.724  0.00  0.00    -0.061 A 
ATOM     20  C   UNL A   1      45.118 -21.354 -42.726  0.00  0.00    -0.062 A 
ATOM     21  C   UNL A   1      44.336 -20.253 -42.391  0.00  0.00    -0.061 A 
ATOM     22  C   UNL A   1      44.069 -19.969 -41.051  0.00  0.00    -0.053 A 
ENDBRANCH   9  17
BRANCH   3  23
ATOM     23  N   UNL A   1      39.986 -22.820 -38.844  0.00  0.00    -0.358 N 
ATOM     24  H   UNL A   1      39.041 -22.707 -38.592  0.00  0.00    +0.000 HD
ATOM     25  H   UNL A   1      40.223 -23.353 -39.636  0.00  0.00    +0.000 HD
ENDBRANCH   3  23
BRANCH  13  26
ATOM     26  N   UNL A   1      46.828 -17.702 -33.815  0.00  0.00    -0.358 N 
ATOM     27  H   UNL A   1      46.975 -17.799 -32.846  0.00  0.00    +0.000 HD
ATOM     28  H   UNL A   1      47.322 -17.017 -34.321  0.00  0.00    +0.000 HD
ENDBRANCH  13  26
ENDBRANCH   2  10
ENDBRANCH   1   2
BRANCH   1  29
ATOM     29  C   UNL A   1      47.182 -16.848 -39.556  0.00  0.00    -0.051 C 
BRANCH  29  30
ATOM     30  C   UNL A   1      47.397 -15.646 -38.633  0.00  0.00    -0.053 C 
BRANCH  30  31
ATOM     31  C   UNL A   1      46.860 -14.352 -39.246  0.00  0.00    -0.048 C 
BRANCH  31  32
ATOM     32  C   UNL A   1      46.395 -14.578 -40.688  0.00  0.00    -0.009 C 
BRANCH  32  33
ATOM     33  C   UNL A   1      45.143 -13.842 -41.012  0.00  0.00    +0.059 A 
ATOM     34  C   UNL A   1      44.863 -12.497 -41.150  0.00  0.00    +0.072 A 
ATOM     35  N   UNL A   1      43.545 -12.323 -41.452  0.00  0.00    -0.138 NA
ATOM     36  N   UNL A   1      42.982 -13.518 -41.523  0.00  0.00    -0.065 NA
ATOM     37  N   UNL A   1      43.933 -14.434 -41.277  0.00  0.00    -0.247 N 
BRANCH  37  38
ATOM     38  C   UNL A   1      43.586 -15.838 -41.327  0.00  0.00    +0.059 C 
BRANCH  38  39
ATOM     39  C   UNL A   1      42.429 -16.158 -40.384  0.00  0.00    +0.029 C 
BRANCH  39  40
ATOM     40  N   UNL A   1      42.697 -17.299 -39.486  0.00  0.00    -0.341 N 
ATOM     41  H   UNL A   1      43.259 -18.057 -39.767  0.00  0.00    +0.000 HD
BRANCH  40  42
ATOM     42  C   UNL A   1      42.103 -17.248 -38.202  0.00  0.00    +0.041 A 
ATOM     43  C   UNL A   1      40.864 -17.884 -37.966  0.00  0.00    -0.005 A 
ATOM     44  C   UNL A   1      40.366 -17.875 -36.660  0.00  0.00    +0.047 A 
ATOM     45  N   UNL A   1      41.030 -17.323 -35.617  0.00  0.00    -0.251 NA
ATOM     46  C   UNL A   1      42.175 -16.672 -35.848  0.00  0.00    +0.073 A 
ATOM     47  C   UNL A   1      42.787 -16.035 -34.775  0.00  0.00    -0.036 A 
ATOM     48  C   UNL A   1      43.976 -15.319 -34.920  0.00  0.00    -0.060 A 
ATOM     49  C   UNL A   1      44.566 -15.224 -36.170  0.00  0.00    -0.061 A 
ATOM     50  C   UNL A   1      43.965 -15.853 -37.261  0.00  0.00    -0.051 A 
ATOM     51  C   UNL A   1      42.770 -16.603 -37.122  0.00  0.00    +0.021 A 
ATOM     52  C   UNL A   1      39.056 -18.531 -36.300  0.00  0.00    -0.010 C 
ATOM     53  C   UNL A   1      38.127 -18.716 -37.493  0.00  0.00    -0.047 C 
ATOM     54  C   UNL A   1      38.889 -19.368 -38.636  0.00  0.00    -0.049 C 
ATOM     55  C   UNL A   1      40.039 -18.471 -39.091  0.00  0.00    -0.024 C 
ENDBRANCH  40  42
ENDBRANCH  39  40
ENDBRANCH  38  39
ENDBRANCH  37  38
ENDBRANCH  32  33
ENDBRANCH  31  32
ENDBRANCH  30  31
ENDBRANCH  29  30
ENDBRANCH   1  29
TORSDOF 14
ENDMDL
MODEL 6
REMARK VINA RESULT:    -6.636     19.296     24.357
REMARK INTER + INTRA:         -18.870
REMARK INTER:                 -12.110
REMARK INTRA:                  -6.760
REMARK UNBOUND:                -7.191
REMARK  Name = cpd163.pdb
REMARK  14 active torsions:
REMARK  status: ('A' for Active; 'I' for Inactive)
REMARK    1  A    between atoms: N_1  and  C_2
REMARK    2  A    between atoms: C_8  and  C_9
REMARK    3  A    between atoms: N_15  and  C_16
REMARK    4  A    between atoms: C_16  and  C_17
REMARK    5  A    between atoms: C_17  and  C_18
REMARK    6  A    between atoms: C_18  and  C_19
REMARK    7  A    between atoms: C_19  and  C_20
REMARK    8  A    between atoms: C_20  and  C_21
REMARK    9  A    between atoms: C_21  and  C_22
REMARK   10  A    between atoms: N_26  and  C_27
REMARK   11  A    between atoms: C_27  and  C_28
REMARK   12  A    between atoms: C_28  and  N_29
REMARK   13  A    between atoms: N_29  and  C_30
REMARK   14  A    between atoms: C_46  and  N_47
REMARK                            x       y       z     vdW  Elec       q    Type
REMARK                         _______ _______ _______ _____ _____    ______ ____
ROOT
ATOM      1  C   UNL A   1      43.360 -20.831 -38.378  0.00  0.00    -0.035 C 
ENDROOT
BRANCH   1   2
ATOM      2  C   UNL A   1      44.859 -20.919 -38.081  0.00  0.00    +0.024 C 
BRANCH   2  10
ATOM      3  C   UNL A   1      47.682 -15.930 -40.563  0.00  0.00    +0.025 A 
ATOM      4  C   UNL A   1      47.951 -15.289 -39.368  0.00  0.00    -0.040 A 
ATOM      5  C   UNL A   1      47.484 -15.816 -38.162  0.00  0.00    -0.052 A 
ATOM      6  C   UNL A   1      46.765 -17.038 -38.088  0.00  0.00    -0.007 A 
ATOM      7  C   UNL A   1      46.548 -17.728 -39.292  0.00  0.00    +0.009 A 
ATOM      8  C   UNL A   1      47.026 -17.158 -40.506  0.00  0.00    -0.031 A 
ATOM      9  C   UNL A   1      45.875 -18.972 -39.260  0.00  0.00    +0.057 A 
ATOM     10  N   UNL A   1      45.449 -19.530 -38.081  0.00  0.00    -0.339 N 
ATOM     11  C   UNL A   1      45.598 -18.852 -36.891  0.00  0.00    +0.052 A 
ATOM     12  C   UNL A   1      45.115 -19.370 -35.660  0.00  0.00    -0.017 A 
ATOM     13  C   UNL A   1      45.235 -18.689 -34.446  0.00  0.00    +0.027 A 
ATOM     14  C   UNL A   1      45.947 -17.506 -34.433  0.00  0.00    -0.040 A 
ATOM     15  C   UNL A   1      46.432 -16.960 -35.621  0.00  0.00    -0.050 A 
ATOM     16  C   UNL A   1      46.269 -17.599 -36.875  0.00  0.00    +0.006 A 
BRANCH   9  17
ATOM     17  C   UNL A   1      45.569 -19.705 -40.502  0.00  0.00    -0.001 A 
ATOM     18  C   UNL A   1      46.350 -20.799 -40.914  0.00  0.00    -0.053 A 
ATOM     19  C   UNL A   1      46.045 -21.480 -42.094  0.00  0.00    -0.061 A 
ATOM     20  C   UNL A   1      44.971 -21.074 -42.883  0.00  0.00    -0.062 A 
ATOM     21  C   UNL A   1      44.201 -19.979 -42.499  0.00  0.00    -0.061 A 
ATOM     22  C   UNL A   1      44.499 -19.295 -41.321  0.00  0.00    -0.053 A 
ENDBRANCH   9  17
BRANCH   3  23
ATOM     23  N   UNL A   1      48.264 -15.493 -41.751  0.00  0.00    -0.358 N 
ATOM     24  H   UNL A   1      49.231 -15.605 -41.895  0.00  0.00    +0.000 HD
ATOM     25  H   UNL A   1      47.708 -15.072 -42.445  0.00  0.00    +0.000 HD
ENDBRANCH   3  23
BRANCH  13  26
ATOM     26  N   UNL A   1      44.867 -19.304 -33.252  0.00  0.00    -0.358 N 
ATOM     27  H   UNL A   1      43.918 -19.490 -33.065  0.00  0.00    +0.000 HD
ATOM     28  H   UNL A   1      45.555 -19.554 -32.594  0.00  0.00    +0.000 HD
ENDBRANCH  13  26
ENDBRANCH   2  10
ENDBRANCH   1   2
BRANCH   1  29
ATOM     29  C   UNL A   1      42.485 -20.985 -37.131  0.00  0.00    -0.051 C 
BRANCH  29  30
ATOM     30  C   UNL A   1      41.008 -21.192 -37.473  0.00  0.00    -0.053 C 
BRANCH  30  31
ATOM     31  C   UNL A   1      40.284 -22.014 -36.407  0.00  0.00    -0.048 C 
BRANCH  31  32
ATOM     32  C   UNL A   1      39.574 -21.103 -35.399  0.00  0.00    -0.009 C 
BRANCH  32  33
ATOM     33  C   UNL A   1      40.500 -20.542 -34.379  0.00  0.00    +0.059 A 
ATOM     34  C   UNL A   1      41.429 -21.127 -33.542  0.00  0.00    +0.072 A 
ATOM     35  N   UNL A   1      42.033 -20.176 -32.776  0.00  0.00    -0.138 NA
ATOM     36  N   UNL A   1      41.524 -19.000 -33.110  0.00  0.00    -0.065 NA
ATOM     37  N   UNL A   1      40.618 -19.207 -34.079  0.00  0.00    -0.247 N 
BRANCH  37  38
ATOM     38  C   UNL A   1      39.931 -18.069 -34.652  0.00  0.00    +0.059 C 
BRANCH  38  39
ATOM     39  C   UNL A   1      40.567 -17.646 -35.973  0.00  0.00    +0.029 C 
BRANCH  39  40
ATOM     40  N   UNL A   1      42.043 -17.677 -35.955  0.00  0.00    -0.341 N 
ATOM     41  H   UNL A   1      42.540 -18.487 -35.697  0.00  0.00    +0.000 HD
BRANCH  40  42
ATOM     42  C   UNL A   1      42.707 -16.482 -36.327  0.00  0.00    +0.041 A 
ATOM     43  C   UNL A   1      43.120 -15.562 -35.338  0.00  0.00    -0.005 A 
ATOM     44  C   UNL A   1      43.846 -14.442 -35.754  0.00  0.00    +0.047 A 
ATOM     45  N   UNL A   1      44.199 -14.224 -37.044  0.00  0.00    -0.251 NA
ATOM     46  C   UNL A   1      43.760 -15.063 -37.987  0.00  0.00    +0.073 A 
ATOM     47  C   UNL A   1      44.058 -14.765 -39.311  0.00  0.00    -0.036 A 
ATOM     48  C   UNL A   1      43.631 -15.572 -40.366  0.00  0.00    -0.060 A 
ATOM     49  C   UNL A   1      42.878 -16.703 -40.097  0.00  0.00    -0.061 A 
ATOM     50  C   UNL A   1      42.565 -17.019 -38.775  0.00  0.00    -0.051 A 
ATOM     51  C   UNL A   1      43.012 -16.219 -37.693  0.00  0.00    +0.021 A 
ATOM     52  C   UNL A   1      44.341 -13.403 -34.779  0.00  0.00    -0.010 C 
ATOM     53  C   UNL A   1      43.569 -13.395 -33.465  0.00  0.00    -0.047 C 
ATOM     54  C   UNL A   1      43.479 -14.811 -32.919  0.00  0.00    -0.049 C 
ATOM     55  C   UNL A   1      42.715 -15.711 -33.888  0.00  0.00    -0.024 C 
ENDBRANCH  40  42
ENDBRANCH  39  40
ENDBRANCH  38  39
ENDBRANCH  37  38
ENDBRANCH  32  33
ENDBRANCH  31  32
ENDBRANCH  30  31
ENDBRANCH  29  30
ENDBRANCH   1  29
TORSDOF 14
ENDMDL
MODEL 7
REMARK VINA RESULT:    -6.606     18.245     23.499
REMARK INTER + INTRA:         -18.818
REMARK INTER:                 -13.419
REMARK INTRA:                  -5.398
REMARK UNBOUND:                -7.191
REMARK  Name = cpd163.pdb
REMARK  14 active torsions:
REMARK  status: ('A' for Active; 'I' for Inactive)
REMARK    1  A    between atoms: N_1  and  C_2
REMARK    2  A    between atoms: C_8  and  C_9
REMARK    3  A    between atoms: N_15  and  C_16
REMARK    4  A    between atoms: C_16  and  C_17
REMARK    5  A    between atoms: C_17  and  C_18
REMARK    6  A    between atoms: C_18  and  C_19
REMARK    7  A    between atoms: C_19  and  C_20
REMARK    8  A    between atoms: C_20  and  C_21
REMARK    9  A    between atoms: C_21  and  C_22
REMARK   10  A    between atoms: N_26  and  C_27
REMARK   11  A    between atoms: C_27  and  C_28
REMARK   12  A    between atoms: C_28  and  N_29
REMARK   13  A    between atoms: N_29  and  C_30
REMARK   14  A    between atoms: C_46  and  N_47
REMARK                            x       y       z     vdW  Elec       q    Type
REMARK                         _______ _______ _______ _____ _____    ______ ____
ROOT
ATOM      1  C   UNL A   1      42.115 -21.478 -40.117  0.00  0.00    -0.035 C 
ENDROOT
BRANCH   1   2
ATOM      2  C   UNL A   1      43.055 -21.161 -38.952  0.00  0.00    +0.024 C 
BRANCH   2  10
ATOM      3  C   UNL A   1      45.091 -15.358 -40.046  0.00  0.00    +0.025 A 
ATOM      4  C   UNL A   1      46.213 -15.717 -40.770  0.00  0.00    -0.040 A 
ATOM      5  C   UNL A   1      46.558 -17.062 -40.918  0.00  0.00    -0.052 A 
ATOM      6  C   UNL A   1      45.768 -18.118 -40.390  0.00  0.00    -0.007 A 
ATOM      7  C   UNL A   1      44.591 -17.761 -39.713  0.00  0.00    +0.009 A 
ATOM      8  C   UNL A   1      44.274 -16.381 -39.568  0.00  0.00    -0.031 A 
ATOM      9  C   UNL A   1      43.751 -18.782 -39.210  0.00  0.00    +0.057 A 
ATOM     10  N   UNL A   1      44.048 -20.110 -39.386  0.00  0.00    -0.339 N 
ATOM     11  C   UNL A   1      45.222 -20.491 -39.997  0.00  0.00    +0.052 A 
ATOM     12  C   UNL A   1      45.591 -21.854 -40.141  0.00  0.00    -0.017 A 
ATOM     13  C   UNL A   1      46.787 -22.262 -40.736  0.00  0.00    +0.027 A 
ATOM     14  C   UNL A   1      47.596 -21.293 -41.299  0.00  0.00    -0.040 A 
ATOM     15  C   UNL A   1      47.272 -19.942 -41.173  0.00  0.00    -0.050 A 
ATOM     16  C   UNL A   1      46.096 -19.499 -40.519  0.00  0.00    +0.006 A 
BRANCH   9  17
ATOM     17  C   UNL A   1      42.536 -18.458 -38.440  0.00  0.00    -0.001 A 
ATOM     18  C   UNL A   1      41.329 -18.135 -39.083  0.00  0.00    -0.053 A 
ATOM     19  C   UNL A   1      40.190 -17.830 -38.337  0.00  0.00    -0.061 A 
ATOM     20  C   UNL A   1      40.241 -17.831 -36.945  0.00  0.00    -0.062 A 
ATOM     21  C   UNL A   1      41.433 -18.128 -36.292  0.00  0.00    -0.061 A 
ATOM     22  C   UNL A   1      42.576 -18.434 -37.032  0.00  0.00    -0.053 A 
ENDBRANCH   9  17
BRANCH   3  23
ATOM     23  N   UNL A   1      44.659 -14.034 -40.015  0.00  0.00    -0.358 N 
ATOM     24  H   UNL A   1      44.151 -13.663 -40.773  0.00  0.00    +0.000 HD
ATOM     25  H   UNL A   1      44.863 -13.469 -39.235  0.00  0.00    +0.000 HD
ENDBRANCH   3  23
BRANCH  13  26
ATOM     26  N   UNL A   1      47.034 -23.612 -40.974  0.00  0.00    -0.358 N 
ATOM     27  H   UNL A   1      47.952 -23.964 -40.909  0.00  0.00    +0.000 HD
ATOM     28  H   UNL A   1      46.292 -24.215 -41.208  0.00  0.00    +0.000 HD
ENDBRANCH  13  26
ENDBRANCH   2  10
ENDBRANCH   1   2
BRANCH   1  29
ATOM     29  C   UNL A   1      40.642 -21.558 -39.705  0.00  0.00    -0.051 C 
BRANCH  29  30
ATOM     30  C   UNL A   1      40.418 -22.487 -38.510  0.00  0.00    -0.053 C 
BRANCH  30  31
ATOM     31  C   UNL A   1      39.943 -21.724 -37.273  0.00  0.00    -0.048 C 
BRANCH  31  32
ATOM     32  C   UNL A   1      40.961 -21.838 -36.133  0.00  0.00    -0.009 C 
BRANCH  32  33
ATOM     33  C   UNL A   1      40.319 -21.888 -34.791  0.00  0.00    +0.059 A 
ATOM     34  C   UNL A   1      39.046 -22.230 -34.380  0.00  0.00    +0.072 A 
ATOM     35  N   UNL A   1      38.945 -22.111 -33.026  0.00  0.00    -0.138 NA
ATOM     36  N   UNL A   1      40.120 -21.716 -32.563  0.00  0.00    -0.065 NA
ATOM     37  N   UNL A   1      40.953 -21.595 -33.608  0.00  0.00    -0.247 N 
BRANCH  37  38
ATOM     38  C   UNL A   1      42.326 -21.205 -33.372  0.00  0.00    +0.059 C 
BRANCH  38  39
ATOM     39  C   UNL A   1      42.467 -19.687 -33.299  0.00  0.00    +0.029 C 
BRANCH  39  40
ATOM     40  N   UNL A   1      43.833 -19.235 -32.968  0.00  0.00    -0.341 N 
ATOM     41  H   UNL A   1      44.326 -19.601 -32.198  0.00  0.00    +0.000 HD
BRANCH  40  42
ATOM     42  C   UNL A   1      44.395 -18.248 -33.813  0.00  0.00    +0.041 A 
ATOM     43  C   UNL A   1      45.248 -18.624 -34.875  0.00  0.00    -0.005 A 
ATOM     44  C   UNL A   1      45.706 -17.617 -35.730  0.00  0.00    +0.047 A 
ATOM     45  N   UNL A   1      45.341 -16.319 -35.608  0.00  0.00    -0.251 NA
ATOM     46  C   UNL A   1      44.581 -15.953 -34.571  0.00  0.00    +0.073 A 
ATOM     47  C   UNL A   1      44.300 -14.600 -34.418  0.00  0.00    -0.036 A 
ATOM     48  C   UNL A   1      43.528 -14.120 -33.360  0.00  0.00    -0.060 A 
ATOM     49  C   UNL A   1      43.030 -15.009 -32.421  0.00  0.00    -0.061 A 
ATOM     50  C   UNL A   1      43.305 -16.371 -32.554  0.00  0.00    -0.051 A 
ATOM     51  C   UNL A   1      44.068 -16.873 -33.638  0.00  0.00    +0.021 A 
ATOM     52  C   UNL A   1      46.614 -17.913 -36.897  0.00  0.00    -0.010 C 
ATOM     53  C   UNL A   1      47.374 -19.226 -36.752  0.00  0.00    -0.047 C 
ATOM     54  C   UNL A   1      46.404 -20.337 -36.384  0.00  0.00    -0.049 C 
ATOM     55  C   UNL A   1      45.742 -20.045 -35.039  0.00  0.00    -0.024 C 
ENDBRANCH  40  42
ENDBRANCH  39  40
ENDBRANCH  38  39
ENDBRANCH  37  38
ENDBRANCH  32  33
ENDBRANCH  31  32
ENDBRANCH  30  31
ENDBRANCH  29  30
ENDBRANCH   1  29
TORSDOF 14
ENDMDL
MODEL 8
REMARK VINA RESULT:    -6.519      1.629      2.763
REMARK INTER + INTRA:         -18.664
REMARK INTER:                 -11.450
REMARK INTRA:                  -7.214
REMARK UNBOUND:                -7.191
REMARK  Name = cpd163.pdb
REMARK  14 active torsions:
REMARK  status: ('A' for Active; 'I' for Inactive)
REMARK    1  A    between atoms: N_1  and  C_2
REMARK    2  A    between atoms: C_8  and  C_9
REMARK    3  A    between atoms: N_15  and  C_16
REMARK    4  A    between atoms: C_16  and  C_17
REMARK    5  A    between atoms: C_17  and  C_18
REMARK    6  A    between atoms: C_18  and  C_19
REMARK    7  A    between atoms: C_19  and  C_20
REMARK    8  A    between atoms: C_20  and  C_21
REMARK    9  A    between atoms: C_21  and  C_22
REMARK   10  A    between atoms: N_26  and  C_27
REMARK   11  A    between atoms: C_27  and  C_28
REMARK   12  A    between atoms: C_28  and  N_29
REMARK   13  A    between atoms: N_29  and  C_30
REMARK   14  A    between atoms: C_46  and  N_47
REMARK                            x       y       z     vdW  Elec       q    Type
REMARK                         _______ _______ _______ _____ _____    ______ ____
ROOT
ATOM      1  C   UNL A   1      30.695 -35.452 -28.793  0.00  0.00    -0.035 C 
ENDROOT
BRANCH   1   2
ATOM      2  C   UNL A   1      31.699 -34.583 -28.033  0.00  0.00    +0.024 C 
BRANCH   2  10
ATOM      3  C   UNL A   1      37.381 -36.704 -29.533  0.00  0.00    +0.025 A 
ATOM      4  C   UNL A   1      37.456 -37.669 -28.546  0.00  0.00    -0.040 A 
ATOM      5  C   UNL A   1      36.443 -37.784 -27.591  0.00  0.00    -0.052 A 
ATOM      6  C   UNL A   1      35.280 -36.970 -27.607  0.00  0.00    -0.007 A 
ATOM      7  C   UNL A   1      35.167 -36.034 -28.647  0.00  0.00    +0.009 A 
ATOM      8  C   UNL A   1      36.222 -35.932 -29.597  0.00  0.00    -0.031 A 
ATOM      9  C   UNL A   1      34.004 -35.233 -28.728  0.00  0.00    +0.057 A 
ATOM     10  N   UNL A   1      32.976 -35.362 -27.827  0.00  0.00    -0.339 N 
ATOM     11  C   UNL A   1      33.081 -36.232 -26.765  0.00  0.00    +0.052 A 
ATOM     12  C   UNL A   1      32.066 -36.348 -25.779  0.00  0.00    -0.017 A 
ATOM     13  C   UNL A   1      32.162 -37.207 -24.681  0.00  0.00    +0.027 A 
ATOM     14  C   UNL A   1      33.253 -38.052 -24.611  0.00  0.00    -0.040 A 
ATOM     15  C   UNL A   1      34.276 -37.964 -25.556  0.00  0.00    -0.050 A 
ATOM     16  C   UNL A   1      34.232 -37.058 -26.644  0.00  0.00    +0.006 A 
BRANCH   9  17
ATOM     17  C   UNL A   1      33.865 -34.194 -29.765  0.00  0.00    -0.001 A 
ATOM     18  C   UNL A   1      34.182 -32.851 -29.499  0.00  0.00    -0.053 A 
ATOM     19  C   UNL A   1      34.043 -31.881 -30.494  0.00  0.00    -0.061 A 
ATOM     20  C   UNL A   1      33.575 -32.233 -31.758  0.00  0.00    -0.062 A 
ATOM     21  C   UNL A   1      33.236 -33.555 -32.031  0.00  0.00    -0.061 A 
ATOM     22  C   UNL A   1      33.374 -34.529 -31.042  0.00  0.00    -0.053 A 
ENDBRANCH   9  17
BRANCH   3  23
ATOM     23  N   UNL A   1      38.309 -36.675 -30.570  0.00  0.00    -0.358 N 
ATOM     24  H   UNL A   1      39.178 -36.229 -30.442  0.00  0.00    +0.000 HD
ATOM     25  H   UNL A   1      38.097 -37.100 -31.432  0.00  0.00    +0.000 HD
ENDBRANCH   3  23
BRANCH  13  26
ATOM     26  N   UNL A   1      31.079 -37.381 -23.823  0.00  0.00    -0.358 N 
ATOM     27  H   UNL A   1      31.188 -37.896 -22.991  0.00  0.00    +0.000 HD
ATOM     28  H   UNL A   1      30.204 -36.989 -24.049  0.00  0.00    +0.000 HD
ENDBRANCH  13  26
ENDBRANCH   2  10
ENDBRANCH   1   2
BRANCH   1  29
ATOM     29  C   UNL A   1      29.950 -34.695 -29.896  0.00  0.00    -0.051 C 
BRANCH  29  30
ATOM     30  C   UNL A   1      28.431 -34.818 -29.767  0.00  0.00    -0.053 C 
BRANCH  30  31
ATOM     31  C   UNL A   1      27.981 -34.850 -28.306  0.00  0.00    -0.048 C 
BRANCH  31  32
ATOM     32  C   UNL A   1      27.097 -36.071 -28.030  0.00  0.00    -0.009 C 
BRANCH  32  33
ATOM     33  C   UNL A   1      27.729 -37.038 -27.092  0.00  0.00    +0.059 A 
ATOM     34  C   UNL A   1      27.816 -37.079 -25.714  0.00  0.00    +0.072 A 
ATOM     35  N   UNL A   1      28.512 -38.183 -25.323  0.00  0.00    -0.138 NA
ATOM     36  N   UNL A   1      28.859 -38.853 -26.410  0.00  0.00    -0.065 NA
ATOM     37  N   UNL A   1      28.382 -38.185 -27.472  0.00  0.00    -0.247 N 
BRANCH  37  38
ATOM     38  C   UNL A   1      28.596 -38.727 -28.797  0.00  0.00    +0.059 C 
BRANCH  38  39
ATOM     39  C   UNL A   1      29.877 -39.553 -28.859  0.00  0.00    +0.029 C 
BRANCH  39  40
ATOM     40  N   UNL A   1      31.058 -38.854 -28.312  0.00  0.00    -0.341 N 
ATOM     41  H   UNL A   1      30.987 -37.960 -27.906  0.00  0.00    +0.000 HD
BRANCH  40  42
ATOM     42  C   UNL A   1      32.296 -39.536 -28.403  0.00  0.00    +0.041 A 
ATOM     43  C   UNL A   1      32.644 -40.508 -27.440  0.00  0.00    -0.005 A 
ATOM     44  C   UNL A   1      33.838 -41.211 -27.626  0.00  0.00    +0.047 A 
ATOM     45  N   UNL A   1      34.646 -41.028 -28.698  0.00  0.00    -0.251 NA
ATOM     46  C   UNL A   1      34.347 -40.069 -29.580  0.00  0.00    +0.073 A 
ATOM     47  C   UNL A   1      35.242 -39.841 -30.618  0.00  0.00    -0.036 A 
ATOM     48  C   UNL A   1      35.025 -38.853 -31.579  0.00  0.00    -0.060 A 
ATOM     49  C   UNL A   1      33.890 -38.062 -31.498  0.00  0.00    -0.061 A 
ATOM     50  C   UNL A   1      32.980 -38.273 -30.462  0.00  0.00    -0.051 A 
ATOM     51  C   UNL A   1      33.179 -39.289 -29.493  0.00  0.00    +0.021 A 
ATOM     52  C   UNL A   1      34.298 -42.274 -26.661  0.00  0.00    -0.010 C 
ATOM     53  C   UNL A   1      33.671 -42.144 -25.278  0.00  0.00    -0.047 C 
ATOM     54  C   UNL A   1      32.164 -41.996 -25.414  0.00  0.00    -0.049 C 
ATOM     55  C   UNL A   1      31.819 -40.726 -26.190  0.00  0.00    -0.024 C 
ENDBRANCH  40  42
ENDBRANCH  39  40
ENDBRANCH  38  39
ENDBRANCH  37  38
ENDBRANCH  32  33
ENDBRANCH  31  32
ENDBRANCH  30  31
ENDBRANCH  29  30
ENDBRANCH   1  29
TORSDOF 14
ENDMDL
MODEL 9
REMARK VINA RESULT:    -6.514     18.536     23.688
REMARK INTER + INTRA:         -18.655
REMARK INTER:                 -12.382
REMARK INTRA:                  -6.273
REMARK UNBOUND:                -7.191
REMARK  Name = cpd163.pdb
REMARK  14 active torsions:
REMARK  status: ('A' for Active; 'I' for Inactive)
REMARK    1  A    between atoms: N_1  and  C_2
REMARK    2  A    between atoms: C_8  and  C_9
REMARK    3  A    between atoms: N_15  and  C_16
REMARK    4  A    between atoms: C_16  and  C_17
REMARK    5  A    between atoms: C_17  and  C_18
REMARK    6  A    between atoms: C_18  and  C_19
REMARK    7  A    between atoms: C_19  and  C_20
REMARK    8  A    between atoms: C_20  and  C_21
REMARK    9  A    between atoms: C_21  and  C_22
REMARK   10  A    between atoms: N_26  and  C_27
REMARK   11  A    between atoms: C_27  and  C_28
REMARK   12  A    between atoms: C_28  and  N_29
REMARK   13  A    between atoms: N_29  and  C_30
REMARK   14  A    between atoms: C_46  and  N_47
REMARK                            x       y       z     vdW  Elec       q    Type
REMARK                         _______ _______ _______ _____ _____    ______ ____
ROOT
ATOM      1  C   UNL A   1      42.471 -16.904 -38.675  0.00  0.00    -0.035 C 
ENDROOT
BRANCH   1   2
ATOM      2  C   UNL A   1      41.065 -17.348 -38.266  0.00  0.00    +0.024 C 
BRANCH   2  10
ATOM      3  C   UNL A   1      41.211 -21.664 -33.753  0.00  0.00    +0.025 A 
ATOM      4  C   UNL A   1      40.913 -20.811 -32.707  0.00  0.00    -0.040 A 
ATOM      5  C   UNL A   1      40.798 -19.436 -32.927  0.00  0.00    -0.052 A 
ATOM      6  C   UNL A   1      40.927 -18.853 -34.215  0.00  0.00    -0.007 A 
ATOM      7  C   UNL A   1      41.162 -19.724 -35.292  0.00  0.00    +0.009 A 
ATOM      8  C   UNL A   1      41.287 -21.118 -35.033  0.00  0.00    -0.031 A 
ATOM      9  C   UNL A   1      41.253 -19.192 -36.599  0.00  0.00    +0.057 A 
ATOM     10  N   UNL A   1      41.096 -17.850 -36.843  0.00  0.00    -0.339 N 
ATOM     11  C   UNL A   1      40.919 -16.965 -35.802  0.00  0.00    +0.052 A 
ATOM     12  C   UNL A   1      40.815 -15.564 -36.011  0.00  0.00    -0.017 A 
ATOM     13  C   UNL A   1      40.658 -14.647 -34.969  0.00  0.00    +0.027 A 
ATOM     14  C   UNL A   1      40.497 -15.140 -33.688  0.00  0.00    -0.040 A 
ATOM     15  C   UNL A   1      40.600 -16.509 -33.441  0.00  0.00    -0.050 A 
ATOM     16  C   UNL A   1      40.821 -17.455 -34.471  0.00  0.00    +0.006 A 
BRANCH   9  17
ATOM     17  C   UNL A   1      41.559 -20.056 -37.754  0.00  0.00    -0.001 A 
ATOM     18  C   UNL A   1      42.883 -20.402 -38.074  0.00  0.00    -0.053 A 
ATOM     19  C   UNL A   1      43.153 -21.220 -39.172  0.00  0.00    -0.061 A 
ATOM     20  C   UNL A   1      42.113 -21.693 -39.970  0.00  0.00    -0.062 A 
ATOM     21  C   UNL A   1      40.799 -21.342 -39.678  0.00  0.00    -0.061 A 
ATOM     22  C   UNL A   1      40.521 -20.525 -38.582  0.00  0.00    -0.053 A 
ENDBRANCH   9  17
BRANCH   3  23
ATOM     23  N   UNL A   1      41.186 -23.045 -33.572  0.00  0.00    -0.358 N 
ATOM     24  H   UNL A   1      42.017 -23.567 -33.651  0.00  0.00    +0.000 HD
ATOM     25  H   UNL A   1      40.337 -23.499 -33.366  0.00  0.00    +0.000 HD
ENDBRANCH   3  23
BRANCH  13  26
ATOM     26  N   UNL A   1      40.424 -13.301 -35.241  0.00  0.00    -0.358 N 
ATOM     27  H   UNL A   1      41.169 -12.658 -35.222  0.00  0.00    +0.000 HD
ATOM     28  H   UNL A   1      39.513 -12.993 -35.453  0.00  0.00    +0.000 HD
ENDBRANCH  13  26
ENDBRANCH   2  10
ENDBRANCH   1   2
BRANCH   1  29
ATOM     29  C   UNL A   1      42.485 -15.983 -39.898  0.00  0.00    -0.051 C 
BRANCH  29  30
ATOM     30  C   UNL A   1      43.460 -16.459 -40.978  0.00  0.00    -0.053 C 
BRANCH  30  31
ATOM     31  C   UNL A   1      43.943 -17.887 -40.723  0.00  0.00    -0.048 C 
BRANCH  31  32
ATOM     32  C   UNL A   1      45.086 -18.258 -41.674  0.00  0.00    -0.009 C 
BRANCH  32  33
ATOM     33  C   UNL A   1      45.135 -19.715 -41.975  0.00  0.00    +0.059 A 
ATOM     34  C   UNL A   1      44.383 -20.520 -42.808  0.00  0.00    +0.072 A 
ATOM     35  N   UNL A   1      44.820 -21.808 -42.730  0.00  0.00    -0.138 NA
ATOM     36  N   UNL A   1      45.836 -21.845 -41.883  0.00  0.00    -0.065 NA
ATOM     37  N   UNL A   1      46.042 -20.595 -41.438  0.00  0.00    -0.247 N 
BRANCH  37  38
ATOM     38  C   UNL A   1      47.129 -20.349 -40.514  0.00  0.00    +0.059 C 
BRANCH  38  39
ATOM     39  C   UNL A   1      46.640 -20.353 -39.069  0.00  0.00    +0.029 C 
BRANCH  39  40
ATOM     40  N   UNL A   1      47.387 -19.431 -38.190  0.00  0.00    -0.341 N 
ATOM     41  H   UNL A   1      48.369 -19.468 -38.116  0.00  0.00    +0.000 HD
BRANCH  40  42
ATOM     42  C   UNL A   1      46.620 -18.492 -37.459  0.00  0.00    +0.041 A 
ATOM     43  C   UNL A   1      46.478 -17.168 -37.932  0.00  0.00    -0.005 A 
ATOM     44  C   UNL A   1      45.640 -16.307 -37.217  0.00  0.00    +0.047 A 
ATOM     45  N   UNL A   1      44.937 -16.695 -36.126  0.00  0.00    -0.251 NA
ATOM     46  C   UNL A   1      45.113 -17.929 -35.645  0.00  0.00    +0.073 A 
ATOM     47  C   UNL A   1      44.450 -18.269 -34.472  0.00  0.00    -0.036 A 
ATOM     48  C   UNL A   1      44.583 -19.528 -33.884  0.00  0.00    -0.060 A 
ATOM     49  C   UNL A   1      45.407 -20.473 -34.476  0.00  0.00    -0.061 A 
ATOM     50  C   UNL A   1      46.084 -20.150 -35.653  0.00  0.00    -0.051 A 
ATOM     51  C   UNL A   1      45.939 -18.882 -36.271  0.00  0.00    +0.021 A 
ATOM     52  C   UNL A   1      45.415 -14.878 -37.640  0.00  0.00    -0.010 C 
ATOM     53  C   UNL A   1      46.523 -14.333 -38.533  0.00  0.00    -0.047 C 
ATOM     54  C   UNL A   1      46.793 -15.311 -39.664  0.00  0.00    -0.049 C 
ATOM     55  C   UNL A   1      47.276 -16.650 -39.109  0.00  0.00    -0.024 C 
ENDBRANCH  40  42
ENDBRANCH  39  40
ENDBRANCH  38  39
ENDBRANCH  37  38
ENDBRANCH  32  33
ENDBRANCH  31  32
ENDBRANCH  30  31
ENDBRANCH  29  30
ENDBRANCH   1  29
TORSDOF 14
ENDMDL
MODEL 10
REMARK VINA RESULT:    -6.504     16.748     21.921
REMARK INTER + INTRA:         -18.638
REMARK INTER:                 -13.287
REMARK INTRA:                  -5.350
REMARK UNBOUND:                -7.191
REMARK  Name = cpd163.pdb
REMARK  14 active torsions:
REMARK  status: ('A' for Active; 'I' for Inactive)
REMARK    1  A    between atoms: N_1  and  C_2
REMARK    2  A    between atoms: C_8  and  C_9
REMARK    3  A    between atoms: N_15  and  C_16
REMARK    4  A    between atoms: C_16  and  C_17
REMARK    5  A    between atoms: C_17  and  C_18
REMARK    6  A    between atoms: C_18  and  C_19
REMARK    7  A    between atoms: C_19  and  C_20
REMARK    8  A    between atoms: C_20  and  C_21
REMARK    9  A    between atoms: C_21  and  C_22
REMARK   10  A    between atoms: N_26  and  C_27
REMARK   11  A    between atoms: C_27  and  C_28
REMARK   12  A    between atoms: C_28  and  N_29
REMARK   13  A    between atoms: N_29  and  C_30
REMARK   14  A    between atoms: C_46  and  N_47
REMARK                            x       y       z     vdW  Elec       q    Type
REMARK                         _______ _______ _______ _____ _____    ______ ____
ROOT
ATOM      1  C   UNL A   1      42.893 -18.749 -35.096  0.00  0.00    -0.035 C 
ENDROOT
BRANCH   1   2
ATOM      2  C   UNL A   1      43.723 -20.028 -35.225  0.00  0.00    +0.024 C 
BRANCH   2  10
ATOM      3  C   UNL A   1      46.505 -19.764 -40.812  0.00  0.00    +0.025 A 
ATOM      4  C   UNL A   1      45.480 -20.355 -41.528  0.00  0.00    -0.040 A 
ATOM      5  C   UNL A   1      44.355 -20.855 -40.869  0.00  0.00    -0.052 A 
ATOM      6  C   UNL A   1      44.177 -20.745 -39.465  0.00  0.00    -0.007 A 
ATOM      7  C   UNL A   1      45.184 -20.085 -38.742  0.00  0.00    +0.009 A 
ATOM      8  C   UNL A   1      46.324 -19.597 -39.440  0.00  0.00    -0.031 A 
ATOM      9  C   UNL A   1      45.027 -19.912 -37.347  0.00  0.00    +0.057 A 
ATOM     10  N   UNL A   1      43.908 -20.355 -36.688  0.00  0.00    -0.339 N 
ATOM     11  C   UNL A   1      42.929 -21.054 -37.360  0.00  0.00    +0.052 A 
ATOM     12  C   UNL A   1      41.788 -21.581 -36.700  0.00  0.00    -0.017 A 
ATOM     13  C   UNL A   1      40.796 -22.312 -37.358  0.00  0.00    +0.027 A 
ATOM     14  C   UNL A   1      40.885 -22.439 -38.730  0.00  0.00    -0.040 A 
ATOM     15  C   UNL A   1      41.994 -21.941 -39.415  0.00  0.00    -0.050 A 
ATOM     16  C   UNL A   1      43.045 -21.251 -38.763  0.00  0.00    +0.006 A 
BRANCH   9  17
ATOM     17  C   UNL A   1      46.083 -19.280 -36.534  0.00  0.00    -0.001 A 
ATOM     18  C   UNL A   1      46.198 -17.882 -36.447  0.00  0.00    -0.053 A 
ATOM     19  C   UNL A   1      47.205 -17.302 -35.674  0.00  0.00    -0.061 A 
ATOM     20  C   UNL A   1      48.114 -18.104 -34.988  0.00  0.00    -0.062 A 
ATOM     21  C   UNL A   1      48.027 -19.490 -35.080  0.00  0.00    -0.061 A 
ATOM     22  C   UNL A   1      47.022 -20.076 -35.851  0.00  0.00    -0.053 A 
ENDBRANCH   9  17
BRANCH   3  23
ATOM     23  N   UNL A   1      47.560 -19.135 -41.469  0.00  0.00    -0.358 N 
ATOM     24  H   UNL A   1      47.581 -19.107 -42.453  0.00  0.00    +0.000 HD
ATOM     25  H   UNL A   1      48.285 -18.718 -40.950  0.00  0.00    +0.000 HD
ENDBRANCH   3  23
BRANCH  13  26
ATOM     26  N   UNL A   1      39.633 -22.686 -36.689  0.00  0.00    -0.358 N 
ATOM     27  H   UNL A   1      39.424 -22.296 -35.808  0.00  0.00    +0.000 HD
ATOM     28  H   UNL A   1      39.019 -23.339 -37.096  0.00  0.00    +0.000 HD
ENDBRANCH  13  26
ENDBRANCH   2  10
ENDBRANCH   1   2
BRANCH   1  29
ATOM     29  C   UNL A   1      43.000 -18.093 -33.716  0.00  0.00    -0.051 C 
BRANCH  29  30
ATOM     30  C   UNL A   1      41.951 -18.619 -32.734  0.00  0.00    -0.053 C 
BRANCH  30  31
ATOM     31  C   UNL A   1      41.033 -19.658 -33.380  0.00  0.00    -0.048 C 
BRANCH  31  32
ATOM     32  C   UNL A   1      40.383 -20.552 -32.319  0.00  0.00    -0.009 C 
BRANCH  32  33
ATOM     33  C   UNL A   1      39.801 -21.796 -32.894  0.00  0.00    +0.059 A 
ATOM     34  C   UNL A   1      40.306 -23.070 -33.059  0.00  0.00    +0.072 A 
ATOM     35  N   UNL A   1      39.372 -23.870 -33.648  0.00  0.00    -0.138 NA
ATOM     36  N   UNL A   1      38.283 -23.145 -33.849  0.00  0.00    -0.065 NA
ATOM     37  N   UNL A   1      38.524 -21.908 -33.387  0.00  0.00    -0.247 N 
BRANCH  37  38
ATOM     38  C   UNL A   1      37.473 -20.915 -33.456  0.00  0.00    +0.059 C 
BRANCH  38  39
ATOM     39  C   UNL A   1      37.271 -20.419 -34.885  0.00  0.00    +0.029 C 
BRANCH  39  40
ATOM     40  N   UNL A   1      37.045 -18.963 -34.979  0.00  0.00    -0.341 N 
ATOM     41  H   UNL A   1      36.147 -18.571 -34.879  0.00  0.00    +0.000 HD
BRANCH  40  42
ATOM     42  C   UNL A   1      38.186 -18.160 -35.222  0.00  0.00    +0.041 A 
ATOM     43  C   UNL A   1      38.829 -18.202 -36.479  0.00  0.00    -0.005 A 
ATOM     44  C   UNL A   1      39.898 -17.325 -36.693  0.00  0.00    +0.047 A 
ATOM     45  N   UNL A   1      40.311 -16.422 -35.772  0.00  0.00    -0.251 NA
ATOM     46  C   UNL A   1      39.741 -16.421 -34.563  0.00  0.00    +0.073 A 
ATOM     47  C   UNL A   1      40.247 -15.548 -33.607  0.00  0.00    -0.036 A 
ATOM     48  C   UNL A   1      39.728 -15.484 -32.314  0.00  0.00    -0.060 A 
ATOM     49  C   UNL A   1      38.681 -16.319 -31.958  0.00  0.00    -0.061 A 
ATOM     50  C   UNL A   1      38.160 -17.205 -32.901  0.00  0.00    -0.051 A 
ATOM     51  C   UNL A   1      38.664 -17.263 -34.226  0.00  0.00    +0.021 A 
ATOM     52  C   UNL A   1      40.648 -17.284 -38.000  0.00  0.00    -0.010 C 
ATOM     53  C   UNL A   1      40.507 -18.564 -38.815  0.00  0.00    -0.047 C 
ATOM     54  C   UNL A   1      39.038 -18.942 -38.920  0.00  0.00    -0.049 C 
ATOM     55  C   UNL A   1      38.459 -19.221 -37.534  0.00  0.00    -0.024 C 
ENDBRANCH  40  42
ENDBRANCH  39  40
ENDBRANCH  38  39
ENDBRANCH  37  38
ENDBRANCH  32  33
ENDBRANCH  31  32
ENDBRANCH  30  31
ENDBRANCH  29  30
ENDBRANCH   1  29
TORSDOF 14
ENDMDL
MODEL 11
REMARK VINA RESULT:    -6.476     18.688     23.758
REMARK INTER + INTRA:         -18.589
REMARK INTER:                 -11.741
REMARK INTRA:                  -6.848
REMARK UNBOUND:                -7.191
REMARK  Name = cpd163.pdb
REMARK  14 active torsions:
REMARK  status: ('A' for Active; 'I' for Inactive)
REMARK    1  A    between atoms: N_1  and  C_2
REMARK    2  A    between atoms: C_8  and  C_9
REMARK    3  A    between atoms: N_15  and  C_16
REMARK    4  A    between atoms: C_16  and  C_17
REMARK    5  A    between atoms: C_17  and  C_18
REMARK    6  A    between atoms: C_18  and  C_19
REMARK    7  A    between atoms: C_19  and  C_20
REMARK    8  A    between atoms: C_20  and  C_21
REMARK    9  A    between atoms: C_21  and  C_22
REMARK   10  A    between atoms: N_26  and  C_27
REMARK   11  A    between atoms: C_27  and  C_28
REMARK   12  A    between atoms: C_28  and  N_29
REMARK   13  A    between atoms: N_29  and  C_30
REMARK   14  A    between atoms: C_46  and  N_47
REMARK                            x       y       z     vdW  Elec       q    Type
REMARK                         _______ _______ _______ _____ _____    ______ ____
ROOT
ATOM      1  C   UNL A   1      42.937 -21.221 -38.280  0.00  0.00    -0.035 C 
ENDROOT
BRANCH   1   2
ATOM      2  C   UNL A   1      42.472 -20.598 -39.597  0.00  0.00    +0.024 C 
BRANCH   2  10
ATOM      3  C   UNL A   1      46.885 -16.409 -41.014  0.00  0.00    +0.025 A 
ATOM      4  C   UNL A   1      46.288 -15.331 -40.386  0.00  0.00    -0.040 A 
ATOM      5  C   UNL A   1      45.022 -15.460 -39.811  0.00  0.00    -0.052 A 
ATOM      6  C   UNL A   1      44.311 -16.689 -39.793  0.00  0.00    -0.007 A 
ATOM      7  C   UNL A   1      44.942 -17.803 -40.369  0.00  0.00    +0.009 A 
ATOM      8  C   UNL A   1      46.227 -17.636 -40.958  0.00  0.00    -0.031 A 
ATOM      9  C   UNL A   1      44.290 -19.058 -40.333  0.00  0.00    +0.057 A 
ATOM     10  N   UNL A   1      43.066 -19.216 -39.731  0.00  0.00    -0.339 N 
ATOM     11  C   UNL A   1      42.398 -18.132 -39.206  0.00  0.00    +0.052 A 
ATOM     12  C   UNL A   1      41.105 -18.247 -38.632  0.00  0.00    -0.017 A 
ATOM     13  C   UNL A   1      40.400 -17.158 -38.115  0.00  0.00    +0.027 A 
ATOM     14  C   UNL A   1      41.037 -15.933 -38.073  0.00  0.00    -0.040 A 
ATOM     15  C   UNL A   1      42.305 -15.777 -38.633  0.00  0.00    -0.050 A 
ATOM     16  C   UNL A   1      43.016 -16.852 -39.220  0.00  0.00    +0.006 A 
BRANCH   9  17
ATOM     17  C   UNL A   1      44.883 -20.244 -40.977  0.00  0.00    -0.001 A 
ATOM     18  C   UNL A   1      44.489 -20.649 -42.264  0.00  0.00    -0.053 A 
ATOM     19  C   UNL A   1      45.061 -21.775 -42.857  0.00  0.00    -0.061 A 
ATOM     20  C   UNL A   1      46.022 -22.518 -42.174  0.00  0.00    -0.062 A 
ATOM     21  C   UNL A   1      46.408 -22.143 -40.891  0.00  0.00    -0.061 A 
ATOM     22  C   UNL A   1      45.840 -21.017 -40.292  0.00  0.00    -0.053 A 
ENDBRANCH   9  17
BRANCH   3  23
ATOM     23  N   UNL A   1      48.201 -16.330 -41.462  0.00  0.00    -0.358 N 
ATOM     24  H   UNL A   1      48.479 -15.590 -42.048  0.00  0.00    +0.000 HD
ATOM     25  H   UNL A   1      48.854 -17.015 -41.192  0.00  0.00    +0.000 HD
ENDBRANCH   3  23
BRANCH  13  26
ATOM     26  N   UNL A   1      39.196 -17.350 -37.441  0.00  0.00    -0.358 N 
ATOM     27  H   UNL A   1      38.452 -17.819 -37.885  0.00  0.00    +0.000 HD
ATOM     28  H   UNL A   1      39.089 -17.018 -36.520  0.00  0.00    +0.000 HD
ENDBRANCH  13  26
ENDBRANCH   2  10
ENDBRANCH   1   2
BRANCH   1  29
ATOM     29  C   UNL A   1      41.804 -21.875 -37.485  0.00  0.00    -0.051 C 
BRANCH  29  30
ATOM     30  C   UNL A   1      40.462 -21.814 -38.218  0.00  0.00    -0.053 C 
BRANCH  30  31
ATOM     31  C   UNL A   1      39.279 -21.881 -37.252  0.00  0.00    -0.048 C 
BRANCH  31  32
ATOM     32  C   UNL A   1      39.756 -22.113 -35.814  0.00  0.00    -0.009 C 
BRANCH  32  33
ATOM     33  C   UNL A   1      39.578 -20.916 -34.948  0.00  0.00    +0.059 A 
ATOM     34  C   UNL A   1      38.508 -20.067 -34.741  0.00  0.00    +0.072 A 
ATOM     35  N   UNL A   1      38.846 -19.102 -33.841  0.00  0.00    -0.138 NA
ATOM     36  N   UNL A   1      40.095 -19.319 -33.459  0.00  0.00    -0.065 NA
ATOM     37  N   UNL A   1      40.535 -20.411 -34.103  0.00  0.00    -0.247 N 
BRANCH  37  38
ATOM     38  C   UNL A   1      41.875 -20.892 -33.837  0.00  0.00    +0.059 C 
BRANCH  38  39
ATOM     39  C   UNL A   1      42.916 -19.808 -34.103  0.00  0.00    +0.029 C 
BRANCH  39  40
ATOM     40  N   UNL A   1      42.708 -19.089 -35.377  0.00  0.00    -0.341 N 
ATOM     41  H   UNL A   1      42.034 -19.382 -36.032  0.00  0.00    +0.000 HD
BRANCH  40  42
ATOM     42  C   UNL A   1      43.529 -17.959 -35.607  0.00  0.00    +0.041 A 
ATOM     43  C   UNL A   1      43.108 -16.678 -35.186  0.00  0.00    -0.005 A 
ATOM     44  C   UNL A   1      43.995 -15.610 -35.361  0.00  0.00    +0.047 A 
ATOM     45  N   UNL A   1      45.239 -15.758 -35.875  0.00  0.00    -0.251 NA
ATOM     46  C   UNL A   1      45.617 -16.958 -36.325  0.00  0.00    +0.073 A 
ATOM     47  C   UNL A   1      46.863 -17.060 -36.932  0.00  0.00    -0.036 A 
ATOM     48  C   UNL A   1      47.340 -18.267 -37.447  0.00  0.00    -0.060 A 
ATOM     49  C   UNL A   1      46.549 -19.402 -37.364  0.00  0.00    -0.061 A 
ATOM     50  C   UNL A   1      45.293 -19.320 -36.761  0.00  0.00    -0.051 A 
ATOM     51  C   UNL A   1      44.809 -18.105 -36.214  0.00  0.00    +0.021 A 
ATOM     52  C   UNL A   1      43.646 -14.205 -34.939  0.00  0.00    -0.010 C 
ATOM     53  C   UNL A   1      42.146 -13.968 -34.818  0.00  0.00    -0.047 C 
ATOM     54  C   UNL A   1      41.521 -15.072 -33.980  0.00  0.00    -0.049 C 
ATOM     55  C   UNL A   1      41.712 -16.428 -34.656  0.00  0.00    -0.024 C 
ENDBRANCH  40  42
ENDBRANCH  39  40
ENDBRANCH  38  39
ENDBRANCH  37  38
ENDBRANCH  32  33
ENDBRANCH  31  32
ENDBRANCH  30  31
ENDBRANCH  29  30
ENDBRANCH   1  29
TORSDOF 14
ENDMDL
MODEL 12
REMARK VINA RESULT:    -6.465     18.310     23.648
REMARK INTER + INTRA:         -18.568
REMARK INTER:                 -11.376
REMARK INTRA:                  -7.192
REMARK UNBOUND:                -7.191
REMARK  Name = cpd163.pdb
REMARK  14 active torsions:
REMARK  status: ('A' for Active; 'I' for Inactive)
REMARK    1  A    between atoms: N_1  and  C_2
REMARK    2  A    between atoms: C_8  and  C_9
REMARK    3  A    between atoms: N_15  and  C_16
REMARK    4  A    between atoms: C_16  and  C_17
REMARK    5  A    between atoms: C_17  and  C_18
REMARK    6  A    between atoms: C_18  and  C_19
REMARK    7  A    between atoms: C_19  and  C_20
REMARK    8  A    between atoms: C_20  and  C_21
REMARK    9  A    between atoms: C_21  and  C_22
REMARK   10  A    between atoms: N_26  and  C_27
REMARK   11  A    between atoms: C_27  and  C_28
REMARK   12  A    between atoms: C_28  and  N_29
REMARK   13  A    between atoms: N_29  and  C_30
REMARK   14  A    between atoms: C_46  and  N_47
REMARK                            x       y       z     vdW  Elec       q    Type
REMARK                         _______ _______ _______ _____ _____    ______ ____
ROOT
ATOM      1  C   UNL A   1      44.476 -15.630 -39.435  0.00  0.00    -0.035 C 
ENDROOT
BRANCH   1   2
ATOM      2  C   UNL A   1      43.913 -16.509 -40.554  0.00  0.00    +0.024 C 
BRANCH   2  10
ATOM      3  C   UNL A   1      40.695 -21.518 -38.662  0.00  0.00    +0.025 A 
ATOM      4  C   UNL A   1      39.447 -20.923 -38.687  0.00  0.00    -0.040 A 
ATOM      5  C   UNL A   1      39.318 -19.563 -38.975  0.00  0.00    -0.052 A 
ATOM      6  C   UNL A   1      40.428 -18.740 -39.301  0.00  0.00    -0.007 A 
ATOM      7  C   UNL A   1      41.690 -19.354 -39.344  0.00  0.00    +0.009 A 
ATOM      8  C   UNL A   1      41.790 -20.740 -39.034  0.00  0.00    -0.031 A 
ATOM      9  C   UNL A   1      42.818 -18.583 -39.709  0.00  0.00    +0.057 A 
ATOM     10  N   UNL A   1      42.706 -17.256 -40.040  0.00  0.00    -0.339 N 
ATOM     11  C   UNL A   1      41.491 -16.612 -39.954  0.00  0.00    +0.052 A 
ATOM     12  C   UNL A   1      41.348 -15.226 -40.229  0.00  0.00    -0.017 A 
ATOM     13  C   UNL A   1      40.131 -14.549 -40.126  0.00  0.00    +0.027 A 
ATOM     14  C   UNL A   1      38.999 -15.288 -39.840  0.00  0.00    -0.040 A 
ATOM     15  C   UNL A   1      39.098 -16.650 -39.556  0.00  0.00    -0.050 A 
ATOM     16  C   UNL A   1      40.329 -17.348 -39.593  0.00  0.00    +0.006 A 
BRANCH   9  17
ATOM     17  C   UNL A   1      44.172 -19.166 -39.710  0.00  0.00    -0.001 A 
ATOM     18  C   UNL A   1      44.710 -19.758 -40.865  0.00  0.00    -0.053 A 
ATOM     19  C   UNL A   1      45.993 -20.306 -40.846  0.00  0.00    -0.061 A 
ATOM     20  C   UNL A   1      46.750 -20.283 -39.677  0.00  0.00    -0.062 A 
ATOM     21  C   UNL A   1      46.224 -19.719 -38.519  0.00  0.00    -0.061 A 
ATOM     22  C   UNL A   1      44.942 -19.169 -38.531  0.00  0.00    -0.053 A 
ENDBRANCH   9  17
BRANCH   3  23
ATOM     23  N   UNL A   1      40.822 -22.897 -38.520  0.00  0.00    -0.358 N 
ATOM     24  H   UNL A   1      40.616 -23.492 -39.278  0.00  0.00    +0.000 HD
ATOM     25  H   UNL A   1      41.117 -23.279 -37.662  0.00  0.00    +0.000 HD
ENDBRANCH   3  23
BRANCH  13  26
ATOM     26  N   UNL A   1      40.022 -13.224 -40.541  0.00  0.00    -0.358 N 
ATOM     27  H   UNL A   1      39.228 -12.695 -40.296  0.00  0.00    +0.000 HD
ATOM     28  H   UNL A   1      40.739 -12.815 -41.078  0.00  0.00    +0.000 HD
ENDBRANCH  13  26
ENDBRANCH   2  10
ENDBRANCH   1   2
BRANCH   1  29
ATOM     29  C   UNL A   1      46.003 -15.682 -39.332  0.00  0.00    -0.051 C 
BRANCH  29  30
ATOM     30  C   UNL A   1      46.512 -15.268 -37.950  0.00  0.00    -0.053 C 
BRANCH  30  31
ATOM     31  C   UNL A   1      47.195 -16.426 -37.221  0.00  0.00    -0.048 C 
BRANCH  31  32
ATOM     32  C   UNL A   1      46.416 -16.817 -35.960  0.00  0.00    -0.009 C 
BRANCH  32  33
ATOM     33  C   UNL A   1      46.892 -18.094 -35.362  0.00  0.00    +0.059 A 
ATOM     34  C   UNL A   1      48.115 -18.734 -35.388  0.00  0.00    +0.072 A 
ATOM     35  N   UNL A   1      48.047 -19.898 -34.682  0.00  0.00    -0.138 NA
ATOM     36  N   UNL A   1      46.821 -20.010 -34.197  0.00  0.00    -0.065 NA
ATOM     37  N   UNL A   1      46.127 -18.928 -34.585  0.00  0.00    -0.247 N 
BRANCH  37  38
ATOM     38  C   UNL A   1      44.752 -18.784 -34.157  0.00  0.00    +0.059 C 
BRANCH  38  39
ATOM     39  C   UNL A   1      43.943 -20.044 -34.453  0.00  0.00    +0.029 C 
BRANCH  39  40
ATOM     40  N   UNL A   1      43.192 -19.978 -35.723  0.00  0.00    -0.341 N 
ATOM     41  H   UNL A   1      43.582 -20.292 -36.571  0.00  0.00    +0.000 HD
BRANCH  40  42
ATOM     42  C   UNL A   1      41.884 -19.442 -35.658  0.00  0.00    +0.041 A 
ATOM     43  C   UNL A   1      40.796 -20.264 -35.288  0.00  0.00    -0.005 A 
ATOM     44  C   UNL A   1      39.540 -19.663 -35.156  0.00  0.00    +0.047 A 
ATOM     45  N   UNL A   1      39.333 -18.336 -35.328  0.00  0.00    -0.251 NA
ATOM     46  C   UNL A   1      40.348 -17.566 -35.732  0.00  0.00    +0.073 A 
ATOM     47  C   UNL A   1      40.085 -16.227 -35.990  0.00  0.00    -0.036 A 
ATOM     48  C   UNL A   1      41.077 -15.349 -36.430  0.00  0.00    -0.060 A 
ATOM     49  C   UNL A   1      42.365 -15.820 -36.629  0.00  0.00    -0.061 A 
ATOM     50  C   UNL A   1      42.649 -17.163 -36.379  0.00  0.00    -0.051 A 
ATOM     51  C   UNL A   1      41.655 -18.059 -35.909  0.00  0.00    +0.021 A 
ATOM     52  C   UNL A   1      38.316 -20.449 -34.760  0.00  0.00    -0.010 C 
ATOM     53  C   UNL A   1      38.447 -21.943 -35.029  0.00  0.00    -0.047 C 
ATOM     54  C   UNL A   1      39.760 -22.451 -34.456  0.00  0.00    -0.049 C 
ATOM     55  C   UNL A   1      40.942 -21.763 -35.136  0.00  0.00    -0.024 C 
ENDBRANCH  40  42
ENDBRANCH  39  40
ENDBRANCH  38  39
ENDBRANCH  37  38
ENDBRANCH  32  33
ENDBRANCH  31  32
ENDBRANCH  30  31
ENDBRANCH  29  30
ENDBRANCH   1  29
TORSDOF 14
ENDMDL
MODEL 13
REMARK VINA RESULT:    -6.458     18.412     23.591
REMARK INTER + INTRA:         -18.557
REMARK INTER:                 -12.774
REMARK INTRA:                  -5.783
REMARK UNBOUND:                -7.191
REMARK  Name = cpd163.pdb
REMARK  14 active torsions:
REMARK  status: ('A' for Active; 'I' for Inactive)
REMARK    1  A    between atoms: N_1  and  C_2
REMARK    2  A    between atoms: C_8  and  C_9
REMARK    3  A    between atoms: N_15  and  C_16
REMARK    4  A    between atoms: C_16  and  C_17
REMARK    5  A    between atoms: C_17  and  C_18
REMARK    6  A    between atoms: C_18  and  C_19
REMARK    7  A    between atoms: C_19  and  C_20
REMARK    8  A    between atoms: C_20  and  C_21
REMARK    9  A    between atoms: C_21  and  C_22
REMARK   10  A    between atoms: N_26  and  C_27
REMARK   11  A    between atoms: C_27  and  C_28
REMARK   12  A    between atoms: C_28  and  N_29
REMARK   13  A    between atoms: N_29  and  C_30
REMARK   14  A    between atoms: C_46  and  N_47
REMARK                            x       y       z     vdW  Elec       q    Type
REMARK                         _______ _______ _______ _____ _____    ______ ____
ROOT
ATOM      1  C   UNL A   1      42.251 -20.848 -38.296  0.00  0.00    -0.035 C 
ENDROOT
BRANCH   1   2
ATOM      2  C   UNL A   1      42.086 -20.168 -39.656  0.00  0.00    +0.024 C 
BRANCH   2  10
ATOM      3  C   UNL A   1      46.819 -16.235 -40.734  0.00  0.00    +0.025 A 
ATOM      4  C   UNL A   1      46.351 -15.203 -39.941  0.00  0.00    -0.040 A 
ATOM      5  C   UNL A   1      45.101 -15.295 -39.326  0.00  0.00    -0.052 A 
ATOM      6  C   UNL A   1      44.278 -16.447 -39.432  0.00  0.00    -0.007 A 
ATOM      7  C   UNL A   1      44.779 -17.526 -40.179  0.00  0.00    +0.009 A 
ATOM      8  C   UNL A   1      46.051 -17.396 -40.805  0.00  0.00    -0.031 A 
ATOM      9  C   UNL A   1      44.012 -18.711 -40.274  0.00  0.00    +0.057 A 
ATOM     10  N   UNL A   1      42.803 -18.839 -39.638  0.00  0.00    -0.339 N 
ATOM     11  C   UNL A   1      42.261 -17.780 -38.944  0.00  0.00    +0.052 A 
ATOM     12  C   UNL A   1      40.985 -17.856 -38.326  0.00  0.00    -0.017 A 
ATOM     13  C   UNL A   1      40.406 -16.787 -37.637  0.00  0.00    +0.027 A 
ATOM     14  C   UNL A   1      41.158 -15.641 -37.467  0.00  0.00    -0.040 A 
ATOM     15  C   UNL A   1      42.413 -15.524 -38.064  0.00  0.00    -0.050 A 
ATOM     16  C   UNL A   1      42.996 -16.570 -38.821  0.00  0.00    +0.006 A 
BRANCH   9  17
ATOM     17  C   UNL A   1      44.466 -19.847 -41.097  0.00  0.00    -0.001 A 
ATOM     18  C   UNL A   1      45.150 -20.934 -40.525  0.00  0.00    -0.053 A 
ATOM     19  C   UNL A   1      45.573 -22.000 -41.320  0.00  0.00    -0.061 A 
ATOM     20  C   UNL A   1      45.331 -21.993 -42.692  0.00  0.00    -0.062 A 
ATOM     21  C   UNL A   1      44.674 -20.915 -43.277  0.00  0.00    -0.061 A 
ATOM     22  C   UNL A   1      44.248 -19.846 -42.488  0.00  0.00    -0.053 A 
ENDBRANCH   9  17
BRANCH   3  23
ATOM     23  N   UNL A   1      48.119 -16.215 -41.232  0.00  0.00    -0.358 N 
ATOM     24  H   UNL A   1      48.861 -15.910 -40.661  0.00  0.00    +0.000 HD
ATOM     25  H   UNL A   1      48.297 -16.505 -42.155  0.00  0.00    +0.000 HD
ENDBRANCH   3  23
BRANCH  13  26
ATOM     26  N   UNL A   1      39.216 -16.961 -36.934  0.00  0.00    -0.358 N 
ATOM     27  H   UNL A   1      39.105 -16.553 -36.044  0.00  0.00    +0.000 HD
ATOM     28  H   UNL A   1      38.486 -17.492 -37.326  0.00  0.00    +0.000 HD
ENDBRANCH  13  26
ENDBRANCH   2  10
ENDBRANCH   1   2
BRANCH   1  29
ATOM     29  C   UNL A   1      41.659 -22.259 -38.247  0.00  0.00    -0.051 C 
BRANCH  29  30
ATOM     30  C   UNL A   1      41.066 -22.599 -36.878  0.00  0.00    -0.053 C 
BRANCH  30  31
ATOM     31  C   UNL A   1      39.653 -22.038 -36.712  0.00  0.00    -0.048 C 
BRANCH  31  32
ATOM     32  C   UNL A   1      39.542 -21.197 -35.436  0.00  0.00    -0.009 C 
BRANCH  32  33
ATOM     33  C   UNL A   1      39.946 -21.948 -34.215  0.00  0.00    +0.059 A 
ATOM     34  C   UNL A   1      39.606 -23.198 -33.736  0.00  0.00    +0.072 A 
ATOM     35  N   UNL A   1      40.246 -23.434 -32.556  0.00  0.00    -0.138 NA
ATOM     36  N   UNL A   1      40.992 -22.378 -32.277  0.00  0.00    -0.065 NA
ATOM     37  N   UNL A   1      40.832 -21.490 -33.272  0.00  0.00    -0.247 N 
BRANCH  37  38
ATOM     38  C   UNL A   1      41.572 -20.247 -33.230  0.00  0.00    +0.059 C 
BRANCH  38  39
ATOM     39  C   UNL A   1      42.785 -20.291 -34.155  0.00  0.00    +0.029 C 
BRANCH  39  40
ATOM     40  N   UNL A   1      42.668 -19.401 -35.326  0.00  0.00    -0.341 N 
ATOM     41  H   UNL A   1      41.962 -19.524 -36.001  0.00  0.00    +0.000 HD
BRANCH  40  42
ATOM     42  C   UNL A   1      43.624 -18.361 -35.429  0.00  0.00    +0.041 A 
ATOM     43  C   UNL A   1      44.831 -18.573 -36.132  0.00  0.00    -0.005 A 
ATOM     44  C   UNL A   1      45.700 -17.487 -36.276  0.00  0.00    +0.047 A 
ATOM     45  N   UNL A   1      45.420 -16.247 -35.810  0.00  0.00    -0.251 NA
ATOM     46  C   UNL A   1      44.305 -16.058 -35.095  0.00  0.00    +0.073 A 
ATOM     47  C   UNL A   1      44.090 -14.799 -34.550  0.00  0.00    -0.036 A 
ATOM     48  C   UNL A   1      42.964 -14.509 -33.778  0.00  0.00    -0.060 A 
ATOM     49  C   UNL A   1      42.031 -15.505 -33.533  0.00  0.00    -0.061 A 
ATOM     50  C   UNL A   1      42.231 -16.777 -34.069  0.00  0.00    -0.051 A 
ATOM     51  C   UNL A   1      43.359 -17.077 -34.874  0.00  0.00    +0.021 A 
ATOM     52  C   UNL A   1      47.009 -17.604 -37.015  0.00  0.00    -0.010 C 
ATOM     53  C   UNL A   1      47.520 -19.037 -37.111  0.00  0.00    -0.047 C 
ATOM     54  C   UNL A   1      46.407 -19.942 -37.613  0.00  0.00    -0.049 C 
ATOM     55  C   UNL A   1      45.236 -19.943 -36.632  0.00  0.00    -0.024 C 
ENDBRANCH  40  42
ENDBRANCH  39  40
ENDBRANCH  38  39
ENDBRANCH  37  38
ENDBRANCH  32  33
ENDBRANCH  31  32
ENDBRANCH  30  31
ENDBRANCH  29  30
ENDBRANCH   1  29
TORSDOF 14
ENDMDL
MODEL 14
REMARK VINA RESULT:    -6.288     19.625     23.885
REMARK INTER + INTRA:         -18.257
REMARK INTER:                 -12.958
REMARK INTRA:                  -5.300
REMARK UNBOUND:                -7.191
REMARK  Name = cpd163.pdb
REMARK  14 active torsions:
REMARK  status: ('A' for Active; 'I' for Inactive)
REMARK    1  A    between atoms: N_1  and  C_2
REMARK    2  A    between atoms: C_8  and  C_9
REMARK    3  A    between atoms: N_15  and  C_16
REMARK    4  A    between atoms: C_16  and  C_17
REMARK    5  A    between atoms: C_17  and  C_18
REMARK    6  A    between atoms: C_18  and  C_19
REMARK    7  A    between atoms: C_19  and  C_20
REMARK    8  A    between atoms: C_20  and  C_21
REMARK    9  A    between atoms: C_21  and  C_22
REMARK   10  A    between atoms: N_26  and  C_27
REMARK   11  A    between atoms: C_27  and  C_28
REMARK   12  A    between atoms: C_28  and  N_29
REMARK   13  A    between atoms: N_29  and  C_30
REMARK   14  A    between atoms: C_46  and  N_47
REMARK                            x       y       z     vdW  Elec       q    Type
REMARK                         _______ _______ _______ _____ _____    ______ ____
ROOT
ATOM      1  C   UNL A   1      41.309 -17.407 -38.921  0.00  0.00    -0.035 C 
ENDROOT
BRANCH   1   2
ATOM      2  C   UNL A   1      42.565 -17.664 -38.086  0.00  0.00    +0.024 C 
BRANCH   2  10
ATOM      3  C   UNL A   1      46.360 -21.746 -40.909  0.00  0.00    +0.025 A 
ATOM      4  C   UNL A   1      47.270 -20.818 -41.379  0.00  0.00    -0.040 A 
ATOM      5  C   UNL A   1      47.040 -19.451 -41.204  0.00  0.00    -0.052 A 
ATOM      6  C   UNL A   1      45.912 -18.947 -40.505  0.00  0.00    -0.007 A 
ATOM      7  C   UNL A   1      45.020 -19.889 -39.965  0.00  0.00    +0.009 A 
ATOM      8  C   UNL A   1      45.275 -21.273 -40.172  0.00  0.00    -0.031 A 
ATOM      9  C   UNL A   1      43.907 -19.433 -39.222  0.00  0.00    +0.057 A 
ATOM     10  N   UNL A   1      43.688 -18.096 -38.998  0.00  0.00    -0.339 N 
ATOM     11  C   UNL A   1      44.514 -17.148 -39.560  0.00  0.00    +0.052 A 
ATOM     12  C   UNL A   1      44.284 -15.756 -39.402  0.00  0.00    -0.017 A 
ATOM     13  C   UNL A   1      45.095 -14.777 -39.982  0.00  0.00    +0.027 A 
ATOM     14  C   UNL A   1      46.229 -15.189 -40.656  0.00  0.00    -0.040 A 
ATOM     15  C   UNL A   1      46.487 -16.548 -40.839  0.00  0.00    -0.050 A 
ATOM     16  C   UNL A   1      45.647 -17.560 -40.314  0.00  0.00    +0.006 A 
BRANCH   9  17
ATOM     17  C   UNL A   1      42.909 -20.378 -38.687  0.00  0.00    -0.001 A 
ATOM     18  C   UNL A   1      42.969 -20.825 -37.356  0.00  0.00    -0.053 A 
ATOM     19  C   UNL A   1      42.016 -21.721 -36.868  0.00  0.00    -0.061 A 
ATOM     20  C   UNL A   1      41.002 -22.190 -37.700  0.00  0.00    -0.062 A 
ATOM     21  C   UNL A   1      40.941 -21.773 -39.026  0.00  0.00    -0.061 A 
ATOM     22  C   UNL A   1      41.890 -20.877 -39.520  0.00  0.00    -0.053 A 
ENDBRANCH   9  17
BRANCH   3  23
ATOM     23  N   UNL A   1      46.649 -23.108 -40.950  0.00  0.00    -0.358 N 
ATOM     24  H   UNL A   1      46.679 -23.579 -41.814  0.00  0.00    +0.000 HD
ATOM     25  H   UNL A   1      46.823 -23.600 -40.115  0.00  0.00    +0.000 HD
ENDBRANCH   3  23
BRANCH  13  26
ATOM     26  N   UNL A   1      44.903 -13.431 -39.681  0.00  0.00    -0.358 N 
ATOM     27  H   UNL A   1      44.095 -12.965 -39.997  0.00  0.00    +0.000 HD
ATOM     28  H   UNL A   1      45.576 -12.944 -39.151  0.00  0.00    +0.000 HD
ENDBRANCH  13  26
ENDBRANCH   2  10
ENDBRANCH   1   2
BRANCH   1  29
ATOM     29  C   UNL A   1      40.034 -17.297 -38.080  0.00  0.00    -0.051 C 
BRANCH  29  30
ATOM     30  C   UNL A   1      39.529 -18.660 -37.600  0.00  0.00    -0.053 C 
BRANCH  30  31
ATOM     31  C   UNL A   1      39.007 -18.603 -36.164  0.00  0.00    -0.048 C 
BRANCH  31  32
ATOM     32  C   UNL A   1      39.990 -19.269 -35.195  0.00  0.00    -0.009 C 
BRANCH  32  33
ATOM     33  C   UNL A   1      39.997 -18.628 -33.852  0.00  0.00    +0.059 A 
ATOM     34  C   UNL A   1      39.311 -17.549 -33.331  0.00  0.00    +0.072 A 
ATOM     35  N   UNL A   1      39.671 -17.350 -32.032  0.00  0.00    -0.138 NA
ATOM     36  N   UNL A   1      40.556 -18.279 -31.707  0.00  0.00    -0.065 NA
ATOM     37  N   UNL A   1      40.746 -19.058 -32.784  0.00  0.00    -0.247 N 
BRANCH  37  38
ATOM     38  C   UNL A   1      41.651 -20.183 -32.686  0.00  0.00    +0.059 C 
BRANCH  38  39
ATOM     39  C   UNL A   1      42.823 -20.037 -33.653  0.00  0.00    +0.029 C 
BRANCH  39  40
ATOM     40  N   UNL A   1      43.953 -19.266 -33.099  0.00  0.00    -0.341 N 
ATOM     41  H   UNL A   1      44.314 -19.449 -32.201  0.00  0.00    +0.000 HD
BRANCH  40  42
ATOM     42  C   UNL A   1      44.491 -18.249 -33.924  0.00  0.00    +0.041 A 
ATOM     43  C   UNL A   1      45.349 -18.583 -34.995  0.00  0.00    -0.005 A 
ATOM     44  C   UNL A   1      45.782 -17.548 -35.830  0.00  0.00    +0.047 A 
ATOM     45  N   UNL A   1      45.388 -16.261 -35.680  0.00  0.00    -0.251 NA
ATOM     46  C   UNL A   1      44.623 -15.934 -34.635  0.00  0.00    +0.073 A 
ATOM     47  C   UNL A   1      44.311 -14.592 -34.453  0.00  0.00    -0.036 A 
ATOM     48  C   UNL A   1      43.531 -14.152 -33.383  0.00  0.00    -0.060 A 
ATOM     49  C   UNL A   1      43.056 -15.072 -32.462  0.00  0.00    -0.061 A 
ATOM     50  C   UNL A   1      43.361 -16.424 -32.624  0.00  0.00    -0.051 A 
ATOM     51  C   UNL A   1      44.133 -16.886 -33.720  0.00  0.00    +0.021 A 
ATOM     52  C   UNL A   1      46.694 -17.799 -37.006  0.00  0.00    -0.010 C 
ATOM     53  C   UNL A   1      47.483 -19.097 -36.889  0.00  0.00    -0.047 C 
ATOM     54  C   UNL A   1      46.540 -20.237 -36.543  0.00  0.00    -0.049 C 
ATOM     55  C   UNL A   1      45.876 -19.989 -35.190  0.00  0.00    -0.024 C 
ENDBRANCH  40  42
ENDBRANCH  39  40
ENDBRANCH  38  39
ENDBRANCH  37  38
ENDBRANCH  32  33
ENDBRANCH  31  32
ENDBRANCH  30  31
ENDBRANCH  29  30
ENDBRANCH   1  29
TORSDOF 14
ENDMDL
MODEL 15
REMARK VINA RESULT:    -6.240     18.149     23.376
REMARK INTER + INTRA:         -18.173
REMARK INTER:                 -10.984
REMARK INTRA:                  -7.189
REMARK UNBOUND:                -7.191
REMARK  Name = cpd163.pdb
REMARK  14 active torsions:
REMARK  status: ('A' for Active; 'I' for Inactive)
REMARK    1  A    between atoms: N_1  and  C_2
REMARK    2  A    between atoms: C_8  and  C_9
REMARK    3  A    between atoms: N_15  and  C_16
REMARK    4  A    between atoms: C_16  and  C_17
REMARK    5  A    between atoms: C_17  and  C_18
REMARK    6  A    between atoms: C_18  and  C_19
REMARK    7  A    between atoms: C_19  and  C_20
REMARK    8  A    between atoms: C_20  and  C_21
REMARK    9  A    between atoms: C_21  and  C_22
REMARK   10  A    between atoms: N_26  and  C_27
REMARK   11  A    between atoms: C_27  and  C_28
REMARK   12  A    between atoms: C_28  and  N_29
REMARK   13  A    between atoms: N_29  and  C_30
REMARK   14  A    between atoms: C_46  and  N_47
REMARK                            x       y       z     vdW  Elec       q    Type
REMARK                         _______ _______ _______ _____ _____    ______ ____
ROOT
ATOM      1  C   UNL A   1      39.623 -17.332 -37.081  0.00  0.00    -0.035 C 
ENDROOT
BRANCH   1   2
ATOM      2  C   UNL A   1      39.712 -18.280 -38.278  0.00  0.00    +0.024 C 
BRANCH   2  10
ATOM      3  C   UNL A   1      45.574 -20.265 -39.132  0.00  0.00    +0.025 A 
ATOM      4  C   UNL A   1      46.045 -19.114 -39.735  0.00  0.00    -0.040 A 
ATOM      5  C   UNL A   1      45.174 -18.061 -40.027  0.00  0.00    -0.052 A 
ATOM      6  C   UNL A   1      43.797 -18.089 -39.684  0.00  0.00    -0.007 A 
ATOM      7  C   UNL A   1      43.327 -19.229 -39.010  0.00  0.00    +0.009 A 
ATOM      8  C   UNL A   1      44.237 -20.289 -38.738  0.00  0.00    -0.031 A 
ATOM      9  C   UNL A   1      41.972 -19.280 -38.609  0.00  0.00    +0.057 A 
ATOM     10  N   UNL A   1      41.111 -18.237 -38.844  0.00  0.00    -0.339 N 
ATOM     11  C   UNL A   1      41.528 -17.131 -39.551  0.00  0.00    +0.052 A 
ATOM     12  C   UNL A   1      40.649 -16.061 -39.867  0.00  0.00    -0.017 A 
ATOM     13  C   UNL A   1      41.045 -14.941 -40.602  0.00  0.00    +0.027 A 
ATOM     14  C   UNL A   1      42.378 -14.828 -40.948  0.00  0.00    -0.040 A 
ATOM     15  C   UNL A   1      43.271 -15.861 -40.662  0.00  0.00    -0.050 A 
ATOM     16  C   UNL A   1      42.882 -17.035 -39.973  0.00  0.00    +0.006 A 
BRANCH   9  17
ATOM     17  C   UNL A   1      41.417 -20.478 -37.953  0.00  0.00    -0.001 A 
ATOM     18  C   UNL A   1      41.714 -20.779 -36.612  0.00  0.00    -0.053 A 
ATOM     19  C   UNL A   1      41.179 -21.919 -36.009  0.00  0.00    -0.061 A 
ATOM     20  C   UNL A   1      40.355 -22.777 -36.734  0.00  0.00    -0.062 A 
ATOM     21  C   UNL A   1      40.068 -22.504 -38.068  0.00  0.00    -0.061 A 
ATOM     22  C   UNL A   1      40.598 -21.366 -38.677  0.00  0.00    -0.053 A 
ENDBRANCH   9  17
BRANCH   3  23
ATOM     23  N   UNL A   1      46.455 -21.257 -38.708  0.00  0.00    -0.358 N 
ATOM     24  H   UNL A   1      46.817 -21.235 -37.792  0.00  0.00    +0.000 HD
ATOM     25  H   UNL A   1      46.716 -21.979 -39.323  0.00  0.00    +0.000 HD
ENDBRANCH   3  23
BRANCH  13  26
ATOM     26  N   UNL A   1      40.180 -13.860 -40.763  0.00  0.00    -0.358 N 
ATOM     27  H   UNL A   1      39.662 -13.525 -39.996  0.00  0.00    +0.000 HD
ATOM     28  H   UNL A   1      40.087 -13.431 -41.645  0.00  0.00    +0.000 HD
ENDBRANCH  13  26
ENDBRANCH   2  10
ENDBRANCH   1   2
BRANCH   1  29
ATOM     29  C   UNL A   1      38.670 -17.823 -35.988  0.00  0.00    -0.051 C 
BRANCH  29  30
ATOM     30  C   UNL A   1      38.564 -19.349 -35.944  0.00  0.00    -0.053 C 
BRANCH  30  31
ATOM     31  C   UNL A   1      37.599 -19.824 -34.857  0.00  0.00    -0.048 C 
BRANCH  31  32
ATOM     32  C   UNL A   1      38.074 -19.381 -33.469  0.00  0.00    -0.009 C 
BRANCH  32  33
ATOM     33  C   UNL A   1      39.373 -19.995 -33.082  0.00  0.00    +0.059 A 
ATOM     34  C   UNL A   1      39.740 -21.294 -32.791  0.00  0.00    +0.072 A 
ATOM     35  N   UNL A   1      41.066 -21.347 -32.484  0.00  0.00    -0.138 NA
ATOM     36  N   UNL A   1      41.558 -20.123 -32.585  0.00  0.00    -0.065 NA
ATOM     37  N   UNL A   1      40.557 -19.309 -32.958  0.00  0.00    -0.247 N 
BRANCH  37  38
ATOM     38  C   UNL A   1      40.836 -17.906 -33.175  0.00  0.00    +0.059 C 
BRANCH  38  39
ATOM     39  C   UNL A   1      42.278 -17.689 -33.623  0.00  0.00    +0.029 C 
BRANCH  39  40
ATOM     40  N   UNL A   1      42.527 -18.081 -35.025  0.00  0.00    -0.341 N 
ATOM     41  H   UNL A   1      41.903 -18.661 -35.518  0.00  0.00    +0.000 HD
BRANCH  40  42
ATOM     42  C   UNL A   1      43.710 -17.580 -35.622  0.00  0.00    +0.041 A 
ATOM     43  C   UNL A   1      44.900 -18.340 -35.586  0.00  0.00    -0.005 A 
ATOM     44  C   UNL A   1      46.014 -17.837 -36.265  0.00  0.00    +0.047 A 
ATOM     45  N   UNL A   1      45.990 -16.686 -36.979  0.00  0.00    -0.251 NA
ATOM     46  C   UNL A   1      44.882 -15.939 -36.967  0.00  0.00    +0.073 A 
ATOM     47  C   UNL A   1      44.915 -14.718 -37.631  0.00  0.00    -0.036 A 
ATOM     48  C   UNL A   1      43.814 -13.862 -37.662  0.00  0.00    -0.060 A 
ATOM     49  C   UNL A   1      42.649 -14.226 -37.005  0.00  0.00    -0.061 A 
ATOM     50  C   UNL A   1      42.596 -15.446 -36.330  0.00  0.00    -0.051 A 
ATOM     51  C   UNL A   1      43.701 -16.334 -36.311  0.00  0.00    +0.021 A 
ATOM     52  C   UNL A   1      47.331 -18.572 -36.294  0.00  0.00    -0.010 C 
ATOM     53  C   UNL A   1      47.491 -19.566 -35.151  0.00  0.00    -0.047 C 
ATOM     54  C   UNL A   1      46.255 -20.447 -35.065  0.00  0.00    -0.049 C 
ATOM     55  C   UNL A   1      45.018 -19.604 -34.762  0.00  0.00    -0.024 C 
ENDBRANCH  40  42
ENDBRANCH  39  40
ENDBRANCH  38  39
ENDBRANCH  37  38
ENDBRANCH  32  33
ENDBRANCH  31  32
ENDBRANCH  30  31
ENDBRANCH  29  30
ENDBRANCH   1  29
TORSDOF 14
ENDMDL
MODEL 16
REMARK VINA RESULT:    -6.138     21.118     25.459
REMARK INTER + INTRA:         -17.994
REMARK INTER:                 -11.433
REMARK INTRA:                  -6.562
REMARK UNBOUND:                -7.191
REMARK  Name = cpd163.pdb
REMARK  14 active torsions:
REMARK  status: ('A' for Active; 'I' for Inactive)
REMARK    1  A    between atoms: N_1  and  C_2
REMARK    2  A    between atoms: C_8  and  C_9
REMARK    3  A    between atoms: N_15  and  C_16
REMARK    4  A    between atoms: C_16  and  C_17
REMARK    5  A    between atoms: C_17  and  C_18
REMARK    6  A    between atoms: C_18  and  C_19
REMARK    7  A    between atoms: C_19  and  C_20
REMARK    8  A    between atoms: C_20  and  C_21
REMARK    9  A    between atoms: C_21  and  C_22
REMARK   10  A    between atoms: N_26  and  C_27
REMARK   11  A    between atoms: C_27  and  C_28
REMARK   12  A    between atoms: C_28  and  N_29
REMARK   13  A    between atoms: N_29  and  C_30
REMARK   14  A    between atoms: C_46  and  N_47
REMARK                            x       y       z     vdW  Elec       q    Type
REMARK                         _______ _______ _______ _____ _____    ______ ____
ROOT
ATOM      1  C   UNL A   1      44.619 -14.727 -37.553  0.00  0.00    -0.035 C 
ENDROOT
BRANCH   1   2
ATOM      2  C   UNL A   1      43.268 -15.273 -37.084  0.00  0.00    +0.024 C 
BRANCH   2  10
ATOM      3  C   UNL A   1      42.161 -20.810 -39.756  0.00  0.00    +0.025 A 
ATOM      4  C   UNL A   1      42.413 -21.580 -38.636  0.00  0.00    -0.040 A 
ATOM      5  C   UNL A   1      42.876 -20.986 -37.459  0.00  0.00    -0.052 A 
ATOM      6  C   UNL A   1      43.062 -19.585 -37.330  0.00  0.00    -0.007 A 
ATOM      7  C   UNL A   1      42.742 -18.791 -38.444  0.00  0.00    +0.009 A 
ATOM      8  C   UNL A   1      42.285 -19.427 -39.632  0.00  0.00    -0.031 A 
ATOM      9  C   UNL A   1      42.870 -17.385 -38.346  0.00  0.00    +0.057 A 
ATOM     10  N   UNL A   1      43.278 -16.779 -37.184  0.00  0.00    -0.339 N 
ATOM     11  C   UNL A   1      43.651 -17.533 -36.093  0.00  0.00    +0.052 A 
ATOM     12  C   UNL A   1      44.137 -16.943 -34.897  0.00  0.00    -0.017 A 
ATOM     13  C   UNL A   1      44.542 -17.690 -33.788  0.00  0.00    +0.027 A 
ATOM     14  C   UNL A   1      44.365 -19.059 -33.827  0.00  0.00    -0.040 A 
ATOM     15  C   UNL A   1      43.897 -19.678 -34.986  0.00  0.00    -0.050 A 
ATOM     16  C   UNL A   1      43.538 -18.949 -36.146  0.00  0.00    +0.006 A 
BRANCH   9  17
ATOM     17  C   UNL A   1      42.605 -16.513 -39.505  0.00  0.00    -0.001 A 
ATOM     18  C   UNL A   1      41.448 -15.719 -39.570  0.00  0.00    -0.053 A 
ATOM     19  C   UNL A   1      41.214 -14.901 -40.677  0.00  0.00    -0.061 A 
ATOM     20  C   UNL A   1      42.121 -14.872 -41.734  0.00  0.00    -0.062 A 
ATOM     21  C   UNL A   1      43.261 -15.668 -41.694  0.00  0.00    -0.061 A 
ATOM     22  C   UNL A   1      43.501 -16.488 -40.591  0.00  0.00    -0.053 A 
ENDBRANCH   9  17
BRANCH   3  23
ATOM     23  N   UNL A   1      41.564 -21.369 -40.883  0.00  0.00    -0.358 N 
ATOM     24  H   UNL A   1      41.329 -20.798 -41.651  0.00  0.00    +0.000 HD
ATOM     25  H   UNL A   1      41.378 -22.335 -40.914  0.00  0.00    +0.000 HD
ENDBRANCH   3  23
BRANCH  13  26
ATOM     26  N   UNL A   1      44.878 -17.056 -32.594  0.00  0.00    -0.358 N 
ATOM     27  H   UNL A   1      44.173 -16.802 -31.955  0.00  0.00    +0.000 HD
ATOM     28  H   UNL A   1      45.822 -16.862 -32.388  0.00  0.00    +0.000 HD
ENDBRANCH  13  26
ENDBRANCH   2  10
ENDBRANCH   1   2
BRANCH   1  29
ATOM     29  C   UNL A   1      44.494 -13.610 -38.593  0.00  0.00    -0.051 C 
BRANCH  29  30
ATOM     30  C   UNL A   1      45.623 -12.583 -38.488  0.00  0.00    -0.053 C 
BRANCH  30  31
ATOM     31  C   UNL A   1      45.977 -11.981 -39.848  0.00  0.00    -0.048 C 
BRANCH  31  32
ATOM     32  C   UNL A   1      45.749 -12.995 -40.974  0.00  0.00    -0.009 C 
BRANCH  32  33
ATOM     33  C   UNL A   1      46.999 -13.328 -41.710  0.00  0.00    +0.059 A 
ATOM     34  C   UNL A   1      47.567 -12.815 -42.859  0.00  0.00    +0.072 A 
ATOM     35  N   UNL A   1      48.731 -13.467 -43.135  0.00  0.00    -0.138 NA
ATOM     36  N   UNL A   1      48.927 -14.371 -42.188  0.00  0.00    -0.065 NA
ATOM     37  N   UNL A   1      47.905 -14.284 -41.323  0.00  0.00    -0.247 N 
BRANCH  37  38
ATOM     38  C   UNL A   1      47.892 -15.149 -40.162  0.00  0.00    +0.059 C 
BRANCH  38  39
ATOM     39  C   UNL A   1      47.438 -16.560 -40.526  0.00  0.00    +0.029 C 
BRANCH  39  40
ATOM     40  N   UNL A   1      46.297 -17.039 -39.720  0.00  0.00    -0.341 N 
ATOM     41  H   UNL A   1      45.483 -16.498 -39.602  0.00  0.00    +0.000 HD
BRANCH  40  42
ATOM     42  C   UNL A   1      46.434 -18.318 -39.127  0.00  0.00    +0.041 A 
ATOM     43  C   UNL A   1      46.882 -18.438 -37.793  0.00  0.00    -0.005 A 
ATOM     44  C   UNL A   1      46.917 -19.717 -37.230  0.00  0.00    +0.047 A 
ATOM     45  N   UNL A   1      46.507 -20.828 -37.888  0.00  0.00    -0.251 NA
ATOM     46  C   UNL A   1      46.136 -20.724 -39.168  0.00  0.00    +0.073 A 
ATOM     47  C   UNL A   1      45.810 -21.892 -39.846  0.00  0.00    -0.036 A 
ATOM     48  C   UNL A   1      45.426 -21.887 -41.188  0.00  0.00    -0.060 A 
ATOM     49  C   UNL A   1      45.375 -20.686 -41.877  0.00  0.00    -0.061 A 
ATOM     50  C   UNL A   1      45.702 -19.502 -41.216  0.00  0.00    -0.051 A 
ATOM     51  C   UNL A   1      46.071 -19.492 -39.847  0.00  0.00    +0.021 A 
ATOM     52  C   UNL A   1      47.372 -19.954 -35.812  0.00  0.00    -0.010 C 
ATOM     53  C   UNL A   1      48.246 -18.832 -35.265  0.00  0.00    -0.047 C 
ATOM     54  C   UNL A   1      47.572 -17.493 -35.517  0.00  0.00    -0.049 C 
ATOM     55  C   UNL A   1      47.409 -17.250 -37.016  0.00  0.00    -0.024 C 
ENDBRANCH  40  42
ENDBRANCH  39  40
ENDBRANCH  38  39
ENDBRANCH  37  38
ENDBRANCH  32  33
ENDBRANCH  31  32
ENDBRANCH  30  31
ENDBRANCH  29  30
ENDBRANCH   1  29
TORSDOF 14
ENDMDL
MODEL 17
REMARK VINA RESULT:    -6.067     19.024     23.790
REMARK INTER + INTRA:         -17.869
REMARK INTER:                 -12.654
REMARK INTRA:                  -5.215
REMARK UNBOUND:                -7.191
REMARK  Name = cpd163.pdb
REMARK  14 active torsions:
REMARK  status: ('A' for Active; 'I' for Inactive)
REMARK    1  A    between atoms: N_1  and  C_2
REMARK    2  A    between atoms: C_8  and  C_9
REMARK    3  A    between atoms: N_15  and  C_16
REMARK    4  A    between atoms: C_16  and  C_17
REMARK    5  A    between atoms: C_17  and  C_18
REMARK    6  A    between atoms: C_18  and  C_19
REMARK    7  A    between atoms: C_19  and  C_20
REMARK    8  A    between atoms: C_20  and  C_21
REMARK    9  A    between atoms: C_21  and  C_22
REMARK   10  A    between atoms: N_26  and  C_27
REMARK   11  A    between atoms: C_27  and  C_28
REMARK   12  A    between atoms: C_28  and  N_29
REMARK   13  A    between atoms: N_29  and  C_30
REMARK   14  A    between atoms: C_46  and  N_47
REMARK                            x       y       z     vdW  Elec       q    Type
REMARK                         _______ _______ _______ _____ _____    ______ ____
ROOT
ATOM      1  C   UNL A   1      42.496 -16.319 -39.804  0.00  0.00    -0.035 C 
ENDROOT
BRANCH   1   2
ATOM      2  C   UNL A   1      43.077 -17.221 -38.713  0.00  0.00    +0.024 C 
BRANCH   2  10
ATOM      3  C   UNL A   1      47.265 -20.621 -41.864  0.00  0.00    +0.025 A 
ATOM      4  C   UNL A   1      46.453 -21.721 -42.071  0.00  0.00    -0.040 A 
ATOM      5  C   UNL A   1      45.177 -21.775 -41.503  0.00  0.00    -0.052 A 
ATOM      6  C   UNL A   1      44.632 -20.708 -40.742  0.00  0.00    -0.007 A 
ATOM      7  C   UNL A   1      45.427 -19.561 -40.586  0.00  0.00    +0.009 A 
ATOM      8  C   UNL A   1      46.727 -19.541 -41.165  0.00  0.00    -0.031 A 
ATOM      9  C   UNL A   1      44.906 -18.456 -39.872  0.00  0.00    +0.057 A 
ATOM     10  N   UNL A   1      43.638 -18.471 -39.347  0.00  0.00    -0.339 N 
ATOM     11  C   UNL A   1      42.856 -19.601 -39.436  0.00  0.00    +0.052 A 
ATOM     12  C   UNL A   1      41.564 -19.674 -38.851  0.00  0.00    -0.017 A 
ATOM     13  C   UNL A   1      40.764 -20.818 -38.910  0.00  0.00    +0.027 A 
ATOM     14  C   UNL A   1      41.215 -21.889 -39.658  0.00  0.00    -0.040 A 
ATOM     15  C   UNL A   1      42.481 -21.859 -40.242  0.00  0.00    -0.050 A 
ATOM     16  C   UNL A   1      43.338 -20.735 -40.145  0.00  0.00    +0.006 A 
BRANCH   9  17
ATOM     17  C   UNL A   1      45.723 -17.252 -39.629  0.00  0.00    -0.001 A 
ATOM     18  C   UNL A   1      46.015 -16.348 -40.665  0.00  0.00    -0.053 A 
ATOM     19  C   UNL A   1      46.791 -15.215 -40.416  0.00  0.00    -0.061 A 
ATOM     20  C   UNL A   1      47.294 -14.975 -39.139  0.00  0.00    -0.062 A 
ATOM     21  C   UNL A   1      47.031 -15.871 -38.108  0.00  0.00    -0.061 A 
ATOM     22  C   UNL A   1      46.256 -17.006 -38.350  0.00  0.00    -0.053 A 
ENDBRANCH   9  17
BRANCH   3  23
ATOM     23  N   UNL A   1      48.475 -20.494 -42.541  0.00  0.00    -0.358 N 
ATOM     24  H   UNL A   1      48.494 -20.519 -43.525  0.00  0.00    +0.000 HD
ATOM     25  H   UNL A   1      49.312 -20.379 -42.035  0.00  0.00    +0.000 HD
ENDBRANCH   3  23
BRANCH  13  26
ATOM     26  N   UNL A   1      39.453 -20.788 -38.440  0.00  0.00    -0.358 N 
ATOM     27  H   UNL A   1      38.712 -20.595 -39.059  0.00  0.00    +0.000 HD
ATOM     28  H   UNL A   1      39.267 -20.960 -37.488  0.00  0.00    +0.000 HD
ENDBRANCH  13  26
ENDBRANCH   2  10
ENDBRANCH   1   2
BRANCH   1  29
ATOM     29  C   UNL A   1      42.409 -14.847 -39.392  0.00  0.00    -0.051 C 
BRANCH  29  30
ATOM     30  C   UNL A   1      43.607 -14.402 -38.551  0.00  0.00    -0.053 C 
BRANCH  30  31
ATOM     31  C   UNL A   1      43.193 -13.999 -37.135  0.00  0.00    -0.048 C 
BRANCH  31  32
ATOM     32  C   UNL A   1      43.832 -14.923 -36.092  0.00  0.00    -0.009 C 
BRANCH  32  33
ATOM     33  C   UNL A   1      42.835 -15.513 -35.158  0.00  0.00    +0.059 A 
ATOM     34  C   UNL A   1      41.519 -15.898 -35.322  0.00  0.00    +0.072 A 
ATOM     35  N   UNL A   1      41.026 -16.386 -34.149  0.00  0.00    -0.138 NA
ATOM     36  N   UNL A   1      41.993 -16.336 -33.247  0.00  0.00    -0.065 NA
ATOM     37  N   UNL A   1      43.083 -15.830 -33.845  0.00  0.00    -0.247 N 
BRANCH  37  38
ATOM     38  C   UNL A   1      44.306 -15.699 -33.081  0.00  0.00    +0.059 C 
BRANCH  38  39
ATOM     39  C   UNL A   1      45.269 -16.846 -33.374  0.00  0.00    +0.029 C 
BRANCH  39  40
ATOM     40  N   UNL A   1      44.755 -18.168 -32.966  0.00  0.00    -0.341 N 
ATOM     41  H   UNL A   1      44.636 -18.406 -32.018  0.00  0.00    +0.000 HD
BRANCH  40  42
ATOM     42  C   UNL A   1      44.442 -19.075 -34.007  0.00  0.00    +0.041 A 
ATOM     43  C   UNL A   1      43.169 -19.684 -34.060  0.00  0.00    -0.005 A 
ATOM     44  C   UNL A   1      42.884 -20.504 -35.156  0.00  0.00    +0.047 A 
ATOM     45  N   UNL A   1      43.752 -20.706 -36.176  0.00  0.00    -0.251 NA
ATOM     46  C   UNL A   1      44.977 -20.177 -36.100  0.00  0.00    +0.073 A 
ATOM     47  C   UNL A   1      45.878 -20.477 -37.114  0.00  0.00    -0.036 A 
ATOM     48  C   UNL A   1      47.183 -19.983 -37.115  0.00  0.00    -0.060 A 
ATOM     49  C   UNL A   1      47.608 -19.177 -36.071  0.00  0.00    -0.061 A 
ATOM     50  C   UNL A   1      46.720 -18.867 -35.040  0.00  0.00    -0.051 A 
ATOM     51  C   UNL A   1      45.384 -19.343 -35.041  0.00  0.00    +0.021 A 
ATOM     52  C   UNL A   1      41.553 -21.196 -35.312  0.00  0.00    -0.010 C 
ATOM     53  C   UNL A   1      40.798 -21.352 -33.998  0.00  0.00    -0.047 C 
ATOM     54  C   UNL A   1      40.756 -20.016 -33.273  0.00  0.00    -0.049 C 
ATOM     55  C   UNL A   1      42.170 -19.550 -32.931  0.00  0.00    -0.024 C 
ENDBRANCH  40  42
ENDBRANCH  39  40
ENDBRANCH  38  39
ENDBRANCH  37  38
ENDBRANCH  32  33
ENDBRANCH  31  32
ENDBRANCH  30  31
ENDBRANCH  29  30
ENDBRANCH   1  29
TORSDOF 14
ENDMDL
MODEL 18
REMARK VINA RESULT:    -6.050     18.811     23.522
REMARK INTER + INTRA:         -17.839
REMARK INTER:                 -11.767
REMARK INTRA:                  -6.071
REMARK UNBOUND:                -7.191
REMARK  Name = cpd163.pdb
REMARK  14 active torsions:
REMARK  status: ('A' for Active; 'I' for Inactive)
REMARK    1  A    between atoms: N_1  and  C_2
REMARK    2  A    between atoms: C_8  and  C_9
REMARK    3  A    between atoms: N_15  and  C_16
REMARK    4  A    between atoms: C_16  and  C_17
REMARK    5  A    between atoms: C_17  and  C_18
REMARK    6  A    between atoms: C_18  and  C_19
REMARK    7  A    between atoms: C_19  and  C_20
REMARK    8  A    between atoms: C_20  and  C_21
REMARK    9  A    between atoms: C_21  and  C_22
REMARK   10  A    between atoms: N_26  and  C_27
REMARK   11  A    between atoms: C_27  and  C_28
REMARK   12  A    between atoms: C_28  and  N_29
REMARK   13  A    between atoms: N_29  and  C_30
REMARK   14  A    between atoms: C_46  and  N_47
REMARK                            x       y       z     vdW  Elec       q    Type
REMARK                         _______ _______ _______ _____ _____    ______ ____
ROOT
ATOM      1  C   UNL A   1      44.762 -16.071 -40.932  0.00  0.00    -0.035 C 
ENDROOT
BRANCH   1   2
ATOM      2  C   UNL A   1      46.091 -16.400 -40.248  0.00  0.00    +0.024 C 
BRANCH   2  10
ATOM      3  C   UNL A   1      45.396 -18.599 -34.442  0.00  0.00    +0.025 A 
ATOM      4  C   UNL A   1      45.504 -19.939 -34.766  0.00  0.00    -0.040 A 
ATOM      5  C   UNL A   1      45.607 -20.338 -36.100  0.00  0.00    -0.052 A 
ATOM      6  C   UNL A   1      45.658 -19.411 -37.175  0.00  0.00    -0.007 A 
ATOM      7  C   UNL A   1      45.617 -18.046 -36.846  0.00  0.00    +0.009 A 
ATOM      8  C   UNL A   1      45.499 -17.673 -35.478  0.00  0.00    -0.031 A 
ATOM      9  C   UNL A   1      45.710 -17.087 -37.882  0.00  0.00    +0.057 A 
ATOM     10  N   UNL A   1      45.859 -17.457 -39.195  0.00  0.00    -0.339 N 
ATOM     11  C   UNL A   1      45.847 -18.787 -39.554  0.00  0.00    +0.052 A 
ATOM     12  C   UNL A   1      45.937 -19.205 -40.908  0.00  0.00    -0.017 A 
ATOM     13  C   UNL A   1      45.903 -20.547 -41.295  0.00  0.00    +0.027 A 
ATOM     14  C   UNL A   1      45.883 -21.509 -40.304  0.00  0.00    -0.040 A 
ATOM     15  C   UNL A   1      45.788 -21.139 -38.963  0.00  0.00    -0.050 A 
ATOM     16  C   UNL A   1      45.757 -19.786 -38.546  0.00  0.00    +0.006 A 
BRANCH   9  17
ATOM     17  C   UNL A   1      45.611 -15.644 -37.595  0.00  0.00    -0.001 A 
ATOM     18  C   UNL A   1      44.364 -15.019 -37.423  0.00  0.00    -0.053 A 
ATOM     19  C   UNL A   1      44.291 -13.651 -37.153  0.00  0.00    -0.061 A 
ATOM     20  C   UNL A   1      45.453 -12.889 -37.063  0.00  0.00    -0.062 A 
ATOM     21  C   UNL A   1      46.694 -13.489 -37.251  0.00  0.00    -0.061 A 
ATOM     22  C   UNL A   1      46.775 -14.856 -37.521  0.00  0.00    -0.053 A 
ENDBRANCH   9  17
BRANCH   3  23
ATOM     23  N   UNL A   1      45.438 -18.184 -33.113  0.00  0.00    -0.358 N 
ATOM     24  H   UNL A   1      44.602 -18.073 -32.605  0.00  0.00    +0.000 HD
ATOM     25  H   UNL A   1      46.304 -18.001 -32.682  0.00  0.00    +0.000 HD
ENDBRANCH   3  23
BRANCH  13  26
ATOM     26  N   UNL A   1      46.133 -20.905 -42.622  0.00  0.00    -0.358 N 
ATOM     27  H   UNL A   1      46.932 -20.570 -43.091  0.00  0.00    +0.000 HD
ATOM     28  H   UNL A   1      45.498 -21.493 -43.091  0.00  0.00    +0.000 HD
ENDBRANCH  13  26
ENDBRANCH   2  10
ENDBRANCH   1   2
BRANCH   1  29
ATOM     29  C   UNL A   1      44.526 -14.568 -41.109  0.00  0.00    -0.051 C 
BRANCH  29  30
ATOM     30  C   UNL A   1      43.075 -14.167 -40.838  0.00  0.00    -0.053 C 
BRANCH  30  31
ATOM     31  C   UNL A   1      42.199 -15.377 -40.510  0.00  0.00    -0.048 C 
BRANCH  31  32
ATOM     32  C   UNL A   1      41.136 -15.019 -39.466  0.00  0.00    -0.009 C 
BRANCH  32  33
ATOM     33  C   UNL A   1      40.240 -16.162 -39.141  0.00  0.00    +0.059 A 
ATOM     34  C   UNL A   1      39.429 -16.960 -39.923  0.00  0.00    +0.072 A 
ATOM     35  N   UNL A   1      38.794 -17.883 -39.146  0.00  0.00    -0.138 NA
ATOM     36  N   UNL A   1      39.187 -17.703 -37.895  0.00  0.00    -0.065 NA
ATOM     37  N   UNL A   1      40.064 -16.687 -37.884  0.00  0.00    -0.247 N 
BRANCH  37  38
ATOM     38  C   UNL A   1      40.680 -16.303 -36.631  0.00  0.00    +0.059 C 
BRANCH  38  39
ATOM     39  C   UNL A   1      40.704 -17.468 -35.646  0.00  0.00    +0.029 C 
BRANCH  39  40
ATOM     40  N   UNL A   1      41.892 -18.334 -35.783  0.00  0.00    -0.341 N 
ATOM     41  H   UNL A   1      42.805 -17.980 -35.678  0.00  0.00    +0.000 HD
BRANCH  40  42
ATOM     42  C   UNL A   1      41.650 -19.699 -36.074  0.00  0.00    +0.041 A 
ATOM     43  C   UNL A   1      41.253 -20.584 -35.048  0.00  0.00    -0.005 A 
ATOM     44  C   UNL A   1      40.944 -21.900 -35.407  0.00  0.00    +0.047 A 
ATOM     45  N   UNL A   1      40.973 -22.346 -36.685  0.00  0.00    -0.251 NA
ATOM     46  C   UNL A   1      41.403 -21.525 -37.649  0.00  0.00    +0.073 A 
ATOM     47  C   UNL A   1      41.511 -22.037 -38.937  0.00  0.00    -0.036 A 
ATOM     48  C   UNL A   1      41.964 -21.263 -40.005  0.00  0.00    -0.060 A 
ATOM     49  C   UNL A   1      42.331 -19.944 -39.785  0.00  0.00    -0.061 A 
ATOM     50  C   UNL A   1      42.233 -19.412 -38.499  0.00  0.00    -0.051 A 
ATOM     51  C   UNL A   1      41.752 -20.183 -37.409  0.00  0.00    +0.021 A 
ATOM     52  C   UNL A   1      40.503 -22.923 -34.390  0.00  0.00    -0.010 C 
ATOM     53  C   UNL A   1      40.919 -22.574 -32.966  0.00  0.00    -0.047 C 
ATOM     54  C   UNL A   1      40.525 -21.138 -32.658  0.00  0.00    -0.049 C 
ATOM     55  C   UNL A   1      41.252 -20.173 -33.592  0.00  0.00    -0.024 C 
ENDBRANCH  40  42
ENDBRANCH  39  40
ENDBRANCH  38  39
ENDBRANCH  37  38
ENDBRANCH  32  33
ENDBRANCH  31  32
ENDBRANCH  30  31
ENDBRANCH  29  30
ENDBRANCH   1  29
TORSDOF 14
ENDMDL
MODEL 19
REMARK VINA RESULT:    -5.964     17.436     22.436
REMARK INTER + INTRA:         -17.687
REMARK INTER:                 -11.674
REMARK INTRA:                  -6.013
REMARK UNBOUND:                -7.191
REMARK  Name = cpd163.pdb
REMARK  14 active torsions:
REMARK  status: ('A' for Active; 'I' for Inactive)
REMARK    1  A    between atoms: N_1  and  C_2
REMARK    2  A    between atoms: C_8  and  C_9
REMARK    3  A    between atoms: N_15  and  C_16
REMARK    4  A    between atoms: C_16  and  C_17
REMARK    5  A    between atoms: C_17  and  C_18
REMARK    6  A    between atoms: C_18  and  C_19
REMARK    7  A    between atoms: C_19  and  C_20
REMARK    8  A    between atoms: C_20  and  C_21
REMARK    9  A    between atoms: C_21  and  C_22
REMARK   10  A    between atoms: N_26  and  C_27
REMARK   11  A    between atoms: C_27  and  C_28
REMARK   12  A    between atoms: C_28  and  N_29
REMARK   13  A    between atoms: N_29  and  C_30
REMARK   14  A    between atoms: C_46  and  N_47
REMARK                            x       y       z     vdW  Elec       q    Type
REMARK                         _______ _______ _______ _____ _____    ______ ____
ROOT
ATOM      1  C   UNL A   1      39.655 -16.017 -34.033  0.00  0.00    -0.035 C 
ENDROOT
BRANCH   1   2
ATOM      2  C   UNL A   1      40.919 -16.869 -33.892  0.00  0.00    +0.024 C 
BRANCH   2  10
ATOM      3  C   UNL A   1      45.575 -14.800 -37.506  0.00  0.00    +0.025 A 
ATOM      4  C   UNL A   1      45.070 -15.272 -38.702  0.00  0.00    -0.040 A 
ATOM      5  C   UNL A   1      43.907 -16.047 -38.722  0.00  0.00    -0.052 A 
ATOM      6  C   UNL A   1      43.165 -16.344 -37.549  0.00  0.00    -0.007 A 
ATOM      7  C   UNL A   1      43.637 -15.809 -36.339  0.00  0.00    +0.009 A 
ATOM      8  C   UNL A   1      44.832 -15.035 -36.351  0.00  0.00    -0.031 A 
ATOM      9  C   UNL A   1      42.905 -16.043 -35.152  0.00  0.00    +0.057 A 
ATOM     10  N   UNL A   1      41.735 -16.761 -35.157  0.00  0.00    -0.339 N 
ATOM     11  C   UNL A   1      41.276 -17.344 -36.317  0.00  0.00    +0.052 A 
ATOM     12  C   UNL A   1      40.105 -18.146 -36.348  0.00  0.00    -0.017 A 
ATOM     13  C   UNL A   1      39.635 -18.766 -37.509  0.00  0.00    +0.027 A 
ATOM     14  C   UNL A   1      40.288 -18.501 -38.697  0.00  0.00    -0.040 A 
ATOM     15  C   UNL A   1      41.447 -17.724 -38.708  0.00  0.00    -0.050 A 
ATOM     16  C   UNL A   1      41.980 -17.136 -37.535  0.00  0.00    +0.006 A 
BRANCH   9  17
ATOM     17  C   UNL A   1      43.391 -15.554 -33.848  0.00  0.00    -0.001 A 
ATOM     18  C   UNL A   1      43.034 -14.283 -33.367  0.00  0.00    -0.053 A 
ATOM     19  C   UNL A   1      43.505 -13.837 -32.131  0.00  0.00    -0.061 A 
ATOM     20  C   UNL A   1      44.344 -14.644 -31.366  0.00  0.00    -0.062 A 
ATOM     21  C   UNL A   1      44.724 -15.897 -31.838  0.00  0.00    -0.061 A 
ATOM     22  C   UNL A   1      44.256 -16.349 -33.073  0.00  0.00    -0.053 A 
ENDBRANCH   9  17
BRANCH   3  23
ATOM     23  N   UNL A   1      46.647 -13.910 -37.489  0.00  0.00    -0.358 N 
ATOM     24  H   UNL A   1      47.043 -13.601 -38.336  0.00  0.00    +0.000 HD
ATOM     25  H   UNL A   1      47.009 -13.592 -36.631  0.00  0.00    +0.000 HD
ENDBRANCH   3  23
BRANCH  13  26
ATOM     26  N   UNL A   1      38.407 -19.425 -37.510  0.00  0.00    -0.358 N 
ATOM     27  H   UNL A   1      37.599 -18.959 -37.825  0.00  0.00    +0.000 HD
ATOM     28  H   UNL A   1      38.348 -20.356 -37.196  0.00  0.00    +0.000 HD
ENDBRANCH  13  26
ENDBRANCH   2  10
ENDBRANCH   1   2
BRANCH   1  29
ATOM     29  C   UNL A   1      38.389 -16.723 -33.539  0.00  0.00    -0.051 C 
BRANCH  29  30
ATOM     30  C   UNL A   1      38.684 -17.768 -32.461  0.00  0.00    -0.053 C 
BRANCH  30  31
ATOM     31  C   UNL A   1      37.843 -19.032 -32.646  0.00  0.00    -0.048 C 
BRANCH  31  32
ATOM     32  C   UNL A   1      38.386 -19.891 -33.793  0.00  0.00    -0.009 C 
BRANCH  32  33
ATOM     33  C   UNL A   1      38.873 -21.221 -33.336  0.00  0.00    +0.059 A 
ATOM     34  C   UNL A   1      38.337 -22.490 -33.429  0.00  0.00    +0.072 A 
ATOM     35  N   UNL A   1      39.174 -23.394 -32.846  0.00  0.00    -0.138 NA
ATOM     36  N   UNL A   1      40.233 -22.739 -32.397  0.00  0.00    -0.065 NA
ATOM     37  N   UNL A   1      40.069 -21.441 -32.700  0.00  0.00    -0.247 N 
BRANCH  37  38
ATOM     38  C   UNL A   1      41.111 -20.500 -32.346  0.00  0.00    +0.059 C 
BRANCH  38  39
ATOM     39  C   UNL A   1      41.862 -20.014 -33.583  0.00  0.00    +0.029 C 
BRANCH  39  40
ATOM     40  N   UNL A   1      42.635 -21.075 -34.260  0.00  0.00    -0.341 N 
ATOM     41  H   UNL A   1      42.835 -21.932 -33.818  0.00  0.00    +0.000 HD
BRANCH  40  42
ATOM     42  C   UNL A   1      43.074 -20.796 -35.577  0.00  0.00    +0.041 A 
ATOM     43  C   UNL A   1      44.262 -20.062 -35.789  0.00  0.00    -0.005 A 
ATOM     44  C   UNL A   1      44.694 -19.889 -37.107  0.00  0.00    +0.047 A 
ATOM     45  N   UNL A   1      44.052 -20.422 -38.174  0.00  0.00    -0.251 NA
ATOM     46  C   UNL A   1      42.898 -21.069 -37.979  0.00  0.00    +0.073 A 
ATOM     47  C   UNL A   1      42.212 -21.524 -39.099  0.00  0.00    -0.036 A 
ATOM     48  C   UNL A   1      40.994 -22.196 -38.999  0.00  0.00    -0.060 A 
ATOM     49  C   UNL A   1      40.436 -22.412 -37.749  0.00  0.00    -0.061 A 
ATOM     50  C   UNL A   1      41.106 -21.959 -36.612  0.00  0.00    -0.051 A 
ATOM     51  C   UNL A   1      42.356 -21.296 -36.700  0.00  0.00    +0.021 A 
ATOM     52  C   UNL A   1      45.952 -19.128 -37.442  0.00  0.00    -0.010 C 
ATOM     53  C   UNL A   1      46.386 -18.167 -36.342  0.00  0.00    -0.047 C 
ATOM     54  C   UNL A   1      46.402 -18.895 -35.008  0.00  0.00    -0.049 C 
ATOM     55  C   UNL A   1      45.001 -19.389 -34.652  0.00  0.00    -0.024 C 
ENDBRANCH  40  42
ENDBRANCH  39  40
ENDBRANCH  38  39
ENDBRANCH  37  38
ENDBRANCH  32  33
ENDBRANCH  31  32
ENDBRANCH  30  31
ENDBRANCH  29  30
ENDBRANCH   1  29
TORSDOF 14
ENDMDL
MODEL 20
REMARK VINA RESULT:    -5.885     20.118     24.176
REMARK INTER + INTRA:         -17.549
REMARK INTER:                 -10.231
REMARK INTRA:                  -7.318
REMARK UNBOUND:                -7.191
REMARK  Name = cpd163.pdb
REMARK  14 active torsions:
REMARK  status: ('A' for Active; 'I' for Inactive)
REMARK    1  A    between atoms: N_1  and  C_2
REMARK    2  A    between atoms: C_8  and  C_9
REMARK    3  A    between atoms: N_15  and  C_16
REMARK    4  A    between atoms: C_16  and  C_17
REMARK    5  A    between atoms: C_17  and  C_18
REMARK    6  A    between atoms: C_18  and  C_19
REMARK    7  A    between atoms: C_19  and  C_20
REMARK    8  A    between atoms: C_20  and  C_21
REMARK    9  A    between atoms: C_21  and  C_22
REMARK   10  A    between atoms: N_26  and  C_27
REMARK   11  A    between atoms: C_27  and  C_28
REMARK   12  A    between atoms: C_28  and  N_29
REMARK   13  A    between atoms: N_29  and  C_30
REMARK   14  A    between atoms: C_46  and  N_47
REMARK                            x       y       z     vdW  Elec       q    Type
REMARK                         _______ _______ _______ _____ _____    ______ ____
ROOT
ATOM      1  C   UNL A   1      42.755 -18.399 -33.764  0.00  0.00    -0.035 C 
ENDROOT
BRANCH   1   2
ATOM      2  C   UNL A   1      43.870 -17.550 -33.149  0.00  0.00    +0.024 C 
BRANCH   2  10
ATOM      3  C   UNL A   1      44.843 -12.721 -36.990  0.00  0.00    +0.025 A 
ATOM      4  C   UNL A   1      45.739 -13.361 -37.825  0.00  0.00    -0.040 A 
ATOM      5  C   UNL A   1      46.174 -14.656 -37.536  0.00  0.00    -0.052 A 
ATOM      6  C   UNL A   1      45.694 -15.395 -36.423  0.00  0.00    -0.007 A 
ATOM      7  C   UNL A   1      44.732 -14.775 -35.610  0.00  0.00    +0.009 A 
ATOM      8  C   UNL A   1      44.319 -13.449 -35.923  0.00  0.00    -0.031 A 
ATOM      9  C   UNL A   1      44.192 -15.491 -34.515  0.00  0.00    +0.057 A 
ATOM     10  N   UNL A   1      44.571 -16.781 -34.242  0.00  0.00    -0.339 N 
ATOM     11  C   UNL A   1      45.552 -17.396 -34.988  0.00  0.00    +0.052 A 
ATOM     12  C   UNL A   1      46.014 -18.707 -34.696  0.00  0.00    -0.017 A 
ATOM     13  C   UNL A   1      47.023 -19.340 -35.425  0.00  0.00    +0.027 A 
ATOM     14  C   UNL A   1      47.521 -18.696 -36.541  0.00  0.00    -0.040 A 
ATOM     15  C   UNL A   1      47.099 -17.404 -36.857  0.00  0.00    -0.050 A 
ATOM     16  C   UNL A   1      46.122 -16.715 -36.098  0.00  0.00    +0.006 A 
BRANCH   9  17
ATOM     17  C   UNL A   1      43.225 -14.863 -33.597  0.00  0.00    -0.001 A 
ATOM     18  C   UNL A   1      43.650 -14.206 -32.429  0.00  0.00    -0.053 A 
ATOM     19  C   UNL A   1      42.719 -13.619 -31.570  0.00  0.00    -0.061 A 
ATOM     20  C   UNL A   1      41.357 -13.688 -31.857  0.00  0.00    -0.062 A 
ATOM     21  C   UNL A   1      40.919 -14.352 -32.998  0.00  0.00    -0.061 A 
ATOM     22  C   UNL A   1      41.844 -14.941 -33.861  0.00  0.00    -0.053 A 
ENDBRANCH   9  17
BRANCH   3  23
ATOM     23  N   UNL A   1      44.295 -11.491 -37.344  0.00  0.00    -0.358 N 
ATOM     24  H   UNL A   1      43.559 -11.449 -37.998  0.00  0.00    +0.000 HD
ATOM     25  H   UNL A   1      44.643 -10.662 -36.942  0.00  0.00    +0.000 HD
ENDBRANCH   3  23
BRANCH  13  26
ATOM     26  N   UNL A   1      47.339 -20.675 -35.182  0.00  0.00    -0.358 N 
ATOM     27  H   UNL A   1      47.169 -21.355 -35.874  0.00  0.00    +0.000 HD
ATOM     28  H   UNL A   1      47.732 -20.939 -34.319  0.00  0.00    +0.000 HD
ENDBRANCH  13  26
ENDBRANCH   2  10
ENDBRANCH   1   2
BRANCH   1  29
ATOM     29  C   UNL A   1      41.854 -19.065 -32.721  0.00  0.00    -0.051 C 
BRANCH  29  30
ATOM     30  C   UNL A   1      40.366 -18.849 -33.008  0.00  0.00    -0.053 C 
BRANCH  30  31
ATOM     31  C   UNL A   1      40.131 -18.278 -34.407  0.00  0.00    -0.048 C 
BRANCH  31  32
ATOM     32  C   UNL A   1      39.082 -19.098 -35.166  0.00  0.00    -0.009 C 
BRANCH  32  33
ATOM     33  C   UNL A   1      39.388 -19.223 -36.617  0.00  0.00    +0.059 A 
ATOM     34  C   UNL A   1      38.898 -18.573 -37.732  0.00  0.00    +0.072 A 
ATOM     35  N   UNL A   1      39.501 -19.053 -38.855  0.00  0.00    -0.138 NA
ATOM     36  N   UNL A   1      40.370 -19.981 -38.487  0.00  0.00    -0.065 NA
ATOM     37  N   UNL A   1      40.322 -20.078 -37.149  0.00  0.00    -0.247 N 
BRANCH  37  38
ATOM     38  C   UNL A   1      41.207 -21.007 -36.479  0.00  0.00    +0.059 C 
BRANCH  38  39
ATOM     39  C   UNL A   1      42.517 -21.174 -37.245  0.00  0.00    +0.029 C 
BRANCH  39  40
ATOM     40  N   UNL A   1      43.541 -20.171 -36.892  0.00  0.00    -0.341 N 
ATOM     41  H   UNL A   1      43.883 -20.083 -35.973  0.00  0.00    +0.000 HD
BRANCH  40  42
ATOM     42  C   UNL A   1      44.003 -19.341 -37.942  0.00  0.00    +0.041 A 
ATOM     43  C   UNL A   1      44.982 -19.814 -38.843  0.00  0.00    -0.005 A 
ATOM     44  C   UNL A   1      45.339 -18.985 -39.911  0.00  0.00    +0.047 A 
ATOM     45  N   UNL A   1      44.765 -17.780 -40.137  0.00  0.00    -0.251 NA
ATOM     46  C   UNL A   1      43.880 -17.306 -39.255  0.00  0.00    +0.073 A 
ATOM     47  C   UNL A   1      43.377 -16.027 -39.462  0.00  0.00    -0.036 A 
ATOM     48  C   UNL A   1      42.460 -15.441 -38.589  0.00  0.00    -0.060 A 
ATOM     49  C   UNL A   1      42.040 -16.144 -37.470  0.00  0.00    -0.061 A 
ATOM     50  C   UNL A   1      42.536 -17.428 -37.242  0.00  0.00    -0.051 A 
ATOM     51  C   UNL A   1      43.450 -18.043 -38.135  0.00  0.00    +0.021 A 
ATOM     52  C   UNL A   1      46.368 -19.398 -40.933  0.00  0.00    -0.010 C 
ATOM     53  C   UNL A   1      47.313 -20.484 -40.431  0.00  0.00    -0.047 C 
ATOM     54  C   UNL A   1      46.506 -21.620 -39.824  0.00  0.00    -0.049 C 
ATOM     55  C   UNL A   1      45.706 -21.124 -38.621  0.00  0.00    -0.024 C 
ENDBRANCH  40  42
ENDBRANCH  39  40
ENDBRANCH  38  39
ENDBRANCH  37  38
ENDBRANCH  32  33
ENDBRANCH  31  32
ENDBRANCH  30  31
ENDBRANCH  29  30
ENDBRANCH   1  29
TORSDOF 14
ENDMDL
