REMARK  Name = cpd164.pdb
REMARK  3 active torsions:
REMARK  status: ('A' for Active; 'I' for Inactive)
REMARK    1  A    between atoms: C_1  and  C_2
REMARK    2  A    between atoms: C_2  and  C_3
REMARK    3  A    between atoms: C_16  and  N_17
REMARK                            x       y       z     vdW  Elec       q    Type
REMARK                         _______ _______ _______ _____ _____    ______ ____
ROOT
ATOM      1  C   UNL A   1       2.176   0.960  -0.375  0.00  0.00    -0.073 C 
ATOM      2  C   UNL A   1       2.296  -0.360  -0.139  0.00  0.00    -0.081 C 
ATOM      3  C   UNL A   1       1.551  -1.074   0.968  0.00  0.00    -0.017 C 
ATOM      4  C   UNL A   1       0.307  -1.785   0.420  0.00  0.00    -0.004 C 
ATOM      5  C   UNL A   1      -0.881  -0.875   0.197  0.00  0.00    +0.048 A 
ATOM      6  N   UNL A   1      -1.935  -1.464  -0.416  0.00  0.00    -0.251 NA
ATOM      7  C   UNL A   1      -3.069  -0.772  -0.564  0.00  0.00    +0.074 A 
ATOM      8  C   UNL A   1      -4.148  -1.431  -1.134  0.00  0.00    -0.017 A 
ATOM      9  C   UNL A   1      -5.379  -0.802  -1.293  0.00  0.00    +0.043 A 
ATOM     10 CL   UNL A   1      -6.698  -1.657  -1.992  0.00  0.00    -0.083 Cl
ATOM     11  C   UNL A   1      -5.550   0.510  -0.880  0.00  0.00    -0.043 A 
ATOM     12  C   UNL A   1      -4.473   1.191  -0.313  0.00  0.00    -0.049 A 
ATOM     13  C   UNL A   1      -3.208   0.570  -0.152  0.00  0.00    +0.021 A 
ATOM     14  C   UNL A   1      -2.065   1.210   0.405  0.00  0.00    +0.039 A 
ATOM     15  C   UNL A   1      -0.907   0.447   0.660  0.00  0.00    -0.001 A 
ATOM     16  C   UNL A   1       0.303   1.021   1.391  0.00  0.00    -0.008 C 
ATOM     17  C   UNL A   1       1.223   1.819   0.436  0.00  0.00    -0.025 C 
ATOM     18  C   UNL A   1       1.116  -0.094   2.059  0.00  0.00    -0.039 C 
ENDROOT
BRANCH  14  19
ATOM     19  N   UNL A   1      -2.162   2.534   0.902  0.00  0.00    -0.357 N 
ATOM     20  H   UNL A   1      -2.970   3.068   0.725  0.00  0.00    +0.000 HD
ATOM     21  H   UNL A   1      -1.422   2.919   1.424  0.00  0.00    +0.000 HD
ENDBRANCH  14  19
BRANCH   1  23
ATOM     22  C   UNL A   1       4.003   2.605  -0.937  0.00  0.00    -0.062 C 
ATOM     23  C   UNL A   1       2.951   1.645  -1.475  0.00  0.00    -0.035 C 
ENDBRANCH   1  23
TORSDOF 2
