@<TRIPOS>MOLECULE
*****
 21 24 0 0 0
SMALL
GASTEIGER

@<TRIPOS>ATOM
      1 C           2.6844    2.0492    0.0000 C.3     1  UNL1        0.0047
      2 C           2.2511    1.2991    0.0000 C.3     1  UNL1        0.0217
      3 C           1.5007    0.8661    0.0000 C.2     1  UNL1       -0.0482
      4 C           1.5005   -0.0005    0.0000 C.2     1  UNL1       -0.0345
      5 C           0.7502   -0.4335    0.0000 C.3     1  UNL1        0.0276
      6 C           0.0000   -0.8664    0.0000 C.3     1  UNL1        0.0498
      7 C          -0.7504   -0.4330    0.0000 C.ar    1  UNL1        0.0566
      8 N          -1.5008   -0.8659    0.0000 N.ar    1  UNL1       -0.2499
      9 C          -2.2509   -0.4324    0.0000 C.ar    1  UNL1        0.0830
     10 C          -3.0013   -0.8653    0.0000 C.ar    1  UNL1        0.0305
     11 C          -3.7514   -0.4318    0.0000 C.ar    1  UNL1        0.0592
     12 CL         -4.5018   -0.8647    0.0000 Cl      1  UNL1       -0.0822
     13 C          -3.7510    0.4345    0.0000 C.ar    1  UNL1        0.0115
     14 C          -3.0006    0.8673    0.0000 C.ar    1  UNL1        0.0037
     15 C          -2.2505    0.4339    0.0000 C.ar    1  UNL1        0.0342
     16 C          -1.5001    0.8667    0.0000 C.ar    1  UNL1        0.0876
     17 N          -1.4998    1.7331    0.0000 N.pl3   1  UNL1       -0.1283
     18 C          -0.7500    0.4333    0.0000 C.ar    1  UNL1        0.0082
     19 C           0.0001    0.8662    0.0000 C.3     1  UNL1        0.0292
     20 C           0.7505    1.2992    0.0000 C.3     1  UNL1        0.0261
     21 C           0.0000   -0.0000    0.0000 C.3     1  UNL1        0.0095
@<TRIPOS>BOND
     1     1     2    1
     2     2     3    1
     3     3     4    2
     4     4     5    1
     5     5     6    1
     6     6     7    1
     7     7     8   ar
     8     8     9   ar
     9     9    10   ar
    10    10    11   ar
    11    11    12    1
    12    11    13   ar
    13    13    14   ar
    14    14    15   ar
    15     9    15   ar
    16    15    16   ar
    17    16    17    1
    18    16    18   ar
    19     7    18   ar
    20    18    19    1
    21    19    20    1
    22     3    20    1
    23    19    21    1
    24     5    21    1
