MODEL 1
REMARK VINA RESULT:    -8.513      0.000      0.000
REMARK INTER + INTRA:          -4.275
REMARK INTER:                 -11.001
REMARK INTRA:                   6.726
REMARK UNBOUND:                 6.726
REMARK  Name = cpd367.pdb
REMARK  12 active torsions:
REMARK  status: ('A' for Active; 'I' for Inactive)
REMARK    1  A    between atoms: C_1  and  C_2
REMARK    2  A    between atoms: C_2  and  N_3
REMARK    3  A    between atoms: N_3  and  C_4
REMARK    4  A    between atoms: N_3  and  C_5
REMARK    5  A    between atoms: N_3  and  C_7
REMARK    6  A    between atoms: C_5  and  C_6
REMARK    7  A    between atoms: C_7  and  C_8
REMARK    8  A    between atoms: C_8  and  C_9
REMARK    9  A    between atoms: C_9  and  N_10
REMARK   10  A    between atoms: C_11  and  C_12
REMARK   11  A    between atoms: C_20  and  N_21
REMARK   12  A    between atoms: C_28  and  N_29
REMARK                            x       y       z     vdW  Elec       q    Type
REMARK                         _______ _______ _______ _____ _____    ______ ____
ROOT
ATOM      1  N   UNL     1      34.671 -36.555 -30.137  0.00  0.00    -0.339 N 
ATOM      2  C   UNL     1      35.889 -37.111 -30.441  0.00  0.00    +0.057 A 
ATOM      3  C   UNL     1      36.981 -36.313 -30.850  0.00  0.00    +0.009 A 
ATOM      4  C   UNL     1      38.247 -36.869 -31.184  0.00  0.00    -0.031 A 
ATOM      5  C   UNL     1      39.328 -36.094 -31.603  0.00  0.00    +0.025 A 
ATOM      6  C   UNL     1      39.116 -34.740 -31.793  0.00  0.00    -0.040 A 
ATOM      7  C   UNL     1      37.894 -34.160 -31.443  0.00  0.00    -0.052 A 
ATOM      8  C   UNL     1      36.810 -34.920 -30.938  0.00  0.00    -0.007 A 
ATOM      9  C   UNL     1      35.591 -34.350 -30.474  0.00  0.00    +0.006 A 
ATOM     10  C   UNL     1      35.341 -32.956 -30.466  0.00  0.00    -0.050 A 
ATOM     11  C   UNL     1      34.178 -32.412 -29.919  0.00  0.00    -0.040 A 
ATOM     12  C   UNL     1      33.267 -33.222 -29.266  0.00  0.00    +0.027 A 
ATOM     13  C   UNL     1      33.466 -34.602 -29.313  0.00  0.00    -0.017 A 
ATOM     14  C   UNL     1      34.571 -35.194 -29.966  0.00  0.00    +0.052 A 
ENDROOT
BRANCH   2  15
ATOM     15  C   UNL     1      36.013 -38.564 -30.241  0.00  0.00    -0.001 A 
ATOM     16  C   UNL     1      36.417 -39.071 -28.991  0.00  0.00    -0.053 A 
ATOM     17  C   UNL     1      36.516 -40.446 -28.779  0.00  0.00    -0.061 A 
ATOM     18  C   UNL     1      36.223 -41.332 -29.812  0.00  0.00    -0.062 A 
ATOM     19  C   UNL     1      35.841 -40.848 -31.062  0.00  0.00    -0.061 A 
ATOM     20  C   UNL     1      35.737 -39.473 -31.279  0.00  0.00    -0.053 A 
ENDBRANCH   2  15
BRANCH   5  21
ATOM     21  N   UNL     1      40.499 -36.701 -32.052  0.00  0.00    -0.358 N 
ATOM     22  H   UNL     1      40.458 -37.392 -32.751  0.00  0.00    +0.000 HD
ATOM     23  H   UNL     1      41.367 -36.438 -31.670  0.00  0.00    +0.000 HD
ENDBRANCH   5  21
BRANCH  12  24
ATOM     24  N   UNL     1      32.059 -32.704 -28.804  0.00  0.00    -0.358 N 
ATOM     25  H   UNL     1      31.494 -33.237 -28.198  0.00  0.00    +0.000 HD
ATOM     26  H   UNL     1      31.769 -31.806 -29.083  0.00  0.00    +0.000 HD
ENDBRANCH  12  24
BRANCH   1  27
ATOM     27  C   UNL     1      33.461 -37.442 -29.949  0.00  0.00    +0.022 C 
BRANCH  27  28
ATOM     28  C   UNL     1      32.703 -37.809 -31.244  0.00  0.00    -0.049 C 
BRANCH  28  29
ATOM     29  C   UNL     1      31.975 -36.489 -32.164  0.00  0.00    -0.087 C 
BRANCH  29  30
ATOM     30  N   UNL     1      31.947 -36.605 -33.156  0.00  0.00    +0.378 N 
ATOM     31  C   UNL     1      31.918 -36.722 -34.149  0.00  0.00    -0.100 C 
BRANCH  30  33
ATOM     32  C   UNL     1      33.140 -34.567 -33.232  0.00  0.00    -0.080 C 
ATOM     33  C   UNL     1      32.879 -36.250 -33.225  0.00  0.00    -0.091 C 
ENDBRANCH  30  33
BRANCH  30  34
ATOM     34  C   UNL     1      31.015 -36.961 -33.088  0.00  0.00    -0.091 C 
ATOM     35  C   UNL     1      29.691 -35.921 -33.343  0.00  0.00    -0.080 C 
ENDBRANCH  30  34
ENDBRANCH  29  30
ENDBRANCH  28  29
ENDBRANCH  27  28
ENDBRANCH   1  27
TORSDOF 9
ENDMDL
MODEL 2
REMARK VINA RESULT:    -8.160      2.797      6.195
REMARK INTER + INTRA:          -3.819
REMARK INTER:                 -10.577
REMARK INTRA:                   6.758
REMARK UNBOUND:                 6.726
REMARK  Name = cpd367.pdb
REMARK  12 active torsions:
REMARK  status: ('A' for Active; 'I' for Inactive)
REMARK    1  A    between atoms: C_1  and  C_2
REMARK    2  A    between atoms: C_2  and  N_3
REMARK    3  A    between atoms: N_3  and  C_4
REMARK    4  A    between atoms: N_3  and  C_5
REMARK    5  A    between atoms: N_3  and  C_7
REMARK    6  A    between atoms: C_5  and  C_6
REMARK    7  A    between atoms: C_7  and  C_8
REMARK    8  A    between atoms: C_8  and  C_9
REMARK    9  A    between atoms: C_9  and  N_10
REMARK   10  A    between atoms: C_11  and  C_12
REMARK   11  A    between atoms: C_20  and  N_21
REMARK   12  A    between atoms: C_28  and  N_29
REMARK                            x       y       z     vdW  Elec       q    Type
REMARK                         _______ _______ _______ _____ _____    ______ ____
ROOT
ATOM      1  N   UNL     1      34.717 -36.653 -29.388  0.00  0.00    -0.339 N 
ATOM      2  C   UNL     1      35.371 -35.652 -30.065  0.00  0.00    +0.057 A 
ATOM      3  C   UNL     1      36.728 -35.781 -30.438  0.00  0.00    +0.009 A 
ATOM      4  C   UNL     1      37.428 -34.752 -31.126  0.00  0.00    -0.031 A 
ATOM      5  C   UNL     1      38.771 -34.861 -31.487  0.00  0.00    +0.025 A 
ATOM      6  C   UNL     1      39.464 -35.980 -31.063  0.00  0.00    -0.040 A 
ATOM      7  C   UNL     1      38.797 -37.022 -30.414  0.00  0.00    -0.052 A 
ATOM      8  C   UNL     1      37.413 -36.964 -30.111  0.00  0.00    -0.007 A 
ATOM      9  C   UNL     1      36.680 -38.047 -29.548  0.00  0.00    +0.006 A 
ATOM     10  C   UNL     1      37.264 -39.298 -29.236  0.00  0.00    -0.050 A 
ATOM     11  C   UNL     1      36.508 -40.377 -28.773  0.00  0.00    -0.040 A 
ATOM     12  C   UNL     1      35.130 -40.285 -28.701  0.00  0.00    +0.027 A 
ATOM     13  C   UNL     1      34.542 -39.045 -28.948  0.00  0.00    -0.017 A 
ATOM     14  C   UNL     1      35.293 -37.899 -29.300  0.00  0.00    +0.052 A 
ENDROOT
BRANCH   2  15
ATOM     15  C   UNL     1      34.561 -34.483 -30.445  0.00  0.00    -0.001 A 
ATOM     16  C   UNL     1      34.542 -33.342 -29.620  0.00  0.00    -0.053 A 
ATOM     17  C   UNL     1      33.799 -32.218 -29.979  0.00  0.00    -0.061 A 
ATOM     18  C   UNL     1      33.059 -32.220 -31.157  0.00  0.00    -0.062 A 
ATOM     19  C   UNL     1      33.049 -33.348 -31.976  0.00  0.00    -0.061 A 
ATOM     20  C   UNL     1      33.794 -34.476 -31.624  0.00  0.00    -0.053 A 
ENDBRANCH   2  15
BRANCH   5  21
ATOM     21  N   UNL     1      39.445 -33.771 -32.032  0.00  0.00    -0.358 N 
ATOM     22  H   UNL     1      40.086 -33.264 -31.483  0.00  0.00    +0.000 HD
ATOM     23  H   UNL     1      39.281 -33.507 -32.967  0.00  0.00    +0.000 HD
ENDBRANCH   5  21
BRANCH  12  24
ATOM     24  N   UNL     1      34.377 -41.319 -28.148  0.00  0.00    -0.358 N 
ATOM     25  H   UNL     1      34.619 -41.690 -27.269  0.00  0.00    +0.000 HD
ATOM     26  H   UNL     1      33.602 -41.680 -28.637  0.00  0.00    +0.000 HD
ENDBRANCH  12  24
BRANCH   1  27
ATOM     27  C   UNL     1      33.356 -36.392 -28.784  0.00  0.00    +0.022 C 
BRANCH  27  28
ATOM     28  C   UNL     1      33.362 -35.963 -27.299  0.00  0.00    -0.049 C 
BRANCH  28  29
ATOM     29  C   UNL     1      32.956 -37.190 -26.096  0.00  0.00    -0.087 C 
BRANCH  29  30
ATOM     30  N   UNL     1      33.424 -37.117 -25.216  0.00  0.00    +0.378 N 
ATOM     31  C   UNL     1      33.893 -37.043 -24.335  0.00  0.00    -0.100 C 
BRANCH  30  33
ATOM     32  C   UNL     1      33.621 -39.471 -25.186  0.00  0.00    -0.080 C 
ATOM     33  C   UNL     1      34.048 -37.850 -25.486  0.00  0.00    -0.091 C 
ENDBRANCH  30  33
BRANCH  30  34
ATOM     34  C   UNL     1      32.801 -36.383 -24.945  0.00  0.00    -0.091 C 
ATOM     35  C   UNL     1      31.352 -36.759 -24.134  0.00  0.00    -0.080 C 
ENDBRANCH  30  34
ENDBRANCH  29  30
ENDBRANCH  28  29
ENDBRANCH  27  28
ENDBRANCH   1  27
TORSDOF 9
ENDMDL
MODEL 3
REMARK VINA RESULT:    -8.055      1.304      1.747
REMARK INTER + INTRA:          -3.683
REMARK INTER:                 -10.541
REMARK INTRA:                   6.857
REMARK UNBOUND:                 6.726
REMARK  Name = cpd367.pdb
REMARK  12 active torsions:
REMARK  status: ('A' for Active; 'I' for Inactive)
REMARK    1  A    between atoms: C_1  and  C_2
REMARK    2  A    between atoms: C_2  and  N_3
REMARK    3  A    between atoms: N_3  and  C_4
REMARK    4  A    between atoms: N_3  and  C_5
REMARK    5  A    between atoms: N_3  and  C_7
REMARK    6  A    between atoms: C_5  and  C_6
REMARK    7  A    between atoms: C_7  and  C_8
REMARK    8  A    between atoms: C_8  and  C_9
REMARK    9  A    between atoms: C_9  and  N_10
REMARK   10  A    between atoms: C_11  and  C_12
REMARK   11  A    between atoms: C_20  and  N_21
REMARK   12  A    between atoms: C_28  and  N_29
REMARK                            x       y       z     vdW  Elec       q    Type
REMARK                         _______ _______ _______ _____ _____    ______ ____
ROOT
ATOM      1  N   UNL     1      34.874 -36.466 -30.235  0.00  0.00    -0.339 N 
ATOM      2  C   UNL     1      36.088 -37.063 -30.473  0.00  0.00    +0.057 A 
ATOM      3  C   UNL     1      37.203 -36.314 -30.914  0.00  0.00    +0.009 A 
ATOM      4  C   UNL     1      38.464 -36.914 -31.180  0.00  0.00    -0.031 A 
ATOM      5  C   UNL     1      39.567 -36.189 -31.630  0.00  0.00    +0.025 A 
ATOM      6  C   UNL     1      39.384 -34.849 -31.919  0.00  0.00    -0.040 A 
ATOM      7  C   UNL     1      38.167 -34.224 -31.636  0.00  0.00    -0.052 A 
ATOM      8  C   UNL     1      37.059 -34.929 -31.103  0.00  0.00    -0.007 A 
ATOM      9  C   UNL     1      35.841 -34.306 -30.706  0.00  0.00    +0.006 A 
ATOM     10  C   UNL     1      35.617 -32.912 -30.801  0.00  0.00    -0.050 A 
ATOM     11  C   UNL     1      34.454 -32.310 -30.318  0.00  0.00    -0.040 A 
ATOM     12  C   UNL     1      33.516 -33.057 -29.630  0.00  0.00    +0.027 A 
ATOM     13  C   UNL     1      33.690 -34.440 -29.575  0.00  0.00    -0.017 A 
ATOM     14  C   UNL     1      34.796 -35.095 -30.162  0.00  0.00    +0.052 A 
ENDROOT
BRANCH   2  15
ATOM     15  C   UNL     1      36.180 -38.500 -30.169  0.00  0.00    -0.001 A 
ATOM     16  C   UNL     1      36.588 -38.925 -28.890  0.00  0.00    -0.053 A 
ATOM     17  C   UNL     1      36.658 -40.283 -28.580  0.00  0.00    -0.061 A 
ATOM     18  C   UNL     1      36.332 -41.234 -29.542  0.00  0.00    -0.062 A 
ATOM     19  C   UNL     1      35.947 -40.833 -30.820  0.00  0.00    -0.061 A 
ATOM     20  C   UNL     1      35.872 -39.475 -31.136  0.00  0.00    -0.053 A 
ENDBRANCH   2  15
BRANCH   5  21
ATOM     21  N   UNL     1      40.735 -36.846 -32.010  0.00  0.00    -0.358 N 
ATOM     22  H   UNL     1      41.109 -36.705 -32.910  0.00  0.00    +0.000 HD
ATOM     23  H   UNL     1      41.188 -37.451 -31.379  0.00  0.00    +0.000 HD
ENDBRANCH   5  21
BRANCH  12  24
ATOM     24  N   UNL     1      32.307 -32.487 -29.231  0.00  0.00    -0.358 N 
ATOM     25  H   UNL     1      31.646 -33.028 -28.743  0.00  0.00    +0.000 HD
ATOM     26  H   UNL     1      32.116 -31.544 -29.437  0.00  0.00    +0.000 HD
ENDBRANCH  12  24
BRANCH   1  27
ATOM     27  C   UNL     1      33.645 -37.317 -30.011  0.00  0.00    +0.022 C 
BRANCH  27  28
ATOM     28  C   UNL     1      32.691 -37.432 -31.221  0.00  0.00    -0.049 C 
BRANCH  28  29
ATOM     29  C   UNL     1      32.431 -39.039 -31.904  0.00  0.00    -0.087 C 
BRANCH  29  30
ATOM     30  N   UNL     1      31.977 -39.072 -32.794  0.00  0.00    +0.378 N 
ATOM     31  C   UNL     1      31.522 -39.106 -33.684  0.00  0.00    -0.100 C 
BRANCH  30  33
ATOM     32  C   UNL     1      33.532 -40.580 -33.737  0.00  0.00    -0.080 C 
ATOM     33  C   UNL     1      32.867 -39.091 -33.248  0.00  0.00    -0.091 C 
ENDBRANCH  30  33
BRANCH  30  34
ATOM     34  C   UNL     1      31.086 -39.054 -32.340  0.00  0.00    -0.091 C 
ATOM     35  C   UNL     1      30.312 -40.515 -31.932  0.00  0.00    -0.080 C 
ENDBRANCH  30  34
ENDBRANCH  29  30
ENDBRANCH  28  29
ENDBRANCH  27  28
ENDBRANCH   1  27
TORSDOF 9
ENDMDL
MODEL 4
REMARK VINA RESULT:    -7.927      1.910      3.591
REMARK INTER + INTRA:          -3.518
REMARK INTER:                 -10.908
REMARK INTRA:                   7.390
REMARK UNBOUND:                 6.726
REMARK  Name = cpd367.pdb
REMARK  12 active torsions:
REMARK  status: ('A' for Active; 'I' for Inactive)
REMARK    1  A    between atoms: C_1  and  C_2
REMARK    2  A    between atoms: C_2  and  N_3
REMARK    3  A    between atoms: N_3  and  C_4
REMARK    4  A    between atoms: N_3  and  C_5
REMARK    5  A    between atoms: N_3  and  C_7
REMARK    6  A    between atoms: C_5  and  C_6
REMARK    7  A    between atoms: C_7  and  C_8
REMARK    8  A    between atoms: C_8  and  C_9
REMARK    9  A    between atoms: C_9  and  N_10
REMARK   10  A    between atoms: C_11  and  C_12
REMARK   11  A    between atoms: C_20  and  N_21
REMARK   12  A    between atoms: C_28  and  N_29
REMARK                            x       y       z     vdW  Elec       q    Type
REMARK                         _______ _______ _______ _____ _____    ______ ____
ROOT
ATOM      1  N   UNL     1      34.804 -36.474 -30.302  0.00  0.00    -0.339 N 
ATOM      2  C   UNL     1      36.022 -37.057 -30.556  0.00  0.00    +0.057 A 
ATOM      3  C   UNL     1      37.138 -36.286 -30.955  0.00  0.00    +0.009 A 
ATOM      4  C   UNL     1      38.404 -36.869 -31.236  0.00  0.00    -0.031 A 
ATOM      5  C   UNL     1      39.508 -36.121 -31.644  0.00  0.00    +0.025 A 
ATOM      6  C   UNL     1      39.322 -34.770 -31.877  0.00  0.00    -0.040 A 
ATOM      7  C   UNL     1      38.100 -34.163 -31.578  0.00  0.00    -0.052 A 
ATOM      8  C   UNL     1      36.990 -34.894 -31.084  0.00  0.00    -0.007 A 
ATOM      9  C   UNL     1      35.767 -34.293 -30.671  0.00  0.00    +0.006 A 
ATOM     10  C   UNL     1      35.538 -32.896 -30.709  0.00  0.00    -0.050 A 
ATOM     11  C   UNL     1      34.369 -32.320 -30.210  0.00  0.00    -0.040 A 
ATOM     12  C   UNL     1      33.427 -33.099 -29.563  0.00  0.00    +0.027 A 
ATOM     13  C   UNL     1      33.606 -34.483 -29.566  0.00  0.00    -0.017 A 
ATOM     14  C   UNL     1      34.721 -35.108 -30.172  0.00  0.00    +0.052 A 
ENDROOT
BRANCH   2  15
ATOM     15  C   UNL     1      36.118 -38.505 -30.314  0.00  0.00    -0.001 A 
ATOM     16  C   UNL     1      36.666 -38.983 -29.108  0.00  0.00    -0.053 A 
ATOM     17  C   UNL     1      36.741 -40.352 -28.853  0.00  0.00    -0.061 A 
ATOM     18  C   UNL     1      36.281 -41.262 -29.801  0.00  0.00    -0.062 A 
ATOM     19  C   UNL     1      35.755 -40.809 -31.010  0.00  0.00    -0.061 A 
ATOM     20  C   UNL     1      35.674 -39.438 -31.268  0.00  0.00    -0.053 A 
ENDBRANCH   2  15
BRANCH   5  21
ATOM     21  N   UNL     1      40.682 -36.757 -32.043  0.00  0.00    -0.358 N 
ATOM     22  H   UNL     1      41.547 -36.470 -31.672  0.00  0.00    +0.000 HD
ATOM     23  H   UNL     1      40.646 -37.493 -32.696  0.00  0.00    +0.000 HD
ENDBRANCH   5  21
BRANCH  12  24
ATOM     24  N   UNL     1      32.214 -32.552 -29.150  0.00  0.00    -0.358 N 
ATOM     25  H   UNL     1      32.202 -31.710 -28.639  0.00  0.00    +0.000 HD
ATOM     26  H   UNL     1      31.369 -33.006 -29.369  0.00  0.00    +0.000 HD
ENDBRANCH  12  24
BRANCH   1  27
ATOM     27  C   UNL     1      33.576 -37.339 -30.126  0.00  0.00    +0.022 C 
BRANCH  27  28
ATOM     28  C   UNL     1      32.948 -37.316 -28.715  0.00  0.00    -0.049 C 
BRANCH  28  29
ATOM     29  C   UNL     1      33.500 -38.530 -27.558  0.00  0.00    -0.087 C 
BRANCH  29  30
ATOM     30  N   UNL     1      32.820 -38.855 -26.901  0.00  0.00    +0.378 N 
ATOM     31  C   UNL     1      32.139 -39.180 -26.244  0.00  0.00    -0.100 C 
BRANCH  30  33
ATOM     32  C   UNL     1      34.175 -37.838 -25.254  0.00  0.00    -0.080 C 
ATOM     33  C   UNL     1      32.912 -38.004 -26.384  0.00  0.00    -0.091 C 
ENDBRANCH  30  33
BRANCH  30  34
ATOM     34  C   UNL     1      32.727 -39.705 -27.418  0.00  0.00    -0.091 C 
ATOM     35  C   UNL     1      33.678 -41.056 -27.005  0.00  0.00    -0.080 C 
ENDBRANCH  30  34
ENDBRANCH  29  30
ENDBRANCH  28  29
ENDBRANCH  27  28
ENDBRANCH   1  27
TORSDOF 9
ENDMDL
MODEL 5
REMARK VINA RESULT:    -7.836      1.998      3.360
REMARK INTER + INTRA:          -3.401
REMARK INTER:                 -10.594
REMARK INTRA:                   7.194
REMARK UNBOUND:                 6.726
REMARK  Name = cpd367.pdb
REMARK  12 active torsions:
REMARK  status: ('A' for Active; 'I' for Inactive)
REMARK    1  A    between atoms: C_1  and  C_2
REMARK    2  A    between atoms: C_2  and  N_3
REMARK    3  A    between atoms: N_3  and  C_4
REMARK    4  A    between atoms: N_3  and  C_5
REMARK    5  A    between atoms: N_3  and  C_7
REMARK    6  A    between atoms: C_5  and  C_6
REMARK    7  A    between atoms: C_7  and  C_8
REMARK    8  A    between atoms: C_8  and  C_9
REMARK    9  A    between atoms: C_9  and  N_10
REMARK   10  A    between atoms: C_11  and  C_12
REMARK   11  A    between atoms: C_20  and  N_21
REMARK   12  A    between atoms: C_28  and  N_29
REMARK                            x       y       z     vdW  Elec       q    Type
REMARK                         _______ _______ _______ _____ _____    ______ ____
ROOT
ATOM      1  N   UNL     1      34.821 -36.498 -30.152  0.00  0.00    -0.339 N 
ATOM      2  C   UNL     1      36.033 -37.070 -30.457  0.00  0.00    +0.057 A 
ATOM      3  C   UNL     1      37.115 -36.293 -30.929  0.00  0.00    +0.009 A 
ATOM      4  C   UNL     1      38.373 -36.866 -31.264  0.00  0.00    -0.031 A 
ATOM      5  C   UNL     1      39.443 -36.113 -31.745  0.00  0.00    +0.025 A 
ATOM      6  C   UNL     1      39.227 -34.769 -31.995  0.00  0.00    -0.040 A 
ATOM      7  C   UNL     1      38.013 -34.172 -31.646  0.00  0.00    -0.052 A 
ATOM      8  C   UNL     1      36.941 -34.906 -31.080  0.00  0.00    -0.007 A 
ATOM      9  C   UNL     1      35.733 -34.313 -30.616  0.00  0.00    +0.006 A 
ATOM     10  C   UNL     1      35.483 -32.920 -30.670  0.00  0.00    -0.050 A 
ATOM     11  C   UNL     1      34.333 -32.349 -30.123  0.00  0.00    -0.040 A 
ATOM     12  C   UNL     1      33.438 -33.126 -29.411  0.00  0.00    +0.027 A 
ATOM     13  C   UNL     1      33.636 -34.507 -29.396  0.00  0.00    -0.017 A 
ATOM     14  C   UNL     1      34.726 -35.130 -30.045  0.00  0.00    +0.052 A 
ENDROOT
BRANCH   2  15
ATOM     15  C   UNL     1      36.161 -38.511 -30.190  0.00  0.00    -0.001 A 
ATOM     16  C   UNL     1      36.750 -38.955 -28.990  0.00  0.00    -0.053 A 
ATOM     17  C   UNL     1      36.857 -40.318 -28.712  0.00  0.00    -0.061 A 
ATOM     18  C   UNL     1      36.389 -41.254 -29.630  0.00  0.00    -0.062 A 
ATOM     19  C   UNL     1      35.823 -40.834 -30.832  0.00  0.00    -0.061 A 
ATOM     20  C   UNL     1      35.709 -39.470 -31.114  0.00  0.00    -0.053 A 
ENDBRANCH   2  15
BRANCH   5  21
ATOM     21  N   UNL     1      40.604 -36.741 -32.191  0.00  0.00    -0.358 N 
ATOM     22  H   UNL     1      41.450 -36.240 -32.232  0.00  0.00    +0.000 HD
ATOM     23  H   UNL     1      40.578 -37.686 -32.466  0.00  0.00    +0.000 HD
ENDBRANCH   5  21
BRANCH  12  24
ATOM     24  N   UNL     1      32.239 -32.585 -28.947  0.00  0.00    -0.358 N 
ATOM     25  H   UNL     1      31.494 -33.180 -28.700  0.00  0.00    +0.000 HD
ATOM     26  H   UNL     1      32.138 -31.610 -28.865  0.00  0.00    +0.000 HD
ENDBRANCH  12  24
BRANCH   1  27
ATOM     27  C   UNL     1      33.617 -37.374 -29.894  0.00  0.00    +0.022 C 
BRANCH  27  28
ATOM     28  C   UNL     1      33.409 -37.798 -28.423  0.00  0.00    -0.049 C 
BRANCH  28  29
ATOM     29  C   UNL     1      31.873 -37.375 -27.662  0.00  0.00    -0.087 C 
BRANCH  29  30
ATOM     30  N   UNL     1      31.862 -37.370 -26.662  0.00  0.00    +0.378 N 
ATOM     31  C   UNL     1      31.851 -37.366 -25.662  0.00  0.00    -0.100 C 
BRANCH  30  33
ATOM     32  C   UNL     1      30.094 -38.937 -26.650  0.00  0.00    -0.080 C 
ATOM     33  C   UNL     1      31.694 -38.356 -26.660  0.00  0.00    -0.091 C 
ENDBRANCH  30  33
BRANCH  30  34
ATOM     34  C   UNL     1      32.030 -36.385 -26.665  0.00  0.00    -0.091 C 
ATOM     35  C   UNL     1      30.774 -35.312 -27.078  0.00  0.00    -0.080 C 
ENDBRANCH  30  34
ENDBRANCH  29  30
ENDBRANCH  28  29
ENDBRANCH  27  28
ENDBRANCH   1  27
TORSDOF 9
ENDMDL
MODEL 6
REMARK VINA RESULT:    -7.663      2.725      4.920
REMARK INTER + INTRA:          -3.178
REMARK INTER:                 -11.197
REMARK INTRA:                   8.019
REMARK UNBOUND:                 6.726
REMARK  Name = cpd367.pdb
REMARK  12 active torsions:
REMARK  status: ('A' for Active; 'I' for Inactive)
REMARK    1  A    between atoms: C_1  and  C_2
REMARK    2  A    between atoms: C_2  and  N_3
REMARK    3  A    between atoms: N_3  and  C_4
REMARK    4  A    between atoms: N_3  and  C_5
REMARK    5  A    between atoms: N_3  and  C_7
REMARK    6  A    between atoms: C_5  and  C_6
REMARK    7  A    between atoms: C_7  and  C_8
REMARK    8  A    between atoms: C_8  and  C_9
REMARK    9  A    between atoms: C_9  and  N_10
REMARK   10  A    between atoms: C_11  and  C_12
REMARK   11  A    between atoms: C_20  and  N_21
REMARK   12  A    between atoms: C_28  and  N_29
REMARK                            x       y       z     vdW  Elec       q    Type
REMARK                         _______ _______ _______ _____ _____    ______ ____
ROOT
ATOM      1  N   UNL     1      36.256 -37.265 -28.969  0.00  0.00    -0.339 N 
ATOM      2  C   UNL     1      36.548 -36.203 -29.790  0.00  0.00    +0.057 A 
ATOM      3  C   UNL     1      35.702 -35.072 -29.859  0.00  0.00    +0.009 A 
ATOM      4  C   UNL     1      35.978 -33.968 -30.711  0.00  0.00    -0.031 A 
ATOM      5  C   UNL     1      35.144 -32.854 -30.800  0.00  0.00    +0.025 A 
ATOM      6  C   UNL     1      33.952 -32.882 -30.098  0.00  0.00    -0.040 A 
ATOM      7  C   UNL     1      33.669 -33.937 -29.227  0.00  0.00    -0.052 A 
ATOM      8  C   UNL     1      34.544 -35.040 -29.063  0.00  0.00    -0.007 A 
ATOM      9  C   UNL     1      34.339 -36.078 -28.110  0.00  0.00    +0.006 A 
ATOM     10  C   UNL     1      33.236 -36.109 -27.223  0.00  0.00    -0.050 A 
ATOM     11  C   UNL     1      33.104 -37.084 -26.233  0.00  0.00    -0.040 A 
ATOM     12  C   UNL     1      34.114 -38.004 -26.019  0.00  0.00    +0.027 A 
ATOM     13  C   UNL     1      35.181 -38.026 -26.918  0.00  0.00    -0.017 A 
ATOM     14  C   UNL     1      35.283 -37.130 -28.007  0.00  0.00    +0.052 A 
ENDROOT
BRANCH   2  15
ATOM     15  C   UNL     1      37.821 -36.275 -30.525  0.00  0.00    -0.001 A 
ATOM     16  C   UNL     1      38.977 -36.761 -29.884  0.00  0.00    -0.053 A 
ATOM     17  C   UNL     1      40.185 -36.858 -30.575  0.00  0.00    -0.061 A 
ATOM     18  C   UNL     1      40.259 -36.461 -31.907  0.00  0.00    -0.062 A 
ATOM     19  C   UNL     1      39.130 -35.957 -32.551  0.00  0.00    -0.061 A 
ATOM     20  C   UNL     1      37.917 -35.862 -31.866  0.00  0.00    -0.053 A 
ENDBRANCH   2  15
BRANCH   5  21
ATOM     21  N   UNL     1      35.385 -31.866 -31.752  0.00  0.00    -0.358 N 
ATOM     22  H   UNL     1      34.861 -31.848 -32.586  0.00  0.00    +0.000 HD
ATOM     23  H   UNL     1      36.079 -31.186 -31.592  0.00  0.00    +0.000 HD
ENDBRANCH   5  21
BRANCH  12  24
ATOM     24  N   UNL     1      33.950 -39.040 -25.101  0.00  0.00    -0.358 N 
ATOM     25  H   UNL     1      33.423 -38.893 -24.283  0.00  0.00    +0.000 HD
ATOM     26  H   UNL     1      34.361 -39.918 -25.272  0.00  0.00    +0.000 HD
ENDBRANCH  12  24
BRANCH   1  27
ATOM     27  C   UNL     1      37.032 -38.556 -29.101  0.00  0.00    +0.022 C 
BRANCH  27  28
ATOM     28  C   UNL     1      36.547 -39.509 -30.217  0.00  0.00    -0.049 C 
BRANCH  28  29
ATOM     29  C   UNL     1      34.815 -39.548 -30.558  0.00  0.00    -0.087 C 
BRANCH  29  30
ATOM     30  N   UNL     1      34.402 -40.455 -30.639  0.00  0.00    +0.378 N 
ATOM     31  C   UNL     1      33.988 -41.362 -30.720  0.00  0.00    -0.100 C 
BRANCH  30  33
ATOM     32  C   UNL     1      33.911 -40.140 -32.929  0.00  0.00    -0.080 C 
ATOM     33  C   UNL     1      34.810 -40.560 -31.545  0.00  0.00    -0.091 C 
ENDBRANCH  30  33
BRANCH  30  34
ATOM     34  C   UNL     1      33.993 -40.350 -29.732  0.00  0.00    -0.091 C 
ATOM     35  C   UNL     1      32.626 -39.355 -29.530  0.00  0.00    -0.080 C 
ENDBRANCH  30  34
ENDBRANCH  29  30
ENDBRANCH  28  29
ENDBRANCH  27  28
ENDBRANCH   1  27
TORSDOF 9
ENDMDL
MODEL 7
REMARK VINA RESULT:    -7.633     16.470     19.757
REMARK INTER + INTRA:          -3.138
REMARK INTER:                  -9.933
REMARK INTRA:                   6.794
REMARK UNBOUND:                 6.726
REMARK  Name = cpd367.pdb
REMARK  12 active torsions:
REMARK  status: ('A' for Active; 'I' for Inactive)
REMARK    1  A    between atoms: C_1  and  C_2
REMARK    2  A    between atoms: C_2  and  N_3
REMARK    3  A    between atoms: N_3  and  C_4
REMARK    4  A    between atoms: N_3  and  C_5
REMARK    5  A    between atoms: N_3  and  C_7
REMARK    6  A    between atoms: C_5  and  C_6
REMARK    7  A    between atoms: C_7  and  C_8
REMARK    8  A    between atoms: C_8  and  C_9
REMARK    9  A    between atoms: C_9  and  N_10
REMARK   10  A    between atoms: C_11  and  C_12
REMARK   11  A    between atoms: C_20  and  N_21
REMARK   12  A    between atoms: C_28  and  N_29
REMARK                            x       y       z     vdW  Elec       q    Type
REMARK                         _______ _______ _______ _____ _____    ______ ____
ROOT
ATOM      1  N   UNL     1      43.767 -19.847 -37.161  0.00  0.00    -0.339 N 
ATOM      2  C   UNL     1      45.094 -19.959 -37.500  0.00  0.00    +0.057 A 
ATOM      3  C   UNL     1      45.500 -20.654 -38.662  0.00  0.00    +0.009 A 
ATOM      4  C   UNL     1      46.868 -20.794 -39.024  0.00  0.00    -0.031 A 
ATOM      5  C   UNL     1      47.283 -21.489 -40.159  0.00  0.00    +0.025 A 
ATOM      6  C   UNL     1      46.319 -22.149 -40.900  0.00  0.00    -0.040 A 
ATOM      7  C   UNL     1      44.965 -22.002 -40.589  0.00  0.00    -0.052 A 
ATOM      8  C   UNL     1      44.519 -21.233 -39.486  0.00  0.00    -0.007 A 
ATOM      9  C   UNL     1      43.148 -20.977 -39.201  0.00  0.00    +0.006 A 
ATOM     10  C   UNL     1      42.087 -21.466 -40.001  0.00  0.00    -0.050 A 
ATOM     11  C   UNL     1      40.755 -21.124 -39.759  0.00  0.00    -0.040 A 
ATOM     12  C   UNL     1      40.437 -20.202 -38.779  0.00  0.00    +0.027 A 
ATOM     13  C   UNL     1      41.460 -19.754 -37.944  0.00  0.00    -0.017 A 
ATOM     14  C   UNL     1      42.802 -20.176 -38.084  0.00  0.00    +0.052 A 
ENDROOT
BRANCH   2  15
ATOM     15  C   UNL     1      46.051 -19.252 -36.634  0.00  0.00    -0.001 A 
ATOM     16  C   UNL     1      46.766 -19.962 -35.650  0.00  0.00    -0.053 A 
ATOM     17  C   UNL     1      47.695 -19.311 -34.838  0.00  0.00    -0.061 A 
ATOM     18  C   UNL     1      47.915 -17.945 -34.989  0.00  0.00    -0.062 A 
ATOM     19  C   UNL     1      47.201 -17.222 -35.944  0.00  0.00    -0.061 A 
ATOM     20  C   UNL     1      46.273 -17.869 -36.762  0.00  0.00    -0.053 A 
ENDBRANCH   2  15
BRANCH   5  21
ATOM     21  N   UNL     1      48.638 -21.717 -40.391  0.00  0.00    -0.358 N 
ATOM     22  H   UNL     1      48.940 -22.031 -41.274  0.00  0.00    +0.000 HD
ATOM     23  H   UNL     1      49.293 -21.564 -39.672  0.00  0.00    +0.000 HD
ENDBRANCH   5  21
BRANCH  12  24
ATOM     24  N   UNL     1      39.106 -19.929 -38.464  0.00  0.00    -0.358 N 
ATOM     25  H   UNL     1      38.802 -18.997 -38.379  0.00  0.00    +0.000 HD
ATOM     26  H   UNL     1      38.471 -20.669 -38.327  0.00  0.00    +0.000 HD
ENDBRANCH  12  24
BRANCH   1  27
ATOM     27  C   UNL     1      43.378 -19.325 -35.796  0.00  0.00    +0.022 C 
BRANCH  27  28
ATOM     28  C   UNL     1      42.990 -20.404 -34.761  0.00  0.00    -0.049 C 
BRANCH  28  29
ATOM     29  C   UNL     1      41.285 -20.533 -34.320  0.00  0.00    -0.087 C 
BRANCH  29  30
ATOM     30  N   UNL     1      41.031 -21.327 -33.767  0.00  0.00    +0.378 N 
ATOM     31  C   UNL     1      40.778 -22.121 -33.215  0.00  0.00    -0.100 C 
BRANCH  30  33
ATOM     32  C   UNL     1      39.862 -19.909 -32.283  0.00  0.00    -0.080 C 
ATOM     33  C   UNL     1      41.165 -20.790 -32.935  0.00  0.00    -0.091 C 
ENDBRANCH  30  33
BRANCH  30  34
ATOM     34  C   UNL     1      40.897 -21.864 -34.600  0.00  0.00    -0.091 C 
ATOM     35  C   UNL     1      39.394 -21.828 -35.399  0.00  0.00    -0.080 C 
ENDBRANCH  30  34
ENDBRANCH  29  30
ENDBRANCH  28  29
ENDBRANCH  27  28
ENDBRANCH   1  27
TORSDOF 9
ENDMDL
MODEL 8
REMARK VINA RESULT:    -7.626      2.117      5.776
REMARK INTER + INTRA:          -3.129
REMARK INTER:                  -9.830
REMARK INTRA:                   6.701
REMARK UNBOUND:                 6.726
REMARK  Name = cpd367.pdb
REMARK  12 active torsions:
REMARK  status: ('A' for Active; 'I' for Inactive)
REMARK    1  A    between atoms: C_1  and  C_2
REMARK    2  A    between atoms: C_2  and  N_3
REMARK    3  A    between atoms: N_3  and  C_4
REMARK    4  A    between atoms: N_3  and  C_5
REMARK    5  A    between atoms: N_3  and  C_7
REMARK    6  A    between atoms: C_5  and  C_6
REMARK    7  A    between atoms: C_7  and  C_8
REMARK    8  A    between atoms: C_8  and  C_9
REMARK    9  A    between atoms: C_9  and  N_10
REMARK   10  A    between atoms: C_11  and  C_12
REMARK   11  A    between atoms: C_20  and  N_21
REMARK   12  A    between atoms: C_28  and  N_29
REMARK                            x       y       z     vdW  Elec       q    Type
REMARK                         _______ _______ _______ _____ _____    ______ ____
ROOT
ATOM      1  N   UNL     1      35.205 -35.442 -30.294  0.00  0.00    -0.339 N 
ATOM      2  C   UNL     1      34.245 -35.382 -29.313  0.00  0.00    +0.057 A 
ATOM      3  C   UNL     1      34.366 -36.127 -28.118  0.00  0.00    +0.009 A 
ATOM      4  C   UNL     1      33.378 -36.090 -27.095  0.00  0.00    -0.031 A 
ATOM      5  C   UNL     1      33.478 -36.832 -25.919  0.00  0.00    +0.025 A 
ATOM      6  C   UNL     1      34.540 -37.711 -25.799  0.00  0.00    -0.040 A 
ATOM      7  C   UNL     1      35.543 -37.744 -26.770  0.00  0.00    -0.052 A 
ATOM      8  C   UNL     1      35.499 -36.938 -27.935  0.00  0.00    -0.007 A 
ATOM      9  C   UNL     1      36.552 -36.870 -28.891  0.00  0.00    +0.006 A 
ATOM     10  C   UNL     1      37.757 -37.603 -28.770  0.00  0.00    -0.050 A 
ATOM     11  C   UNL     1      38.815 -37.449 -29.667  0.00  0.00    -0.040 A 
ATOM     12  C   UNL     1      38.755 -36.487 -30.659  0.00  0.00    +0.027 A 
ATOM     13  C   UNL     1      37.556 -35.795 -30.831  0.00  0.00    -0.017 A 
ATOM     14  C   UNL     1      36.423 -36.016 -30.015  0.00  0.00    +0.052 A 
ENDROOT
BRANCH   2  15
ATOM     15  C   UNL     1      33.133 -34.444 -29.542  0.00  0.00    -0.001 A 
ATOM     16  C   UNL     1      33.330 -33.062 -29.360  0.00  0.00    -0.053 A 
ATOM     17  C   UNL     1      32.293 -32.159 -29.596  0.00  0.00    -0.061 A 
ATOM     18  C   UNL     1      31.047 -32.623 -30.006  0.00  0.00    -0.062 A 
ATOM     19  C   UNL     1      30.827 -33.989 -30.171  0.00  0.00    -0.061 A 
ATOM     20  C   UNL     1      31.863 -34.898 -29.940  0.00  0.00    -0.053 A 
ENDBRANCH   2  15
BRANCH   5  21
ATOM     21  N   UNL     1      32.418 -36.870 -25.016  0.00  0.00    -0.358 N 
ATOM     22  H   UNL     1      32.566 -37.187 -24.096  0.00  0.00    +0.000 HD
ATOM     23  H   UNL     1      31.521 -36.578 -25.297  0.00  0.00    +0.000 HD
ENDBRANCH   5  21
BRANCH  12  24
ATOM     24  N   UNL     1      39.761 -36.392 -31.619  0.00  0.00    -0.358 N 
ATOM     25  H   UNL     1      39.674 -36.875 -32.473  0.00  0.00    +0.000 HD
ATOM     26  H   UNL     1      40.559 -35.842 -31.444  0.00  0.00    +0.000 HD
ENDBRANCH  12  24
BRANCH   1  27
ATOM     27  C   UNL     1      34.932 -34.841 -31.654  0.00  0.00    +0.022 C 
BRANCH  27  28
ATOM     28  C   UNL     1      34.485 -35.843 -32.742  0.00  0.00    -0.049 C 
BRANCH  28  29
ATOM     29  C   UNL     1      33.008 -36.763 -32.443  0.00  0.00    -0.087 C 
BRANCH  29  30
ATOM     30  N   UNL     1      32.940 -37.650 -32.902  0.00  0.00    +0.378 N 
ATOM     31  C   UNL     1      32.872 -38.536 -33.360  0.00  0.00    -0.100 C 
BRANCH  30  33
ATOM     32  C   UNL     1      32.848 -38.535 -30.713  0.00  0.00    -0.080 C 
ATOM     33  C   UNL     1      33.525 -38.057 -32.200  0.00  0.00    -0.091 C 
ENDBRANCH  30  33
BRANCH  30  34
ATOM     34  C   UNL     1      32.355 -37.242 -33.603  0.00  0.00    -0.091 C 
ATOM     35  C   UNL     1      30.710 -36.954 -33.272  0.00  0.00    -0.080 C 
ENDBRANCH  30  34
ENDBRANCH  29  30
ENDBRANCH  28  29
ENDBRANCH  27  28
ENDBRANCH   1  27
TORSDOF 9
ENDMDL
MODEL 9
REMARK VINA RESULT:    -7.281      1.894      2.550
REMARK INTER + INTRA:          -2.683
REMARK INTER:                  -9.385
REMARK INTRA:                   6.702
REMARK UNBOUND:                 6.726
REMARK  Name = cpd367.pdb
REMARK  12 active torsions:
REMARK  status: ('A' for Active; 'I' for Inactive)
REMARK    1  A    between atoms: C_1  and  C_2
REMARK    2  A    between atoms: C_2  and  N_3
REMARK    3  A    between atoms: N_3  and  C_4
REMARK    4  A    between atoms: N_3  and  C_5
REMARK    5  A    between atoms: N_3  and  C_7
REMARK    6  A    between atoms: C_5  and  C_6
REMARK    7  A    between atoms: C_7  and  C_8
REMARK    8  A    between atoms: C_8  and  C_9
REMARK    9  A    between atoms: C_9  and  N_10
REMARK   10  A    between atoms: C_11  and  C_12
REMARK   11  A    between atoms: C_20  and  N_21
REMARK   12  A    between atoms: C_28  and  N_29
REMARK                            x       y       z     vdW  Elec       q    Type
REMARK                         _______ _______ _______ _____ _____    ______ ____
ROOT
ATOM      1  N   UNL     1      33.720 -35.354 -29.257  0.00  0.00    -0.339 N 
ATOM      2  C   UNL     1      34.725 -36.251 -28.987  0.00  0.00    +0.057 A 
ATOM      3  C   UNL     1      36.006 -36.119 -29.571  0.00  0.00    +0.009 A 
ATOM      4  C   UNL     1      37.057 -37.043 -29.316  0.00  0.00    -0.031 A 
ATOM      5  C   UNL     1      38.319 -36.933 -29.898  0.00  0.00    +0.025 A 
ATOM      6  C   UNL     1      38.513 -35.934 -30.836  0.00  0.00    -0.040 A 
ATOM      7  C   UNL     1      37.511 -34.992 -31.082  0.00  0.00    -0.052 A 
ATOM      8  C   UNL     1      36.249 -35.041 -30.439  0.00  0.00    -0.007 A 
ATOM      9  C   UNL     1      35.246 -34.041 -30.587  0.00  0.00    +0.006 A 
ATOM     10  C   UNL     1      35.413 -32.888 -31.392  0.00  0.00    -0.050 A 
ATOM     11  C   UNL     1      34.456 -31.874 -31.447  0.00  0.00    -0.040 A 
ATOM     12  C   UNL     1      33.344 -31.917 -30.626  0.00  0.00    +0.027 A 
ATOM     13  C   UNL     1      33.132 -33.069 -29.869  0.00  0.00    -0.017 A 
ATOM     14  C   UNL     1      34.021 -34.169 -29.885  0.00  0.00    +0.052 A 
ENDROOT
BRANCH   2  15
ATOM     15  C   UNL     1      34.418 -37.301 -28.002  0.00  0.00    -0.001 A 
ATOM     16  C   UNL     1      34.470 -37.011 -26.625  0.00  0.00    -0.053 A 
ATOM     17  C   UNL     1      34.158 -37.988 -25.680  0.00  0.00    -0.061 A 
ATOM     18  C   UNL     1      33.802 -39.268 -26.095  0.00  0.00    -0.062 A 
ATOM     19  C   UNL     1      33.766 -39.580 -27.452  0.00  0.00    -0.061 A 
ATOM     20  C   UNL     1      34.074 -38.604 -28.404  0.00  0.00    -0.053 A 
ENDBRANCH   2  15
BRANCH   5  21
ATOM     21  N   UNL     1      39.265 -37.940 -29.727  0.00  0.00    -0.358 N 
ATOM     22  H   UNL     1      40.224 -37.736 -29.817  0.00  0.00    +0.000 HD
ATOM     23  H   UNL     1      38.976 -38.857 -29.515  0.00  0.00    +0.000 HD
ENDBRANCH   5  21
BRANCH  12  24
ATOM     24  N   UNL     1      32.336 -30.962 -30.744  0.00  0.00    -0.358 N 
ATOM     25  H   UNL     1      31.771 -30.940 -31.550  0.00  0.00    +0.000 HD
ATOM     26  H   UNL     1      32.188 -30.310 -30.022  0.00  0.00    +0.000 HD
ENDBRANCH  12  24
BRANCH   1  27
ATOM     27  C   UNL     1      32.303 -35.657 -28.825  0.00  0.00    +0.022 C 
BRANCH  27  28
ATOM     28  C   UNL     1      31.463 -36.470 -29.836  0.00  0.00    -0.049 C 
BRANCH  28  29
ATOM     29  C   UNL     1      31.417 -35.895 -31.504  0.00  0.00    -0.087 C 
BRANCH  29  30
ATOM     30  N   UNL     1      31.319 -36.596 -32.210  0.00  0.00    +0.378 N 
ATOM     31  C   UNL     1      31.222 -37.298 -32.916  0.00  0.00    -0.100 C 
BRANCH  30  33
ATOM     32  C   UNL     1      29.514 -35.441 -33.204  0.00  0.00    -0.080 C 
ATOM     33  C   UNL     1      30.324 -36.512 -32.157  0.00  0.00    -0.091 C 
ENDBRANCH  30  33
BRANCH  30  34
ATOM     34  C   UNL     1      32.314 -36.681 -32.263  0.00  0.00    -0.091 C 
ATOM     35  C   UNL     1      33.204 -35.617 -33.251  0.00  0.00    -0.080 C 
ENDBRANCH  30  34
ENDBRANCH  29  30
ENDBRANCH  28  29
ENDBRANCH  27  28
ENDBRANCH   1  27
TORSDOF 9
ENDMDL
MODEL 10
REMARK VINA RESULT:    -7.255      3.220      5.554
REMARK INTER + INTRA:          -2.649
REMARK INTER:                  -9.731
REMARK INTRA:                   7.081
REMARK UNBOUND:                 6.726
REMARK  Name = cpd367.pdb
REMARK  12 active torsions:
REMARK  status: ('A' for Active; 'I' for Inactive)
REMARK    1  A    between atoms: C_1  and  C_2
REMARK    2  A    between atoms: C_2  and  N_3
REMARK    3  A    between atoms: N_3  and  C_4
REMARK    4  A    between atoms: N_3  and  C_5
REMARK    5  A    between atoms: N_3  and  C_7
REMARK    6  A    between atoms: C_5  and  C_6
REMARK    7  A    between atoms: C_7  and  C_8
REMARK    8  A    between atoms: C_8  and  C_9
REMARK    9  A    between atoms: C_9  and  N_10
REMARK   10  A    between atoms: C_11  and  C_12
REMARK   11  A    between atoms: C_20  and  N_21
REMARK   12  A    between atoms: C_28  and  N_29
REMARK                            x       y       z     vdW  Elec       q    Type
REMARK                         _______ _______ _______ _____ _____    ______ ____
ROOT
ATOM      1  N   UNL     1      33.191 -35.390 -27.730  0.00  0.00    -0.339 N 
ATOM      2  C   UNL     1      34.189 -35.261 -28.666  0.00  0.00    +0.057 A 
ATOM      3  C   UNL     1      35.333 -36.090 -28.641  0.00  0.00    +0.009 A 
ATOM      4  C   UNL     1      36.384 -35.964 -29.591  0.00  0.00    -0.031 A 
ATOM      5  C   UNL     1      37.525 -36.766 -29.569  0.00  0.00    +0.025 A 
ATOM      6  C   UNL     1      37.672 -37.649 -28.514  0.00  0.00    -0.040 A 
ATOM      7  C   UNL     1      36.643 -37.818 -27.585  0.00  0.00    -0.052 A 
ATOM      8  C   UNL     1      35.441 -37.070 -27.639  0.00  0.00    -0.007 A 
ATOM      9  C   UNL     1      34.331 -37.289 -26.773  0.00  0.00    +0.006 A 
ATOM     10  C   UNL     1      34.318 -38.287 -25.770  0.00  0.00    -0.050 A 
ATOM     11  C   UNL     1      33.185 -38.550 -24.997  0.00  0.00    -0.040 A 
ATOM     12  C   UNL     1      31.993 -37.900 -25.261  0.00  0.00    +0.027 A 
ATOM     13  C   UNL     1      32.001 -36.874 -26.206  0.00  0.00    -0.017 A 
ATOM     14  C   UNL     1      33.163 -36.501 -26.920  0.00  0.00    +0.052 A 
ENDROOT
BRANCH   2  15
ATOM     15  C   UNL     1      33.961 -34.272 -29.733  0.00  0.00    -0.001 A 
ATOM     16  C   UNL     1      34.261 -32.915 -29.509  0.00  0.00    -0.053 A 
ATOM     17  C   UNL     1      34.073 -31.970 -30.518  0.00  0.00    -0.061 A 
ATOM     18  C   UNL     1      33.574 -32.364 -31.756  0.00  0.00    -0.062 A 
ATOM     19  C   UNL     1      33.252 -33.699 -31.989  0.00  0.00    -0.061 A 
ATOM     20  C   UNL     1      33.442 -34.651 -30.984  0.00  0.00    -0.053 A 
ENDBRANCH   2  15
BRANCH   5  21
ATOM     21  N   UNL     1      38.585 -36.508 -30.434  0.00  0.00    -0.358 N 
ATOM     22  H   UNL     1      38.574 -35.704 -31.001  0.00  0.00    +0.000 HD
ATOM     23  H   UNL     1      39.348 -37.130 -30.478  0.00  0.00    +0.000 HD
ENDBRANCH   5  21
BRANCH  12  24
ATOM     24  N   UNL     1      30.886 -38.082 -24.434  0.00  0.00    -0.358 N 
ATOM     25  H   UNL     1      30.643 -38.986 -24.128  0.00  0.00    +0.000 HD
ATOM     26  H   UNL     1      30.347 -37.307 -24.156  0.00  0.00    +0.000 HD
ENDBRANCH  12  24
BRANCH   1  27
ATOM     27  C   UNL     1      32.112 -34.336 -27.627  0.00  0.00    +0.022 C 
BRANCH  27  28
ATOM     28  C   UNL     1      30.906 -34.530 -28.574  0.00  0.00    -0.049 C 
BRANCH  28  29
ATOM     29  C   UNL     1      30.300 -33.105 -29.422  0.00  0.00    -0.087 C 
BRANCH  29  30
ATOM     30  N   UNL     1      29.364 -33.163 -29.770  0.00  0.00    +0.378 N 
ATOM     31  C   UNL     1      28.429 -33.222 -30.118  0.00  0.00    -0.100 C 
BRANCH  30  33
ATOM     32  C   UNL     1      29.886 -32.125 -31.828  0.00  0.00    -0.080 C 
ATOM     33  C   UNL     1      29.717 -33.374 -30.682  0.00  0.00    -0.091 C 
ENDBRANCH  30  33
BRANCH  30  34
ATOM     34  C   UNL     1      29.012 -32.953 -28.858  0.00  0.00    -0.091 C 
ATOM     35  C   UNL     1      28.836 -31.331 -28.371  0.00  0.00    -0.080 C 
ENDBRANCH  30  34
ENDBRANCH  29  30
ENDBRANCH  28  29
ENDBRANCH  27  28
ENDBRANCH   1  27
TORSDOF 9
ENDMDL
MODEL 11
REMARK VINA RESULT:    -7.239     18.556     22.032
REMARK INTER + INTRA:          -2.629
REMARK INTER:                  -9.350
REMARK INTRA:                   6.721
REMARK UNBOUND:                 6.726
REMARK  Name = cpd367.pdb
REMARK  12 active torsions:
REMARK  status: ('A' for Active; 'I' for Inactive)
REMARK    1  A    between atoms: C_1  and  C_2
REMARK    2  A    between atoms: C_2  and  N_3
REMARK    3  A    between atoms: N_3  and  C_4
REMARK    4  A    between atoms: N_3  and  C_5
REMARK    5  A    between atoms: N_3  and  C_7
REMARK    6  A    between atoms: C_5  and  C_6
REMARK    7  A    between atoms: C_7  and  C_8
REMARK    8  A    between atoms: C_8  and  C_9
REMARK    9  A    between atoms: C_9  and  N_10
REMARK   10  A    between atoms: C_11  and  C_12
REMARK   11  A    between atoms: C_20  and  N_21
REMARK   12  A    between atoms: C_28  and  N_29
REMARK                            x       y       z     vdW  Elec       q    Type
REMARK                         _______ _______ _______ _____ _____    ______ ____
ROOT
ATOM      1  N   UNL     1      43.742 -18.598 -39.264  0.00  0.00    -0.339 N 
ATOM      2  C   UNL     1      44.976 -18.613 -39.869  0.00  0.00    +0.057 A 
ATOM      3  C   UNL     1      45.431 -19.744 -40.584  0.00  0.00    +0.009 A 
ATOM      4  C   UNL     1      46.709 -19.786 -41.206  0.00  0.00    -0.031 A 
ATOM      5  C   UNL     1      47.176 -20.901 -41.901  0.00  0.00    +0.025 A 
ATOM      6  C   UNL     1      46.392 -22.041 -41.893  0.00  0.00    -0.040 A 
ATOM      7  C   UNL     1      45.118 -22.019 -41.320  0.00  0.00    -0.052 A 
ATOM      8  C   UNL     1      44.594 -20.869 -40.679  0.00  0.00    -0.007 A 
ATOM      9  C   UNL     1      43.264 -20.779 -40.178  0.00  0.00    +0.006 A 
ATOM     10  C   UNL     1      42.326 -21.835 -40.276  0.00  0.00    -0.050 A 
ATOM     11  C   UNL     1      41.000 -21.692 -39.865  0.00  0.00    -0.040 A 
ATOM     12  C   UNL     1      40.530 -20.464 -39.437  0.00  0.00    +0.027 A 
ATOM     13  C   UNL     1      41.450 -19.428 -39.279  0.00  0.00    -0.017 A 
ATOM     14  C   UNL     1      42.826 -19.576 -39.570  0.00  0.00    +0.052 A 
ENDROOT
BRANCH   2  15
ATOM     15  C   UNL     1      45.755 -17.366 -39.796  0.00  0.00    -0.001 A 
ATOM     16  C   UNL     1      46.724 -17.200 -38.789  0.00  0.00    -0.053 A 
ATOM     17  C   UNL     1      47.487 -16.034 -38.722  0.00  0.00    -0.061 A 
ATOM     18  C   UNL     1      47.286 -15.016 -39.651  0.00  0.00    -0.062 A 
ATOM     19  C   UNL     1      46.316 -15.154 -40.642  0.00  0.00    -0.061 A 
ATOM     20  C   UNL     1      45.551 -16.321 -40.716  0.00  0.00    -0.053 A 
ENDBRANCH   2  15
BRANCH   5  21
ATOM     21  N   UNL     1      48.487 -20.943 -42.368  0.00  0.00    -0.358 N 
ATOM     22  H   UNL     1      48.694 -20.643 -43.283  0.00  0.00    +0.000 HD
ATOM     23  H   UNL     1      49.208 -21.272 -41.784  0.00  0.00    +0.000 HD
ENDBRANCH   5  21
BRANCH  12  24
ATOM     24  N   UNL     1      39.237 -20.334 -38.932  0.00  0.00    -0.358 N 
ATOM     25  H   UNL     1      39.095 -19.962 -38.032  0.00  0.00    +0.000 HD
ATOM     26  H   UNL     1      38.466 -20.615 -39.475  0.00  0.00    +0.000 HD
ENDBRANCH  12  24
BRANCH   1  27
ATOM     27  C   UNL     1      43.387 -17.486 -38.302  0.00  0.00    +0.022 C 
BRANCH  27  28
ATOM     28  C   UNL     1      43.369 -17.884 -36.809  0.00  0.00    -0.049 C 
BRANCH  28  29
ATOM     29  C   UNL     1      44.844 -18.583 -36.136  0.00  0.00    -0.087 C 
BRANCH  29  30
ATOM     30  N   UNL     1      44.720 -19.275 -35.424  0.00  0.00    +0.378 N 
ATOM     31  C   UNL     1      44.595 -19.967 -34.713  0.00  0.00    -0.100 C 
BRANCH  30  33
ATOM     32  C   UNL     1      46.024 -17.803 -34.115  0.00  0.00    -0.080 C 
ATOM     33  C   UNL     1      44.629 -18.553 -34.738  0.00  0.00    -0.091 C 
ENDBRANCH  30  33
BRANCH  30  34
ATOM     34  C   UNL     1      44.810 -19.997 -36.111  0.00  0.00    -0.091 C 
ATOM     35  C   UNL     1      46.330 -20.313 -36.811  0.00  0.00    -0.080 C 
ENDBRANCH  30  34
ENDBRANCH  29  30
ENDBRANCH  28  29
ENDBRANCH  27  28
ENDBRANCH   1  27
TORSDOF 9
ENDMDL
MODEL 12
REMARK VINA RESULT:    -7.115     18.753     22.107
REMARK INTER + INTRA:          -2.468
REMARK INTER:                  -9.206
REMARK INTRA:                   6.737
REMARK UNBOUND:                 6.726
REMARK  Name = cpd367.pdb
REMARK  12 active torsions:
REMARK  status: ('A' for Active; 'I' for Inactive)
REMARK    1  A    between atoms: C_1  and  C_2
REMARK    2  A    between atoms: C_2  and  N_3
REMARK    3  A    between atoms: N_3  and  C_4
REMARK    4  A    between atoms: N_3  and  C_5
REMARK    5  A    between atoms: N_3  and  C_7
REMARK    6  A    between atoms: C_5  and  C_6
REMARK    7  A    between atoms: C_7  and  C_8
REMARK    8  A    between atoms: C_8  and  C_9
REMARK    9  A    between atoms: C_9  and  N_10
REMARK   10  A    between atoms: C_11  and  C_12
REMARK   11  A    between atoms: C_20  and  N_21
REMARK   12  A    between atoms: C_28  and  N_29
REMARK                            x       y       z     vdW  Elec       q    Type
REMARK                         _______ _______ _______ _____ _____    ______ ____
ROOT
ATOM      1  N   UNL     1      44.572 -18.233 -39.511  0.00  0.00    -0.339 N 
ATOM      2  C   UNL     1      44.199 -18.969 -38.412  0.00  0.00    +0.057 A 
ATOM      3  C   UNL     1      44.898 -18.869 -37.188  0.00  0.00    +0.009 A 
ATOM      4  C   UNL     1      44.539 -19.632 -36.042  0.00  0.00    -0.031 A 
ATOM      5  C   UNL     1      45.230 -19.553 -34.834  0.00  0.00    +0.025 A 
ATOM      6  C   UNL     1      46.370 -18.770 -34.791  0.00  0.00    -0.040 A 
ATOM      7  C   UNL     1      46.728 -17.984 -35.889  0.00  0.00    -0.052 A 
ATOM      8  C   UNL     1      45.992 -17.989 -37.100  0.00  0.00    -0.007 A 
ATOM      9  C   UNL     1      46.266 -17.126 -38.198  0.00  0.00    +0.006 A 
ATOM     10  C   UNL     1      47.307 -16.167 -38.187  0.00  0.00    -0.050 A 
ATOM     11  C   UNL     1      47.499 -15.265 -39.236  0.00  0.00    -0.040 A 
ATOM     12  C   UNL     1      46.601 -15.215 -40.287  0.00  0.00    +0.027 A 
ATOM     13  C   UNL     1      45.604 -16.188 -40.344  0.00  0.00    -0.017 A 
ATOM     14  C   UNL     1      45.458 -17.193 -39.360  0.00  0.00    +0.052 A 
ENDROOT
BRANCH   2  15
ATOM     15  C   UNL     1      42.994 -19.801 -38.560  0.00  0.00    -0.001 A 
ATOM     16  C   UNL     1      43.115 -21.164 -38.888  0.00  0.00    -0.053 A 
ATOM     17  C   UNL     1      41.983 -21.971 -39.008  0.00  0.00    -0.061 A 
ATOM     18  C   UNL     1      40.717 -21.426 -38.813  0.00  0.00    -0.062 A 
ATOM     19  C   UNL     1      40.576 -20.073 -38.508  0.00  0.00    -0.061 A 
ATOM     20  C   UNL     1      41.706 -19.262 -38.383  0.00  0.00    -0.053 A 
ENDBRANCH   2  15
BRANCH   5  21
ATOM     21  N   UNL     1      44.926 -20.423 -33.789  0.00  0.00    -0.358 N 
ATOM     22  H   UNL     1      44.399 -21.236 -33.963  0.00  0.00    +0.000 HD
ATOM     23  H   UNL     1      45.239 -20.226 -32.877  0.00  0.00    +0.000 HD
ENDBRANCH   5  21
BRANCH  12  24
ATOM     24  N   UNL     1      46.837 -14.389 -41.385  0.00  0.00    -0.358 N 
ATOM     25  H   UNL     1      46.403 -14.581 -42.247  0.00  0.00    +0.000 HD
ATOM     26  H   UNL     1      47.438 -13.614 -41.298  0.00  0.00    +0.000 HD
ENDBRANCH  12  24
BRANCH   1  27
ATOM     27  C   UNL     1      43.974 -18.543 -40.865  0.00  0.00    +0.022 C 
BRANCH  27  28
ATOM     28  C   UNL     1      44.898 -19.314 -41.834  0.00  0.00    -0.049 C 
BRANCH  28  29
ATOM     29  C   UNL     1      45.734 -20.736 -41.205  0.00  0.00    -0.087 C 
BRANCH  29  30
ATOM     30  N   UNL     1      46.690 -20.842 -41.480  0.00  0.00    +0.378 N 
ATOM     31  C   UNL     1      47.646 -20.949 -41.754  0.00  0.00    -0.100 C 
BRANCH  30  33
ATOM     32  C   UNL     1      46.974 -21.287 -39.176  0.00  0.00    -0.080 C 
ATOM     33  C   UNL     1      46.983 -20.402 -40.631  0.00  0.00    -0.091 C 
ENDBRANCH  30  33
BRANCH  30  34
ATOM     34  C   UNL     1      46.397 -21.283 -42.328  0.00  0.00    -0.091 C 
ATOM     35  C   UNL     1      46.542 -22.971 -42.500  0.00  0.00    -0.080 C 
ENDBRANCH  30  34
ENDBRANCH  29  30
ENDBRANCH  28  29
ENDBRANCH  27  28
ENDBRANCH   1  27
TORSDOF 9
ENDMDL
MODEL 13
REMARK VINA RESULT:    -7.067     17.981     21.028
REMARK INTER + INTRA:          -2.406
REMARK INTER:                  -9.253
REMARK INTRA:                   6.846
REMARK UNBOUND:                 6.726
REMARK  Name = cpd367.pdb
REMARK  12 active torsions:
REMARK  status: ('A' for Active; 'I' for Inactive)
REMARK    1  A    between atoms: C_1  and  C_2
REMARK    2  A    between atoms: C_2  and  N_3
REMARK    3  A    between atoms: N_3  and  C_4
REMARK    4  A    between atoms: N_3  and  C_5
REMARK    5  A    between atoms: N_3  and  C_7
REMARK    6  A    between atoms: C_5  and  C_6
REMARK    7  A    between atoms: C_7  and  C_8
REMARK    8  A    between atoms: C_8  and  C_9
REMARK    9  A    between atoms: C_9  and  N_10
REMARK   10  A    between atoms: C_11  and  C_12
REMARK   11  A    between atoms: C_20  and  N_21
REMARK   12  A    between atoms: C_28  and  N_29
REMARK                            x       y       z     vdW  Elec       q    Type
REMARK                         _______ _______ _______ _____ _____    ______ ____
ROOT
ATOM      1  N   UNL     1      44.668 -19.812 -38.267  0.00  0.00    -0.339 N 
ATOM      2  C   UNL     1      45.323 -19.283 -39.352  0.00  0.00    +0.057 A 
ATOM      3  C   UNL     1      46.102 -18.108 -39.240  0.00  0.00    +0.009 A 
ATOM      4  C   UNL     1      46.777 -17.535 -40.352  0.00  0.00    -0.031 A 
ATOM      5  C   UNL     1      47.536 -16.369 -40.258  0.00  0.00    +0.025 A 
ATOM      6  C   UNL     1      47.542 -15.699 -39.047  0.00  0.00    -0.040 A 
ATOM      7  C   UNL     1      46.916 -16.254 -37.929  0.00  0.00    -0.052 A 
ATOM      8  C   UNL     1      46.208 -17.480 -37.986  0.00  0.00    -0.007 A 
ATOM      9  C   UNL     1      45.648 -18.126 -36.847  0.00  0.00    +0.006 A 
ATOM     10  C   UNL     1      45.749 -17.606 -35.535  0.00  0.00    -0.050 A 
ATOM     11  C   UNL     1      45.278 -18.302 -34.420  0.00  0.00    -0.040 A 
ATOM     12  C   UNL     1      44.782 -19.585 -34.557  0.00  0.00    +0.027 A 
ATOM     13  C   UNL     1      44.621 -20.093 -35.846  0.00  0.00    -0.017 A 
ATOM     14  C   UNL     1      44.975 -19.363 -37.004  0.00  0.00    +0.052 A 
ENDROOT
BRANCH   2  15
ATOM     15  C   UNL     1      45.234 -20.046 -40.607  0.00  0.00    -0.001 A 
ATOM     16  C   UNL     1      46.072 -21.157 -40.817  0.00  0.00    -0.053 A 
ATOM     17  C   UNL     1      45.982 -21.905 -41.991  0.00  0.00    -0.061 A 
ATOM     18  C   UNL     1      45.064 -21.548 -42.974  0.00  0.00    -0.062 A 
ATOM     19  C   UNL     1      44.240 -20.439 -42.794  0.00  0.00    -0.061 A 
ATOM     20  C   UNL     1      44.323 -19.688 -41.618  0.00  0.00    -0.053 A 
ENDBRANCH   2  15
BRANCH   5  21
ATOM     21  N   UNL     1      48.059 -15.773 -41.403  0.00  0.00    -0.358 N 
ATOM     22  H   UNL     1      47.823 -16.123 -42.292  0.00  0.00    +0.000 HD
ATOM     23  H   UNL     1      48.665 -15.001 -41.324  0.00  0.00    +0.000 HD
ENDBRANCH   5  21
BRANCH  12  24
ATOM     24  N   UNL     1      44.218 -20.249 -33.468  0.00  0.00    -0.358 N 
ATOM     25  H   UNL     1      44.684 -21.018 -33.066  0.00  0.00    +0.000 HD
ATOM     26  H   UNL     1      43.355 -19.951 -33.102  0.00  0.00    +0.000 HD
ENDBRANCH  12  24
BRANCH   1  27
ATOM     27  C   UNL     1      43.648 -20.912 -38.465  0.00  0.00    +0.022 C 
BRANCH  27  28
ATOM     28  C   UNL     1      42.172 -20.457 -38.434  0.00  0.00    -0.049 C 
BRANCH  28  29
ATOM     29  C   UNL     1      41.169 -21.037 -37.101  0.00  0.00    -0.087 C 
BRANCH  29  30
ATOM     30  N   UNL     1      40.237 -20.677 -37.061  0.00  0.00    +0.378 N 
ATOM     31  C   UNL     1      39.305 -20.316 -37.021  0.00  0.00    -0.100 C 
BRANCH  30  33
ATOM     32  C   UNL     1      39.482 -22.875 -36.638  0.00  0.00    -0.080 C 
ATOM     33  C   UNL     1      39.902 -21.491 -37.536  0.00  0.00    -0.091 C 
ENDBRANCH  30  33
BRANCH  30  34
ATOM     34  C   UNL     1      40.572 -19.863 -36.587  0.00  0.00    -0.091 C 
ATOM     35  C   UNL     1      40.739 -19.878 -34.893  0.00  0.00    -0.080 C 
ENDBRANCH  30  34
ENDBRANCH  29  30
ENDBRANCH  28  29
ENDBRANCH  27  28
ENDBRANCH   1  27
TORSDOF 9
ENDMDL
MODEL 14
REMARK VINA RESULT:    -7.042     18.181     21.843
REMARK INTER + INTRA:          -2.374
REMARK INTER:                  -9.045
REMARK INTRA:                   6.670
REMARK UNBOUND:                 6.726
REMARK  Name = cpd367.pdb
REMARK  12 active torsions:
REMARK  status: ('A' for Active; 'I' for Inactive)
REMARK    1  A    between atoms: C_1  and  C_2
REMARK    2  A    between atoms: C_2  and  N_3
REMARK    3  A    between atoms: N_3  and  C_4
REMARK    4  A    between atoms: N_3  and  C_5
REMARK    5  A    between atoms: N_3  and  C_7
REMARK    6  A    between atoms: C_5  and  C_6
REMARK    7  A    between atoms: C_7  and  C_8
REMARK    8  A    between atoms: C_8  and  C_9
REMARK    9  A    between atoms: C_9  and  N_10
REMARK   10  A    between atoms: C_11  and  C_12
REMARK   11  A    between atoms: C_20  and  N_21
REMARK   12  A    between atoms: C_28  and  N_29
REMARK                            x       y       z     vdW  Elec       q    Type
REMARK                         _______ _______ _______ _____ _____    ______ ____
ROOT
ATOM      1  N   UNL     1      45.692 -19.958 -38.422  0.00  0.00    -0.339 N 
ATOM      2  C   UNL     1      44.457 -20.117 -37.841  0.00  0.00    +0.057 A 
ATOM      3  C   UNL     1      43.413 -20.801 -38.505  0.00  0.00    +0.009 A 
ATOM      4  C   UNL     1      42.124 -20.965 -37.928  0.00  0.00    -0.031 A 
ATOM      5  C   UNL     1      41.082 -21.624 -38.579  0.00  0.00    +0.025 A 
ATOM      6  C   UNL     1      41.296 -22.044 -39.880  0.00  0.00    -0.040 A 
ATOM      7  C   UNL     1      42.561 -21.927 -40.461  0.00  0.00    -0.052 A 
ATOM      8  C   UNL     1      43.656 -21.332 -39.784  0.00  0.00    -0.007 A 
ATOM      9  C   UNL     1      44.981 -21.290 -40.304  0.00  0.00    +0.006 A 
ATOM     10  C   UNL     1      45.340 -21.847 -41.555  0.00  0.00    -0.050 A 
ATOM     11  C   UNL     1      46.661 -21.880 -42.002  0.00  0.00    -0.040 A 
ATOM     12  C   UNL     1      47.688 -21.455 -41.180  0.00  0.00    +0.027 A 
ATOM     13  C   UNL     1      47.351 -20.851 -39.968  0.00  0.00    -0.017 A 
ATOM     14  C   UNL     1      46.013 -20.691 -39.540  0.00  0.00    +0.052 A 
ENDROOT
BRANCH   2  15
ATOM     15  C   UNL     1      44.310 -19.609 -36.467  0.00  0.00    -0.001 A 
ATOM     16  C   UNL     1      43.767 -18.329 -36.245  0.00  0.00    -0.053 A 
ATOM     17  C   UNL     1      43.599 -17.843 -34.948  0.00  0.00    -0.061 A 
ATOM     18  C   UNL     1      43.981 -18.621 -33.859  0.00  0.00    -0.062 A 
ATOM     19  C   UNL     1      44.540 -19.881 -34.060  0.00  0.00    -0.061 A 
ATOM     20  C   UNL     1      44.707 -20.375 -35.356  0.00  0.00    -0.053 A 
ENDBRANCH   2  15
BRANCH   5  21
ATOM     21  N   UNL     1      39.801 -21.633 -38.031  0.00  0.00    -0.358 N 
ATOM     22  H   UNL     1      39.441 -20.821 -37.608  0.00  0.00    +0.000 HD
ATOM     23  H   UNL     1      39.256 -22.452 -38.067  0.00  0.00    +0.000 HD
ENDBRANCH   5  21
BRANCH  12  24
ATOM     24  N   UNL     1      48.998 -21.392 -41.652  0.00  0.00    -0.358 N 
ATOM     25  H   UNL     1      49.172 -21.142 -42.589  0.00  0.00    +0.000 HD
ATOM     26  H   UNL     1      49.749 -21.597 -41.050  0.00  0.00    +0.000 HD
ENDBRANCH  12  24
BRANCH   1  27
ATOM     27  C   UNL     1      46.700 -19.015 -37.806  0.00  0.00    +0.022 C 
BRANCH  27  28
ATOM     28  C   UNL     1      46.902 -17.680 -38.557  0.00  0.00    -0.049 C 
BRANCH  28  29
ATOM     29  C   UNL     1      45.511 -17.008 -39.412  0.00  0.00    -0.087 C 
BRANCH  29  30
ATOM     30  N   UNL     1      45.715 -16.371 -40.155  0.00  0.00    +0.378 N 
ATOM     31  C   UNL     1      45.919 -15.733 -40.898  0.00  0.00    -0.100 C 
BRANCH  30  33
ATOM     32  C   UNL     1      44.329 -17.775 -41.455  0.00  0.00    -0.080 C 
ATOM     33  C   UNL     1      45.763 -17.135 -40.798  0.00  0.00    -0.091 C 
ENDBRANCH  30  33
BRANCH  30  34
ATOM     34  C   UNL     1      45.667 -15.606 -39.512  0.00  0.00    -0.091 C 
ATOM     35  C   UNL     1      44.164 -14.884 -39.166  0.00  0.00    -0.080 C 
ENDBRANCH  30  34
ENDBRANCH  29  30
ENDBRANCH  28  29
ENDBRANCH  27  28
ENDBRANCH   1  27
TORSDOF 9
ENDMDL
MODEL 15
REMARK VINA RESULT:    -7.005     17.538     20.876
REMARK INTER + INTRA:          -2.327
REMARK INTER:                  -9.161
REMARK INTRA:                   6.835
REMARK UNBOUND:                 6.726
REMARK  Name = cpd367.pdb
REMARK  12 active torsions:
REMARK  status: ('A' for Active; 'I' for Inactive)
REMARK    1  A    between atoms: C_1  and  C_2
REMARK    2  A    between atoms: C_2  and  N_3
REMARK    3  A    between atoms: N_3  and  C_4
REMARK    4  A    between atoms: N_3  and  C_5
REMARK    5  A    between atoms: N_3  and  C_7
REMARK    6  A    between atoms: C_5  and  C_6
REMARK    7  A    between atoms: C_7  and  C_8
REMARK    8  A    between atoms: C_8  and  C_9
REMARK    9  A    between atoms: C_9  and  N_10
REMARK   10  A    between atoms: C_11  and  C_12
REMARK   11  A    between atoms: C_20  and  N_21
REMARK   12  A    between atoms: C_28  and  N_29
REMARK                            x       y       z     vdW  Elec       q    Type
REMARK                         _______ _______ _______ _____ _____    ______ ____
ROOT
ATOM      1  N   UNL     1      43.769 -19.180 -38.282  0.00  0.00    -0.339 N 
ATOM      2  C   UNL     1      45.050 -19.062 -38.763  0.00  0.00    +0.057 A 
ATOM      3  C   UNL     1      45.513 -19.866 -39.829  0.00  0.00    +0.009 A 
ATOM      4  C   UNL     1      46.839 -19.771 -40.334  0.00  0.00    -0.031 A 
ATOM      5  C   UNL     1      47.312 -20.569 -41.375  0.00  0.00    +0.025 A 
ATOM      6  C   UNL     1      46.476 -21.559 -41.861  0.00  0.00    -0.040 A 
ATOM      7  C   UNL     1      45.158 -21.655 -41.408  0.00  0.00    -0.052 A 
ATOM      8  C   UNL     1      44.634 -20.799 -40.407  0.00  0.00    -0.007 A 
ATOM      9  C   UNL     1      43.270 -20.801 -39.998  0.00  0.00    +0.006 A 
ATOM     10  C   UNL     1      42.295 -21.660 -40.558  0.00  0.00    -0.050 A 
ATOM     11  C   UNL     1      40.945 -21.580 -40.211  0.00  0.00    -0.040 A 
ATOM     12  C   UNL     1      40.498 -20.575 -39.372  0.00  0.00    +0.027 A 
ATOM     13  C   UNL     1      41.450 -19.755 -38.766  0.00  0.00    -0.017 A 
ATOM     14  C   UNL     1      42.838 -19.890 -39.002  0.00  0.00    +0.052 A 
ENDROOT
BRANCH   2  15
ATOM     15  C   UNL     1      45.879 -18.004 -38.163  0.00  0.00    -0.001 A 
ATOM     16  C   UNL     1      45.897 -16.716 -38.732  0.00  0.00    -0.053 A 
ATOM     17  C   UNL     1      46.659 -15.696 -38.161  0.00  0.00    -0.061 A 
ATOM     18  C   UNL     1      47.420 -15.951 -37.024  0.00  0.00    -0.062 A 
ATOM     19  C   UNL     1      47.432 -17.225 -36.459  0.00  0.00    -0.061 A 
ATOM     20  C   UNL     1      46.668 -18.249 -37.024  0.00  0.00    -0.053 A 
ENDBRANCH   2  15
BRANCH   5  21
ATOM     21  N   UNL     1      48.657 -20.534 -41.736  0.00  0.00    -0.358 N 
ATOM     22  H   UNL     1      49.038 -21.255 -42.287  0.00  0.00    +0.000 HD
ATOM     23  H   UNL     1      49.228 -19.788 -41.439  0.00  0.00    +0.000 HD
ENDBRANCH   5  21
BRANCH  12  24
ATOM     24  N   UNL     1      39.173 -20.545 -38.942  0.00  0.00    -0.358 N 
ATOM     25  H   UNL     1      38.966 -20.367 -37.996  0.00  0.00    +0.000 HD
ATOM     26  H   UNL     1      38.443 -20.702 -39.584  0.00  0.00    +0.000 HD
ENDBRANCH  12  24
BRANCH   1  27
ATOM     27  C   UNL     1      43.382 -18.496 -36.990  0.00  0.00    +0.022 C 
BRANCH  27  28
ATOM     28  C   UNL     1      43.333 -19.410 -35.746  0.00  0.00    -0.049 C 
BRANCH  28  29
ATOM     29  C   UNL     1      41.773 -19.610 -34.943  0.00  0.00    -0.087 C 
BRANCH  29  30
ATOM     30  N   UNL     1      41.678 -20.416 -34.359  0.00  0.00    +0.378 N 
ATOM     31  C   UNL     1      41.582 -21.222 -33.774  0.00  0.00    -0.100 C 
BRANCH  30  33
ATOM     32  C   UNL     1      39.615 -20.987 -35.359  0.00  0.00    -0.080 C 
ATOM     33  C   UNL     1      41.301 -20.930 -35.129  0.00  0.00    -0.091 C 
ENDBRANCH  30  33
BRANCH  30  34
ATOM     34  C   UNL     1      42.055 -19.902 -33.588  0.00  0.00    -0.091 C 
ATOM     35  C   UNL     1      41.012 -19.045 -32.550  0.00  0.00    -0.080 C 
ENDBRANCH  30  34
ENDBRANCH  29  30
ENDBRANCH  28  29
ENDBRANCH  27  28
ENDBRANCH   1  27
TORSDOF 9
ENDMDL
MODEL 16
REMARK VINA RESULT:    -6.980     16.421     19.678
REMARK INTER + INTRA:          -2.295
REMARK INTER:                  -9.383
REMARK INTRA:                   7.088
REMARK UNBOUND:                 6.726
REMARK  Name = cpd367.pdb
REMARK  12 active torsions:
REMARK  status: ('A' for Active; 'I' for Inactive)
REMARK    1  A    between atoms: C_1  and  C_2
REMARK    2  A    between atoms: C_2  and  N_3
REMARK    3  A    between atoms: N_3  and  C_4
REMARK    4  A    between atoms: N_3  and  C_5
REMARK    5  A    between atoms: N_3  and  C_7
REMARK    6  A    between atoms: C_5  and  C_6
REMARK    7  A    between atoms: C_7  and  C_8
REMARK    8  A    between atoms: C_8  and  C_9
REMARK    9  A    between atoms: C_9  and  N_10
REMARK   10  A    between atoms: C_11  and  C_12
REMARK   11  A    between atoms: C_20  and  N_21
REMARK   12  A    between atoms: C_28  and  N_29
REMARK                            x       y       z     vdW  Elec       q    Type
REMARK                         _______ _______ _______ _____ _____    ______ ____
ROOT
ATOM      1  N   UNL     1      43.774 -19.455 -36.862  0.00  0.00    -0.339 N 
ATOM      2  C   UNL     1      43.449 -20.125 -38.017  0.00  0.00    +0.057 A 
ATOM      3  C   UNL     1      44.407 -20.351 -39.031  0.00  0.00    +0.009 A 
ATOM      4  C   UNL     1      44.089 -21.029 -40.240  0.00  0.00    -0.031 A 
ATOM      5  C   UNL     1      45.022 -21.246 -41.254  0.00  0.00    +0.025 A 
ATOM      6  C   UNL     1      46.278 -20.685 -41.106  0.00  0.00    -0.040 A 
ATOM      7  C   UNL     1      46.630 -20.042 -39.916  0.00  0.00    -0.052 A 
ATOM      8  C   UNL     1      45.720 -19.884 -38.841  0.00  0.00    -0.007 A 
ATOM      9  C   UNL     1      46.074 -19.329 -37.579  0.00  0.00    +0.006 A 
ATOM     10  C   UNL     1      47.381 -18.882 -37.269  0.00  0.00    -0.050 A 
ATOM     11  C   UNL     1      47.730 -18.431 -35.995  0.00  0.00    -0.040 A 
ATOM     12  C   UNL     1      46.821 -18.503 -34.955  0.00  0.00    +0.027 A 
ATOM     13  C   UNL     1      45.513 -18.886 -35.252  0.00  0.00    -0.017 A 
ATOM     14  C   UNL     1      45.096 -19.231 -36.558  0.00  0.00    +0.052 A 
ENDROOT
BRANCH   2  15
ATOM     15  C   UNL     1      42.079 -20.657 -38.101  0.00  0.00    -0.001 A 
ATOM     16  C   UNL     1      41.062 -19.892 -38.703  0.00  0.00    -0.053 A 
ATOM     17  C   UNL     1      39.765 -20.392 -38.812  0.00  0.00    -0.061 A 
ATOM     18  C   UNL     1      39.463 -21.656 -38.313  0.00  0.00    -0.062 A 
ATOM     19  C   UNL     1      40.451 -22.420 -37.694  0.00  0.00    -0.061 A 
ATOM     20  C   UNL     1      41.753 -21.925 -37.586  0.00  0.00    -0.053 A 
ENDBRANCH   2  15
BRANCH   5  21
ATOM     21  N   UNL     1      44.624 -21.788 -42.473  0.00  0.00    -0.358 N 
ATOM     22  H   UNL     1      43.865 -22.413 -42.510  0.00  0.00    +0.000 HD
ATOM     23  H   UNL     1      45.103 -21.547 -43.299  0.00  0.00    +0.000 HD
ENDBRANCH   5  21
BRANCH  12  24
ATOM     24  N   UNL     1      47.126 -17.965 -33.706  0.00  0.00    -0.358 N 
ATOM     25  H   UNL     1      46.410 -17.807 -33.049  0.00  0.00    +0.000 HD
ATOM     26  H   UNL     1      48.058 -17.742 -33.480  0.00  0.00    +0.000 HD
ENDBRANCH  12  24
BRANCH   1  27
ATOM     27  C   UNL     1      42.682 -19.009 -35.916  0.00  0.00    +0.022 C 
BRANCH  27  28
ATOM     28  C   UNL     1      42.495 -19.888 -34.659  0.00  0.00    -0.049 C 
BRANCH  28  29
ATOM     29  C   UNL     1      40.843 -20.286 -34.182  0.00  0.00    -0.087 C 
BRANCH  29  30
ATOM     30  N   UNL     1      40.745 -20.896 -33.395  0.00  0.00    +0.378 N 
ATOM     31  C   UNL     1      40.648 -21.505 -32.608  0.00  0.00    -0.100 C 
BRANCH  30  33
ATOM     32  C   UNL     1      39.073 -22.216 -34.417  0.00  0.00    -0.080 C 
ATOM     33  C   UNL     1      40.636 -21.675 -34.012  0.00  0.00    -0.091 C 
ENDBRANCH  30  33
BRANCH  30  34
ATOM     34  C   UNL     1      40.855 -20.116 -32.778  0.00  0.00    -0.091 C 
ATOM     35  C   UNL     1      39.486 -19.243 -32.266  0.00  0.00    -0.080 C 
ENDBRANCH  30  34
ENDBRANCH  29  30
ENDBRANCH  28  29
ENDBRANCH  27  28
ENDBRANCH   1  27
TORSDOF 9
ENDMDL
MODEL 17
REMARK VINA RESULT:    -6.384     25.433     28.338
REMARK INTER + INTRA:          -1.525
REMARK INTER:                  -8.176
REMARK INTRA:                   6.651
REMARK UNBOUND:                 6.726
REMARK  Name = cpd367.pdb
REMARK  12 active torsions:
REMARK  status: ('A' for Active; 'I' for Inactive)
REMARK    1  A    between atoms: C_1  and  C_2
REMARK    2  A    between atoms: C_2  and  N_3
REMARK    3  A    between atoms: N_3  and  C_4
REMARK    4  A    between atoms: N_3  and  C_5
REMARK    5  A    between atoms: N_3  and  C_7
REMARK    6  A    between atoms: C_5  and  C_6
REMARK    7  A    between atoms: C_7  and  C_8
REMARK    8  A    between atoms: C_8  and  C_9
REMARK    9  A    between atoms: C_9  and  N_10
REMARK   10  A    between atoms: C_11  and  C_12
REMARK   11  A    between atoms: C_20  and  N_21
REMARK   12  A    between atoms: C_28  and  N_29
REMARK                            x       y       z     vdW  Elec       q    Type
REMARK                         _______ _______ _______ _____ _____    ______ ____
ROOT
ATOM      1  N   UNL     1      47.551 -32.532 -55.977  0.00  0.00    -0.339 N 
ATOM      2  C   UNL     1      46.975 -33.777 -55.903  0.00  0.00    +0.057 A 
ATOM      3  C   UNL     1      46.376 -34.241 -54.710  0.00  0.00    +0.009 A 
ATOM      4  C   UNL     1      45.786 -35.531 -54.607  0.00  0.00    -0.031 A 
ATOM      5  C   UNL     1      45.206 -36.006 -53.431  0.00  0.00    +0.025 A 
ATOM      6  C   UNL     1      45.304 -35.217 -52.298  0.00  0.00    -0.040 A 
ATOM      7  C   UNL     1      45.847 -33.933 -52.376  0.00  0.00    -0.052 A 
ATOM      8  C   UNL     1      46.369 -33.401 -53.582  0.00  0.00    -0.007 A 
ATOM      9  C   UNL     1      46.833 -32.062 -53.722  0.00  0.00    +0.006 A 
ATOM     10  C   UNL     1      46.815 -31.122 -52.665  0.00  0.00    -0.050 A 
ATOM     11  C   UNL     1      47.185 -29.789 -52.848  0.00  0.00    -0.040 A 
ATOM     12  C   UNL     1      47.489 -29.316 -54.112  0.00  0.00    +0.027 A 
ATOM     13  C   UNL     1      47.568 -30.237 -55.156  0.00  0.00    -0.017 A 
ATOM     14  C   UNL     1      47.319 -31.618 -54.977  0.00  0.00    +0.052 A 
ENDROOT
BRANCH   2  15
ATOM     15  C   UNL     1      46.947 -34.560 -57.149  0.00  0.00    -0.001 A 
ATOM     16  C   UNL     1      45.938 -34.328 -58.104  0.00  0.00    -0.053 A 
ATOM     17  C   UNL     1      45.912 -35.045 -59.300  0.00  0.00    -0.061 A 
ATOM     18  C   UNL     1      46.883 -36.009 -59.554  0.00  0.00    -0.062 A 
ATOM     19  C   UNL     1      47.877 -36.267 -58.612  0.00  0.00    -0.061 A 
ATOM     20  C   UNL     1      47.911 -35.550 -57.414  0.00  0.00    -0.053 A 
ENDBRANCH   2  15
BRANCH   5  21
ATOM     21  N   UNL     1      44.770 -37.326 -53.343  0.00  0.00    -0.358 N 
ATOM     22  H   UNL     1      45.286 -38.045 -53.774  0.00  0.00    +0.000 HD
ATOM     23  H   UNL     1      43.946 -37.541 -52.848  0.00  0.00    +0.000 HD
ENDBRANCH   5  21
BRANCH  12  24
ATOM     24  N   UNL     1      47.954 -28.014 -54.291  0.00  0.00    -0.358 N 
ATOM     25  H   UNL     1      47.594 -27.282 -53.739  0.00  0.00    +0.000 HD
ATOM     26  H   UNL     1      48.642 -27.826 -54.969  0.00  0.00    +0.000 HD
ENDBRANCH  12  24
BRANCH   1  27
ATOM     27  C   UNL     1      48.399 -32.163 -57.174  0.00  0.00    +0.022 C 
BRANCH  27  28
ATOM     28  C   UNL     1      49.888 -32.563 -57.078  0.00  0.00    -0.049 C 
BRANCH  28  29
ATOM     29  C   UNL     1      50.900 -31.668 -55.942  0.00  0.00    -0.087 C 
BRANCH  29  30
ATOM     30  N   UNL     1      51.577 -32.203 -55.437  0.00  0.00    +0.378 N 
ATOM     31  C   UNL     1      52.254 -32.739 -54.932  0.00  0.00    -0.100 C 
BRANCH  30  33
ATOM     32  C   UNL     1      53.508 -31.044 -56.151  0.00  0.00    -0.080 C 
ATOM     33  C   UNL     1      52.206 -32.139 -56.212  0.00  0.00    -0.091 C 
ENDBRANCH  30  33
BRANCH  30  34
ATOM     34  C   UNL     1      50.949 -32.267 -54.662  0.00  0.00    -0.091 C 
ATOM     35  C   UNL     1      50.900 -31.019 -53.505  0.00  0.00    -0.080 C 
ENDBRANCH  30  34
ENDBRANCH  29  30
ENDBRANCH  28  29
ENDBRANCH  27  28
ENDBRANCH   1  27
TORSDOF 9
ENDMDL
MODEL 18
REMARK VINA RESULT:    -6.229     24.969     27.838
REMARK INTER + INTRA:          -1.324
REMARK INTER:                  -8.009
REMARK INTRA:                   6.685
REMARK UNBOUND:                 6.726
REMARK  Name = cpd367.pdb
REMARK  12 active torsions:
REMARK  status: ('A' for Active; 'I' for Inactive)
REMARK    1  A    between atoms: C_1  and  C_2
REMARK    2  A    between atoms: C_2  and  N_3
REMARK    3  A    between atoms: N_3  and  C_4
REMARK    4  A    between atoms: N_3  and  C_5
REMARK    5  A    between atoms: N_3  and  C_7
REMARK    6  A    between atoms: C_5  and  C_6
REMARK    7  A    between atoms: C_7  and  C_8
REMARK    8  A    between atoms: C_8  and  C_9
REMARK    9  A    between atoms: C_9  and  N_10
REMARK   10  A    between atoms: C_11  and  C_12
REMARK   11  A    between atoms: C_20  and  N_21
REMARK   12  A    between atoms: C_28  and  N_29
REMARK                            x       y       z     vdW  Elec       q    Type
REMARK                         _______ _______ _______ _____ _____    ______ ____
ROOT
ATOM      1  N   UNL     1      47.682 -33.093 -55.515  0.00  0.00    -0.339 N 
ATOM      2  C   UNL     1      48.531 -32.293 -54.789  0.00  0.00    +0.057 A 
ATOM      3  C   UNL     1      49.899 -32.617 -54.640  0.00  0.00    +0.009 A 
ATOM      4  C   UNL     1      50.792 -31.811 -53.881  0.00  0.00    -0.031 A 
ATOM      5  C   UNL     1      52.140 -32.127 -53.714  0.00  0.00    +0.025 A 
ATOM      6  C   UNL     1      52.590 -33.329 -54.230  0.00  0.00    -0.040 A 
ATOM      7  C   UNL     1      51.746 -34.125 -55.008  0.00  0.00    -0.052 A 
ATOM      8  C   UNL     1      50.394 -33.779 -55.257  0.00  0.00    -0.007 A 
ATOM      9  C   UNL     1      49.537 -34.510 -56.128  0.00  0.00    +0.006 A 
ATOM     10  C   UNL     1      49.954 -35.660 -56.840  0.00  0.00    -0.050 A 
ATOM     11  C   UNL     1      49.128 -36.306 -57.761  0.00  0.00    -0.040 A 
ATOM     12  C   UNL     1      47.894 -35.773 -58.085  0.00  0.00    +0.027 A 
ATOM     13  C   UNL     1      47.441 -34.675 -57.354  0.00  0.00    -0.017 A 
ATOM     14  C   UNL     1      48.204 -34.072 -56.328  0.00  0.00    +0.052 A 
ENDROOT
BRANCH   2  15
ATOM     15  C   UNL     1      47.957 -31.051 -54.248  0.00  0.00    -0.001 A 
ATOM     16  C   UNL     1      47.362 -31.049 -52.972  0.00  0.00    -0.053 A 
ATOM     17  C   UNL     1      46.834 -29.874 -52.435  0.00  0.00    -0.061 A 
ATOM     18  C   UNL     1      46.883 -28.691 -53.167  0.00  0.00    -0.062 A 
ATOM     19  C   UNL     1      47.449 -28.679 -54.441  0.00  0.00    -0.061 A 
ATOM     20  C   UNL     1      47.983 -29.851 -54.982  0.00  0.00    -0.053 A 
ENDBRANCH   2  15
BRANCH   5  21
ATOM     21  N   UNL     1      52.937 -31.383 -52.847  0.00  0.00    -0.358 N 
ATOM     22  H   UNL     1      52.640 -31.220 -51.923  0.00  0.00    +0.000 HD
ATOM     23  H   UNL     1      53.798 -31.019 -53.158  0.00  0.00    +0.000 HD
ENDBRANCH   5  21
BRANCH  12  24
ATOM     24  N   UNL     1      47.022 -36.461 -58.928  0.00  0.00    -0.358 N 
ATOM     25  H   UNL     1      47.374 -37.123 -59.565  0.00  0.00    +0.000 HD
ATOM     26  H   UNL     1      46.054 -36.284 -58.886  0.00  0.00    +0.000 HD
ENDBRANCH  12  24
BRANCH   1  27
ATOM     27  C   UNL     1      46.189 -32.864 -55.449  0.00  0.00    +0.022 C 
BRANCH  27  28
ATOM     28  C   UNL     1      45.449 -33.642 -54.338  0.00  0.00    -0.049 C 
BRANCH  28  29
ATOM     29  C   UNL     1      45.272 -35.387 -54.545  0.00  0.00    -0.087 C 
BRANCH  29  30
ATOM     30  N   UNL     1      45.237 -35.929 -53.706  0.00  0.00    +0.378 N 
ATOM     31  C   UNL     1      45.201 -36.472 -52.867  0.00  0.00    -0.100 C 
BRANCH  30  33
ATOM     32  C   UNL     1      43.357 -37.056 -54.590  0.00  0.00    -0.080 C 
ATOM     33  C   UNL     1      44.238 -35.887 -53.721  0.00  0.00    -0.091 C 
ENDBRANCH  30  33
BRANCH  30  34
ATOM     34  C   UNL     1      46.236 -35.972 -53.692  0.00  0.00    -0.091 C 
ATOM     35  C   UNL     1      47.041 -37.238 -54.496  0.00  0.00    -0.080 C 
ENDBRANCH  30  34
ENDBRANCH  29  30
ENDBRANCH  28  29
ENDBRANCH  27  28
ENDBRANCH   1  27
TORSDOF 9
ENDMDL
MODEL 19
REMARK VINA RESULT:    -6.098     25.137     27.487
REMARK INTER + INTRA:          -1.154
REMARK INTER:                  -7.763
REMARK INTRA:                   6.609
REMARK UNBOUND:                 6.726
REMARK  Name = cpd367.pdb
REMARK  12 active torsions:
REMARK  status: ('A' for Active; 'I' for Inactive)
REMARK    1  A    between atoms: C_1  and  C_2
REMARK    2  A    between atoms: C_2  and  N_3
REMARK    3  A    between atoms: N_3  and  C_4
REMARK    4  A    between atoms: N_3  and  C_5
REMARK    5  A    between atoms: N_3  and  C_7
REMARK    6  A    between atoms: C_5  and  C_6
REMARK    7  A    between atoms: C_7  and  C_8
REMARK    8  A    between atoms: C_8  and  C_9
REMARK    9  A    between atoms: C_9  and  N_10
REMARK   10  A    between atoms: C_11  and  C_12
REMARK   11  A    between atoms: C_20  and  N_21
REMARK   12  A    between atoms: C_28  and  N_29
REMARK                            x       y       z     vdW  Elec       q    Type
REMARK                         _______ _______ _______ _____ _____    ______ ____
ROOT
ATOM      1  N   UNL     1      46.607 -33.681 -54.717  0.00  0.00    -0.339 N 
ATOM      2  C   UNL     1      47.031 -34.986 -54.777  0.00  0.00    +0.057 A 
ATOM      3  C   UNL     1      48.401 -35.320 -54.682  0.00  0.00    +0.009 A 
ATOM      4  C   UNL     1      48.863 -36.663 -54.756  0.00  0.00    -0.031 A 
ATOM      5  C   UNL     1      50.213 -37.003 -54.678  0.00  0.00    +0.025 A 
ATOM      6  C   UNL     1      51.137 -35.975 -54.626  0.00  0.00    -0.040 A 
ATOM      7  C   UNL     1      50.712 -34.648 -54.518  0.00  0.00    -0.052 A 
ATOM      8  C   UNL     1      49.341 -34.288 -54.514  0.00  0.00    -0.007 A 
ATOM      9  C   UNL     1      48.872 -32.961 -54.301  0.00  0.00    +0.006 A 
ATOM     10  C   UNL     1      49.733 -31.863 -54.067  0.00  0.00    -0.050 A 
ATOM     11  C   UNL     1      49.250 -30.588 -53.766  0.00  0.00    -0.040 A 
ATOM     12  C   UNL     1      47.894 -30.380 -53.585  0.00  0.00    +0.027 A 
ATOM     13  C   UNL     1      47.026 -31.434 -53.868  0.00  0.00    -0.017 A 
ATOM     14  C   UNL     1      47.478 -32.704 -54.295  0.00  0.00    +0.052 A 
ENDROOT
BRANCH   2  15
ATOM     15  C   UNL     1      45.979 -36.012 -54.867  0.00  0.00    -0.001 A 
ATOM     16  C   UNL     1      45.348 -36.476 -53.697  0.00  0.00    -0.053 A 
ATOM     17  C   UNL     1      44.333 -37.430 -53.767  0.00  0.00    -0.061 A 
ATOM     18  C   UNL     1      43.943 -37.941 -55.002  0.00  0.00    -0.062 A 
ATOM     19  C   UNL     1      44.571 -37.510 -56.169  0.00  0.00    -0.061 A 
ATOM     20  C   UNL     1      45.585 -36.551 -56.105  0.00  0.00    -0.053 A 
ENDBRANCH   2  15
BRANCH   5  21
ATOM     21  N   UNL     1      50.623 -38.316 -54.898  0.00  0.00    -0.358 N 
ATOM     22  H   UNL     1      51.577 -38.518 -55.035  0.00  0.00    +0.000 HD
ATOM     23  H   UNL     1      49.959 -39.043 -54.916  0.00  0.00    +0.000 HD
ENDBRANCH   5  21
BRANCH  12  24
ATOM     24  N   UNL     1      47.393 -29.095 -53.383  0.00  0.00    -0.358 N 
ATOM     25  H   UNL     1      46.998 -28.597 -54.134  0.00  0.00    +0.000 HD
ATOM     26  H   UNL     1      47.435 -28.686 -52.488  0.00  0.00    +0.000 HD
ENDBRANCH  12  24
BRANCH   1  27
ATOM     27  C   UNL     1      45.178 -33.334 -55.072  0.00  0.00    +0.022 C 
BRANCH  27  28
ATOM     28  C   UNL     1      44.932 -32.987 -56.558  0.00  0.00    -0.049 C 
BRANCH  28  29
ATOM     29  C   UNL     1      45.375 -31.366 -57.099  0.00  0.00    -0.087 C 
BRANCH  29  30
ATOM     30  N   UNL     1      45.536 -31.257 -58.080  0.00  0.00    +0.378 N 
ATOM     31  C   UNL     1      45.697 -31.148 -59.061  0.00  0.00    -0.100 C 
BRANCH  30  33
ATOM     32  C   UNL     1      47.628 -30.387 -57.411  0.00  0.00    -0.080 C 
ATOM     33  C   UNL     1      46.490 -31.530 -57.954  0.00  0.00    -0.091 C 
ENDBRANCH  30  33
BRANCH  30  34
ATOM     34  C   UNL     1      44.583 -30.983 -58.206  0.00  0.00    -0.091 C 
ATOM     35  C   UNL     1      44.104 -29.389 -57.849  0.00  0.00    -0.080 C 
ENDBRANCH  30  34
ENDBRANCH  29  30
ENDBRANCH  28  29
ENDBRANCH  27  28
ENDBRANCH   1  27
TORSDOF 9
ENDMDL
MODEL 20
REMARK VINA RESULT:    -5.543     26.284     30.045
REMARK INTER + INTRA:          -0.437
REMARK INTER:                  -7.279
REMARK INTRA:                   6.843
REMARK UNBOUND:                 6.726
REMARK  Name = cpd367.pdb
REMARK  12 active torsions:
REMARK  status: ('A' for Active; 'I' for Inactive)
REMARK    1  A    between atoms: C_1  and  C_2
REMARK    2  A    between atoms: C_2  and  N_3
REMARK    3  A    between atoms: N_3  and  C_4
REMARK    4  A    between atoms: N_3  and  C_5
REMARK    5  A    between atoms: N_3  and  C_7
REMARK    6  A    between atoms: C_5  and  C_6
REMARK    7  A    between atoms: C_7  and  C_8
REMARK    8  A    between atoms: C_8  and  C_9
REMARK    9  A    between atoms: C_9  and  N_10
REMARK   10  A    between atoms: C_11  and  C_12
REMARK   11  A    between atoms: C_20  and  N_21
REMARK   12  A    between atoms: C_28  and  N_29
REMARK                            x       y       z     vdW  Elec       q    Type
REMARK                         _______ _______ _______ _____ _____    ______ ____
ROOT
ATOM      1  N   UNL     1      57.141 -50.263 -45.562  0.00  0.00    -0.339 N 
ATOM      2  C   UNL     1      55.780 -50.244 -45.382  0.00  0.00    +0.057 A 
ATOM      3  C   UNL     1      55.033 -49.054 -45.538  0.00  0.00    +0.009 A 
ATOM      4  C   UNL     1      53.625 -49.009 -45.342  0.00  0.00    -0.031 A 
ATOM      5  C   UNL     1      52.879 -47.839 -45.479  0.00  0.00    +0.025 A 
ATOM      6  C   UNL     1      53.564 -46.661 -45.718  0.00  0.00    -0.040 A 
ATOM      7  C   UNL     1      54.942 -46.679 -45.948  0.00  0.00    -0.052 A 
ATOM      8  C   UNL     1      55.705 -47.872 -45.893  0.00  0.00    -0.007 A 
ATOM      9  C   UNL     1      57.088 -47.943 -46.224  0.00  0.00    +0.006 A 
ATOM     10  C   UNL     1      57.842 -46.822 -46.648  0.00  0.00    -0.050 A 
ATOM     11  C   UNL     1      59.171 -46.932 -47.059  0.00  0.00    -0.040 A 
ATOM     12  C   UNL     1      59.770 -48.174 -47.163  0.00  0.00    +0.027 A 
ATOM     13  C   UNL     1      59.064 -49.283 -46.696  0.00  0.00    -0.017 A 
ATOM     14  C   UNL     1      57.760 -49.189 -46.159  0.00  0.00    +0.052 A 
ENDROOT
BRANCH   2  15
ATOM     15  C   UNL     1      55.140 -51.539 -45.096  0.00  0.00    -0.001 A 
ATOM     16  C   UNL     1      54.824 -52.415 -46.152  0.00  0.00    -0.053 A 
ATOM     17  C   UNL     1      54.240 -53.656 -45.896  0.00  0.00    -0.061 A 
ATOM     18  C   UNL     1      53.954 -54.033 -44.587  0.00  0.00    -0.062 A 
ATOM     19  C   UNL     1      54.240 -53.170 -43.531  0.00  0.00    -0.061 A 
ATOM     20  C   UNL     1      54.829 -51.928 -43.781  0.00  0.00    -0.053 A 
ENDBRANCH   2  15
BRANCH   5  21
ATOM     21  N   UNL     1      51.528 -47.820 -45.138  0.00  0.00    -0.358 N 
ATOM     22  H   UNL     1      50.995 -47.006 -45.286  0.00  0.00    +0.000 HD
ATOM     23  H   UNL     1      51.107 -48.620 -44.749  0.00  0.00    +0.000 HD
ENDBRANCH   5  21
BRANCH  12  24
ATOM     24  N   UNL     1      61.123 -48.287 -47.477  0.00  0.00    -0.358 N 
ATOM     25  H   UNL     1      61.472 -47.884 -48.305  0.00  0.00    +0.000 HD
ATOM     26  H   UNL     1      61.731 -48.769 -46.871  0.00  0.00    +0.000 HD
ENDBRANCH  12  24
BRANCH   1  27
ATOM     27  C   UNL     1      57.942 -51.476 -45.146  0.00  0.00    +0.022 C 
BRANCH  27  28
ATOM     28  C   UNL     1      58.446 -51.466 -43.686  0.00  0.00    -0.049 C 
BRANCH  28  29
ATOM     29  C   UNL     1      58.787 -53.026 -42.932  0.00  0.00    -0.087 C 
BRANCH  29  30
ATOM     30  N   UNL     1      59.030 -53.003 -41.962  0.00  0.00    +0.378 N 
ATOM     31  C   UNL     1      59.274 -52.981 -40.992  0.00  0.00    -0.100 C 
BRANCH  30  33
ATOM     32  C   UNL     1      57.222 -54.503 -41.711  0.00  0.00    -0.080 C 
ATOM     33  C   UNL     1      58.061 -53.022 -41.718  0.00  0.00    -0.091 C 
ENDBRANCH  30  33
BRANCH  30  34
ATOM     34  C   UNL     1      60.000 -52.985 -42.206  0.00  0.00    -0.091 C 
ATOM     35  C   UNL     1      60.877 -54.442 -42.298  0.00  0.00    -0.080 C 
ENDBRANCH  30  34
ENDBRANCH  29  30
ENDBRANCH  28  29
ENDBRANCH  27  28
ENDBRANCH   1  27
TORSDOF 9
ENDMDL
