REMARK  Name = cpd367.pdb
REMARK  12 active torsions:
REMARK  status: ('A' for Active; 'I' for Inactive)
REMARK    1  A    between atoms: C_1  and  C_2
REMARK    2  A    between atoms: C_2  and  N_3
REMARK    3  A    between atoms: N_3  and  C_4
REMARK    4  A    between atoms: N_3  and  C_5
REMARK    5  A    between atoms: N_3  and  C_7
REMARK    6  A    between atoms: C_5  and  C_6
REMARK    7  A    between atoms: C_7  and  C_8
REMARK    8  A    between atoms: C_8  and  C_9
REMARK    9  A    between atoms: C_9  and  N_10
REMARK   10  A    between atoms: C_11  and  C_12
REMARK   11  A    between atoms: C_20  and  N_21
REMARK   12  A    between atoms: C_28  and  N_29
REMARK                            x       y       z     vdW  Elec       q    Type
REMARK                         _______ _______ _______ _____ _____    ______ ____
ROOT
ATOM      1  N   UNL     1      -2.876   1.580  -1.007  0.00  0.00    -0.339 N 
ATOM      2  C   UNL     1      -3.842   1.520  -0.032  0.00  0.00    +0.057 A 
ATOM      3  C   UNL     1      -4.217   2.667   0.704  0.00  0.00    +0.009 A 
ATOM      4  C   UNL     1      -5.204   2.625   1.727  0.00  0.00    -0.031 A 
ATOM      5  C   UNL     1      -5.572   3.746   2.470  0.00  0.00    +0.025 A 
ATOM      6  C   UNL     1      -4.869   4.919   2.260  0.00  0.00    -0.040 A 
ATOM      7  C   UNL     1      -3.918   5.000   1.240  0.00  0.00    -0.052 A 
ATOM      8  C   UNL     1      -3.588   3.892   0.420  0.00  0.00    -0.007 A 
ATOM      9  C   UNL     1      -2.703   3.966  -0.693  0.00  0.00    +0.006 A 
ATOM     10  C   UNL     1      -2.064   5.163  -1.096  0.00  0.00    -0.050 A 
ATOM     11  C   UNL     1      -1.276   5.235  -2.246  0.00  0.00    -0.040 A 
ATOM     12  C   UNL     1      -1.177   4.147  -3.094  0.00  0.00    +0.027 A 
ATOM     13  C   UNL     1      -1.751   2.943  -2.686  0.00  0.00    -0.017 A 
ATOM     14  C   UNL     1      -2.452   2.805  -1.466  0.00  0.00    +0.052 A 
ENDROOT
BRANCH   2  15
ATOM     15  C   UNL     1      -4.513   0.222   0.145  0.00  0.00    -0.001 A 
ATOM     16  C   UNL     1      -5.472  -0.208  -0.792  0.00  0.00    -0.053 A 
ATOM     17  C   UNL     1      -6.099  -1.446  -0.651  0.00  0.00    -0.061 A 
ATOM     18  C   UNL     1      -5.786  -2.265   0.430  0.00  0.00    -0.062 A 
ATOM     19  C   UNL     1      -4.855  -1.847   1.379  0.00  0.00    -0.061 A 
ATOM     20  C   UNL     1      -4.221  -0.610   1.241  0.00  0.00    -0.053 A 
ENDBRANCH   2  15
BRANCH   5  21
ATOM     21  N   UNL     1      -6.439   3.621   3.553  0.00  0.00    -0.358 N 
ATOM     22  H   UNL     1      -6.934   2.782   3.693  0.00  0.00    +0.000 HD
ATOM     23  H   UNL     1      -6.557   4.372   4.179  0.00  0.00    +0.000 HD
ENDBRANCH   5  21
BRANCH  12  24
ATOM     24  N   UNL     1      -0.316   4.176  -4.190  0.00  0.00    -0.358 N 
ATOM     25  H   UNL     1       0.088   5.027  -4.476  0.00  0.00    +0.000 HD
ATOM     26  H   UNL     1      -0.112   3.346  -4.678  0.00  0.00    +0.000 HD
ENDBRANCH  12  24
BRANCH   1  27
ATOM     27  C   UNL     1      -2.319   0.304  -1.597  0.00  0.00    +0.022 C 
BRANCH  27  28
ATOM     28  C   UNL     1      -0.779   0.182  -1.574  0.00  0.00    -0.049 C 
BRANCH  28  29
ATOM     29  C   UNL     1       0.000   0.000   0.000  0.00  0.00    -0.087 C 
BRANCH  29  30
ATOM     30  N   UNL     1       1.000   0.000   0.000  0.00  0.00    +0.378 N 
ATOM     31  C   UNL     1       2.000   0.000   0.000  0.00  0.00    -0.100 C 
BRANCH  30  33
ATOM     32  C   UNL     1       0.847  -1.842   1.472  0.00  0.00    -0.080 C 
ATOM     33  C   UNL     1       1.000  -1.000   0.000  0.00  0.00    -0.091 C 
ENDBRANCH  30  33
BRANCH  30  34
ATOM     34  C   UNL     1       1.000   1.000   0.000  0.00  0.00    -0.091 C 
ATOM     35  C   UNL     1       1.265   1.847   1.453  0.00  0.00    -0.080 C 
ENDBRANCH  30  34
ENDBRANCH  29  30
ENDBRANCH  28  29
ENDBRANCH  27  28
ENDBRANCH   1  27
TORSDOF 9
