@<TRIPOS>MOLECULE
*****
 31 34 0 0 0
SMALL
GASTEIGER

@<TRIPOS>ATOM
      1 C           0.1340   -1.5000    0.0000 C.3     1  UNL1        0.0671
      2 C           1.0000   -1.0000    0.0000 C.3     1  UNL1        0.1089
      3 N           1.0000    0.0000    0.0000 N.4     1  UNL1        0.3017
      4 C           2.0000    0.0000    0.0000 C.3     1  UNL1        0.1704
      5 C           1.0000    1.0000    0.0000 C.3     1  UNL1        0.1089
      6 C           0.1340    1.5000    0.0000 C.3     1  UNL1        0.0671
      7 C           0.0000    0.0000    0.0000 C.3     1  UNL1        0.1161
      8 C          -0.5000    0.8660    0.0000 C.3     1  UNL1        0.1460
      9 C          -1.5000    0.8660    0.0000 C.3     1  UNL1        0.3283
     10 N          -2.0000    1.7321    0.0000 N.ar    1  UNL1       -0.1692
     11 C          -3.0000    1.7321    0.0000 C.ar    1  UNL1        0.2259
     12 C          -3.5000    0.8660    0.0000 C.ar    1  UNL1        0.0635
     13 C          -3.0000    0.0000    0.0000 C.ar    1  UNL1        0.0059
     14 C          -3.5000   -0.8660    0.0000 C.ar    1  UNL1        0.0002
     15 C          -4.5000   -0.8660    0.0000 C.ar    1  UNL1        0.0000
     16 C          -5.0000   -0.0000    0.0000 C.ar    1  UNL1        0.0002
     17 C          -4.5000    0.8660    0.0000 C.ar    1  UNL1        0.0059
     18 C          -3.5000    2.5981    0.0000 C.ar    1  UNL1        0.0651
     19 C          -4.5000    2.5981    0.0000 C.ar    1  UNL1        0.0240
     20 C          -5.0000    3.4641    0.0000 C.ar    1  UNL1        0.0893
     21 N          -6.0000    3.4641    0.0000 N.pl3   1  UNL1       -0.1281
     22 C          -4.5000    4.3301    0.0000 C.ar    1  UNL1        0.0181
     23 C          -3.5000    4.3301    0.0000 C.ar    1  UNL1        0.0018
     24 C          -3.0000    3.4641    0.0000 C.ar    1  UNL1        0.0115
     25 C          -2.0000    3.4641    0.0000 C.ar    1  UNL1        0.0638
     26 C          -1.5000    4.3301    0.0000 C.ar    1  UNL1        0.0073
     27 C          -0.5000    4.3301    0.0000 C.ar    1  UNL1        0.0185
     28 C          -0.0000    3.4641    0.0000 C.ar    1  UNL1        0.0950
     29 N           1.0000    3.4641    0.0000 N.pl3   1  UNL1       -0.1279
     30 C          -0.5000    2.5981    0.0000 C.ar    1  UNL1        0.0872
     31 C          -1.5000    2.5981    0.0000 C.ar    1  UNL1        0.2274
@<TRIPOS>UNITY_ATOM_ATTR
3 1
charge 1
10 1
charge 1
@<TRIPOS>BOND
     1     1     2    1
     2     2     3    1
     3     3     4    1
     4     3     5    1
     5     5     6    1
     6     3     7    1
     7     7     8    1
     8     8     9    1
     9     9    10    1
    10    10    11   ar
    11    11    12    1
    12    12    13   ar
    13    13    14   ar
    14    14    15   ar
    15    15    16   ar
    16    16    17   ar
    17    12    17   ar
    18    11    18   ar
    19    18    19   ar
    20    19    20   ar
    21    20    21    1
    22    20    22   ar
    23    22    23   ar
    24    23    24   ar
    25    18    24   ar
    26    24    25   ar
    27    25    26   ar
    28    26    27   ar
    29    27    28   ar
    30    28    29    1
    31    28    30   ar
    32    30    31   ar
    33    25    31   ar
    34    10    31   ar
