@<TRIPOS>MOLECULE
*****
 34 37 0 0 0
SMALL
GASTEIGER

@<TRIPOS>ATOM
      1 C          -4.5688   -1.1125    0.0000 C.3     1  UNL1        0.1122
      2 N          -3.5688   -1.1125    0.0000 N.pl3   1  UNL1       -0.3041
      3 C          -3.0688   -0.2465    0.0000 C.3     1  UNL1        0.1122
      4 C          -3.0688   -1.9785    0.0000 C.ar    1  UNL1        0.0479
      5 C          -3.5688   -2.8446    0.0000 C.ar    1  UNL1        0.0142
      6 C          -3.0688   -3.7106    0.0000 C.ar    1  UNL1       -0.0025
      7 C          -2.0688   -3.7106    0.0000 C.ar    1  UNL1       -0.0129
      8 C          -1.5688   -4.5766    0.0000 C.3     1  UNL1        0.1131
      9 C          -0.5688   -4.5766    0.0000 C.2     1  UNL1        0.2458
     10 O          -0.0688   -3.7106    0.0000 O.2     1  UNL1       -0.2730
     11 N           1.7353    0.0000    0.0000 N.am    1  UNL1       -0.2051
     12 C           0.8676    0.5009    0.0000 C.3     1  UNL1        0.1152
     13 C           0.0000    0.0000    0.0000 C.3     1  UNL1        0.0234
     14 C          -0.8676    0.5009    0.0000 C.3     1  UNL1        0.0018
     15 C          -1.7353    0.0000    0.0000 C.3     1  UNL1        0.0001
     16 C          -2.6029    0.5009    0.0000 C.3     1  UNL1        0.0000
     17 C          -3.4706   -0.0000    0.0000 C.3     1  UNL1        0.0000
     18 C          -4.3382    0.5009    0.0000 C.3     1  UNL1        0.0000
     19 C          -5.2059   -0.0000    0.0000 C.3     1  UNL1        0.0015
     20 C          -6.0735    0.5009    0.0000 C.3     1  UNL1        0.0188
     21 C          -6.0735    1.5028    0.0000 C.3     1  UNL1        0.0886
     22 N          -5.2059    2.0037    0.0000 N.3     1  UNL1       -0.2208
     23 C           1.4312    4.0837    0.0000 C.3     1  UNL1        0.0594
     24 C           2.1384    4.7908    0.0000 C.3     1  UNL1        0.0161
     25 C           1.8795    5.7567    0.0000 C.3     1  UNL1        0.0013
     26 C           2.5610    5.3965    0.0000 C.3     1  UNL1        0.0001
     27 C           2.7043    4.6391    0.0000 C.3     1  UNL1        0.0013
     28 C           1.6486    5.6948    0.0000 C.3     1  UNL1        0.0001
     29 C           0.2065    5.3084    0.0000 C.3     1  UNL1        0.0013
     30 C           0.9136    6.0155    0.0000 C.3     1  UNL1        0.0001
     31 C           0.4653    4.3425    0.0000 C.3     1  UNL1        0.0161
     32 C           2.2015    4.0548    0.0000 C.3     1  UNL1        0.0161
     33 C          -1.5688   -2.8446    0.0000 C.ar    1  UNL1       -0.0025
     34 C          -2.0688   -1.9785    0.0000 C.ar    1  UNL1        0.0142
@<TRIPOS>BOND
     1     1     2    1
     2     2     3    1
     3     2     4    1
     4     4     5   ar
     5     5     6   ar
     6     6     7   ar
     7     7     8    1
     8     8     9    1
     9     9    10    2
    10     9    11   am
    11    11    12    1
    12    12    13    1
    13    13    14    1
    14    14    15    1
    15    15    16    1
    16    16    17    1
    17    17    18    1
    18    18    19    1
    19    19    20    1
    20    20    21    1
    21    21    22    1
    22    22    23    1
    23    23    24    1
    24    24    25    1
    25    25    26    1
    26    26    27    1
    27    27    28    1
    28    28    29    1
    29    29    30    1
    30    25    30    1
    31    29    31    1
    32    23    31    1
    33    27    32    1
    34    23    32    1
    35     7    33   ar
    36    33    34   ar
    37     4    34   ar
