MODEL 1
REMARK VINA RESULT:    -6.116      0.000      0.000
REMARK INTER + INTRA:         -14.735
REMARK INTER:                 -11.479
REMARK INTRA:                  -3.256
REMARK UNBOUND:                -3.256
REMARK  Name = cpd171.pdb
REMARK  17 active torsions:
REMARK  status: ('A' for Active; 'I' for Inactive)
REMARK    1  A    between atoms: C_1  and  N_2
REMARK    2  A    between atoms: N_2  and  C_3
REMARK    3  A    between atoms: N_2  and  C_4
REMARK    4  A    between atoms: C_7  and  C_8
REMARK    5  A    between atoms: C_8  and  C_9
REMARK    6  A    between atoms: N_11  and  C_12
REMARK    7  A    between atoms: C_12  and  C_13
REMARK    8  A    between atoms: C_13  and  C_14
REMARK    9  A    between atoms: C_14  and  C_15
REMARK   10  A    between atoms: C_15  and  C_16
REMARK   11  A    between atoms: C_16  and  C_17
REMARK   12  A    between atoms: C_17  and  C_18
REMARK   13  A    between atoms: C_18  and  C_19
REMARK   14  A    between atoms: C_19  and  C_20
REMARK   15  A    between atoms: C_20  and  C_21
REMARK   16  A    between atoms: C_21  and  N_22
REMARK   17  A    between atoms: N_22  and  C_23
REMARK                            x       y       z     vdW  Elec       q    Type
REMARK                         _______ _______ _______ _____ _____    ______ ____
ROOT
ATOM      1  C   UNL     1      42.333 -18.317 -39.334  0.00  0.00    -0.053 C 
ENDROOT
BRANCH   1   2
ATOM      2  C   UNL     1      43.835 -18.491 -39.097  0.00  0.00    -0.053 C 
BRANCH   2   3
ATOM      3  C   UNL     1      44.430 -17.290 -38.359  0.00  0.00    -0.052 C 
BRANCH   3   4
ATOM      4  C   UNL     1      45.891 -17.545 -37.990  0.00  0.00    -0.037 C 
BRANCH   4   5
ATOM      5  C   UNL     1      46.298 -16.797 -36.722  0.00  0.00    +0.012 C 
BRANCH   5   8
ATOM      6  C   UNL     1      45.861 -18.336 -34.756  0.00  0.00    +0.217 C 
ATOM      7  O   UNL     1      46.318 -19.271 -34.095  0.00  0.00    -0.275 OA
ATOM      8  N   UNL     1      46.675 -17.723 -35.669  0.00  0.00    -0.315 N 
ATOM      9  H   UNL     1      47.634 -17.935 -35.604  0.00  0.00    +0.000 HD
BRANCH   6  10
ATOM     10  C   UNL     1      44.443 -17.831 -34.541  0.00  0.00    +0.049 C 
BRANCH  10  14
ATOM     11  C   UNL     1      41.522 -21.058 -34.099  0.00  0.00    +0.029 A 
ATOM     12  C   UNL     1      41.839 -20.190 -33.039  0.00  0.00    -0.040 A 
ATOM     13  C   UNL     1      42.759 -19.140 -33.176  0.00  0.00    -0.056 A 
ATOM     14  C   UNL     1      43.408 -18.918 -34.391  0.00  0.00    -0.039 A 
ATOM     15  C   UNL     1      43.058 -19.722 -35.477  0.00  0.00    -0.056 A 
ATOM     16  C   UNL     1      42.135 -20.767 -35.328  0.00  0.00    -0.040 A 
BRANCH  11  18
ATOM     17  C   UNL     1      39.785 -22.169 -32.740  0.00  0.00    +0.000 C 
ATOM     18  N   UNL     1      40.618 -22.118 -33.942  0.00  0.00    -0.336 N 
ATOM     19  C   UNL     1      40.006 -22.678 -35.148  0.00  0.00    +0.000 C 
ENDBRANCH  11  18
ENDBRANCH  10  14
ENDBRANCH   6  10
ENDBRANCH   5   8
ENDBRANCH   4   5
ENDBRANCH   3   4
ENDBRANCH   2   3
ENDBRANCH   1   2
BRANCH   1  20
ATOM     20  C   UNL     1      41.521 -19.568 -38.987  0.00  0.00    -0.053 C 
BRANCH  20  21
ATOM     21  C   UNL     1      42.358 -20.850 -39.003  0.00  0.00    -0.053 C 
BRANCH  21  22
ATOM     22  C   UNL     1      41.657 -21.966 -39.780  0.00  0.00    -0.052 C 
BRANCH  22  23
ATOM     23  C   UNL     1      41.840 -21.904 -41.303  0.00  0.00    -0.040 C 
BRANCH  23  24
ATOM     24  C   UNL     1      43.055 -21.098 -41.785  0.00  0.00    -0.004 C 
BRANCH  24  25
ATOM     25  N   UNL     1      44.119 -21.986 -42.244  0.00  0.00    -0.311 N 
ATOM     26  H   UNL     1      44.141 -21.941 -43.262  0.00  0.00    +0.000 HD
ATOM     27  H   UNL     1      43.886 -22.902 -41.862  0.00  0.00    +0.000 HD
BRANCH  25  28
ATOM     28  C   UNL     1      45.474 -21.698 -41.756  0.00  0.00    +0.020 C 
ATOM     29  C   UNL     1      45.481 -22.037 -40.238  0.00  0.00    -0.032 C 
ATOM     30  C   UNL     1      46.867 -21.784 -39.624  0.00  0.00    -0.039 C 
ATOM     31  C   UNL     1      47.904 -22.667 -40.336  0.00  0.00    -0.047 C 
ATOM     32  C   UNL     1      47.934 -22.332 -41.835  0.00  0.00    -0.039 C 
ATOM     33  C   UNL     1      48.301 -20.851 -42.017  0.00  0.00    -0.047 C 
ATOM     34  C   UNL     1      47.269 -19.958 -41.308  0.00  0.00    -0.039 C 
ATOM     35  C   UNL     1      47.241 -20.306 -39.812  0.00  0.00    -0.047 C 
ATOM     36  C   UNL     1      45.877 -20.210 -41.917  0.00  0.00    -0.032 C 
ATOM     37  C   UNL     1      46.542 -22.588 -42.443  0.00  0.00    -0.032 C 
ENDBRANCH  25  28
ENDBRANCH  24  25
ENDBRANCH  23  24
ENDBRANCH  22  23
ENDBRANCH  21  22
ENDBRANCH  20  21
ENDBRANCH   1  20
TORSDOF 15
ENDMDL
MODEL 2
REMARK VINA RESULT:    -5.820      1.634      7.191
REMARK INTER + INTRA:         -14.179
REMARK INTER:                 -10.143
REMARK INTRA:                  -4.036
REMARK UNBOUND:                -3.256
REMARK  Name = cpd171.pdb
REMARK  17 active torsions:
REMARK  status: ('A' for Active; 'I' for Inactive)
REMARK    1  A    between atoms: C_1  and  N_2
REMARK    2  A    between atoms: N_2  and  C_3
REMARK    3  A    between atoms: N_2  and  C_4
REMARK    4  A    between atoms: C_7  and  C_8
REMARK    5  A    between atoms: C_8  and  C_9
REMARK    6  A    between atoms: N_11  and  C_12
REMARK    7  A    between atoms: C_12  and  C_13
REMARK    8  A    between atoms: C_13  and  C_14
REMARK    9  A    between atoms: C_14  and  C_15
REMARK   10  A    between atoms: C_15  and  C_16
REMARK   11  A    between atoms: C_16  and  C_17
REMARK   12  A    between atoms: C_17  and  C_18
REMARK   13  A    between atoms: C_18  and  C_19
REMARK   14  A    between atoms: C_19  and  C_20
REMARK   15  A    between atoms: C_20  and  C_21
REMARK   16  A    between atoms: C_21  and  N_22
REMARK   17  A    between atoms: N_22  and  C_23
REMARK                            x       y       z     vdW  Elec       q    Type
REMARK                         _______ _______ _______ _____ _____    ______ ____
ROOT
ATOM      1  C   UNL     1      41.342 -18.444 -37.521  0.00  0.00    -0.053 C 
ENDROOT
BRANCH   1   2
ATOM      2  C   UNL     1      41.967 -17.832 -36.264  0.00  0.00    -0.053 C 
BRANCH   2   3
ATOM      3  C   UNL     1      43.493 -17.931 -36.290  0.00  0.00    -0.052 C 
BRANCH   3   4
ATOM      4  C   UNL     1      44.017 -18.625 -35.033  0.00  0.00    -0.037 C 
BRANCH   4   5
ATOM      5  C   UNL     1      45.216 -17.892 -34.435  0.00  0.00    +0.012 C 
BRANCH   5   8
ATOM      6  C   UNL     1      47.409 -18.713 -35.405  0.00  0.00    +0.217 C 
ATOM      7  O   UNL     1      48.455 -19.314 -35.150  0.00  0.00    -0.275 OA
ATOM      8  N   UNL     1      46.406 -18.722 -34.474  0.00  0.00    -0.315 N 
ATOM      9  H   UNL     1      46.504 -19.371 -33.741  0.00  0.00    +0.000 HD
BRANCH   6  10
ATOM     10  C   UNL     1      47.203 -18.012 -36.739  0.00  0.00    +0.049 C 
BRANCH  10  14
ATOM     11  C   UNL     1      45.970 -20.638 -40.014  0.00  0.00    +0.029 A 
ATOM     12  C   UNL     1      46.065 -21.096 -38.687  0.00  0.00    -0.040 A 
ATOM     13  C   UNL     1      46.439 -20.257 -37.627  0.00  0.00    -0.056 A 
ATOM     14  C   UNL     1      46.742 -18.915 -37.856  0.00  0.00    -0.039 A 
ATOM     15  C   UNL     1      46.588 -18.420 -39.152  0.00  0.00    -0.056 A 
ATOM     16  C   UNL     1      46.210 -19.268 -40.204  0.00  0.00    -0.040 A 
BRANCH  11  18
ATOM     17  C   UNL     1      44.653 -21.030 -42.065  0.00  0.00    +0.000 C 
ATOM     18  N   UNL     1      45.617 -21.494 -41.067  0.00  0.00    -0.336 N 
ATOM     19  C   UNL     1      46.637 -22.416 -41.568  0.00  0.00    +0.000 C 
ENDBRANCH  11  18
ENDBRANCH  10  14
ENDBRANCH   6  10
ENDBRANCH   5   8
ENDBRANCH   4   5
ENDBRANCH   3   4
ENDBRANCH   2   3
ENDBRANCH   1   2
BRANCH   1  20
ATOM     20  C   UNL     1      42.297 -18.460 -38.719  0.00  0.00    -0.053 C 
BRANCH  20  21
ATOM     21  C   UNL     1      42.293 -19.793 -39.471  0.00  0.00    -0.053 C 
BRANCH  21  22
ATOM     22  C   UNL     1      42.441 -20.976 -38.513  0.00  0.00    -0.052 C 
BRANCH  22  23
ATOM     23  C   UNL     1      41.302 -22.004 -38.577  0.00  0.00    -0.040 C 
BRANCH  23  24
ATOM     24  C   UNL     1      40.798 -22.510 -37.218  0.00  0.00    -0.004 C 
BRANCH  24  25
ATOM     25  N   UNL     1      39.776 -21.618 -36.678  0.00  0.00    -0.311 N 
ATOM     26  H   UNL     1      38.867 -22.040 -36.867  0.00  0.00    +0.000 HD
ATOM     27  H   UNL     1      39.933 -20.722 -37.138  0.00  0.00    +0.000 HD
BRANCH  25  28
ATOM     28  C   UNL     1      39.843 -21.331 -35.239  0.00  0.00    +0.020 C 
ATOM     29  C   UNL     1      41.352 -21.236 -34.876  0.00  0.00    -0.032 C 
ATOM     30  C   UNL     1      41.541 -20.921 -33.383  0.00  0.00    -0.039 C 
ATOM     31  C   UNL     1      40.864 -19.579 -33.061  0.00  0.00    -0.047 C 
ATOM     32  C   UNL     1      39.365 -19.658 -33.388  0.00  0.00    -0.039 C 
ATOM     33  C   UNL     1      38.722 -20.778 -32.554  0.00  0.00    -0.047 C 
ATOM     34  C   UNL     1      39.391 -22.125 -32.870  0.00  0.00    -0.039 C 
ATOM     35  C   UNL     1      40.891 -22.034 -32.547  0.00  0.00    -0.047 C 
ATOM     36  C   UNL     1      39.210 -22.443 -34.366  0.00  0.00    -0.032 C 
ATOM     37  C   UNL     1      39.185 -19.973 -34.884  0.00  0.00    -0.032 C 
ENDBRANCH  25  28
ENDBRANCH  24  25
ENDBRANCH  23  24
ENDBRANCH  22  23
ENDBRANCH  21  22
ENDBRANCH  20  21
ENDBRANCH   1  20
TORSDOF 15
ENDMDL
MODEL 3
REMARK VINA RESULT:    -5.648      2.531      7.293
REMARK INTER + INTRA:         -13.856
REMARK INTER:                  -9.730
REMARK INTRA:                  -4.126
REMARK UNBOUND:                -3.256
REMARK  Name = cpd171.pdb
REMARK  17 active torsions:
REMARK  status: ('A' for Active; 'I' for Inactive)
REMARK    1  A    between atoms: C_1  and  N_2
REMARK    2  A    between atoms: N_2  and  C_3
REMARK    3  A    between atoms: N_2  and  C_4
REMARK    4  A    between atoms: C_7  and  C_8
REMARK    5  A    between atoms: C_8  and  C_9
REMARK    6  A    between atoms: N_11  and  C_12
REMARK    7  A    between atoms: C_12  and  C_13
REMARK    8  A    between atoms: C_13  and  C_14
REMARK    9  A    between atoms: C_14  and  C_15
REMARK   10  A    between atoms: C_15  and  C_16
REMARK   11  A    between atoms: C_16  and  C_17
REMARK   12  A    between atoms: C_17  and  C_18
REMARK   13  A    between atoms: C_18  and  C_19
REMARK   14  A    between atoms: C_19  and  C_20
REMARK   15  A    between atoms: C_20  and  C_21
REMARK   16  A    between atoms: C_21  and  N_22
REMARK   17  A    between atoms: N_22  and  C_23
REMARK                            x       y       z     vdW  Elec       q    Type
REMARK                         _______ _______ _______ _____ _____    ______ ____
ROOT
ATOM      1  C   UNL     1      39.417 -19.699 -37.514  0.00  0.00    -0.053 C 
ENDROOT
BRANCH   1   2
ATOM      2  C   UNL     1      40.123 -19.150 -38.756  0.00  0.00    -0.053 C 
BRANCH   2   3
ATOM      3  C   UNL     1      41.644 -19.175 -38.595  0.00  0.00    -0.052 C 
BRANCH   3   4
ATOM      4  C   UNL     1      42.174 -20.608 -38.636  0.00  0.00    -0.037 C 
BRANCH   4   5
ATOM      5  C   UNL     1      42.726 -20.973 -40.013  0.00  0.00    +0.012 C 
BRANCH   5   8
ATOM      6  C   UNL     1      45.148 -21.512 -40.525  0.00  0.00    +0.217 C 
ATOM      7  O   UNL     1      46.147 -22.114 -40.124  0.00  0.00    -0.275 OA
ATOM      8  N   UNL     1      43.954 -21.736 -39.896  0.00  0.00    -0.315 N 
ATOM      9  H   UNL     1      43.925 -22.511 -39.290  0.00  0.00    +0.000 HD
BRANCH   6  10
ATOM     10  C   UNL     1      45.214 -20.574 -41.721  0.00  0.00    +0.049 C 
BRANCH  10  14
ATOM     11  C   UNL     1      46.236 -16.415 -40.827  0.00  0.00    +0.029 A 
ATOM     12  C   UNL     1      44.905 -16.832 -41.013  0.00  0.00    -0.040 A 
ATOM     13  C   UNL     1      44.566 -18.166 -41.281  0.00  0.00    -0.056 A 
ATOM     14  C   UNL     1      45.554 -19.146 -41.377  0.00  0.00    -0.039 A 
ATOM     15  C   UNL     1      46.875 -18.770 -41.127  0.00  0.00    -0.056 A 
ATOM     16  C   UNL     1      47.203 -17.433 -40.859  0.00  0.00    -0.040 A 
BRANCH  11  18
ATOM     17  C   UNL     1      46.285 -14.502 -39.267  0.00  0.00    +0.000 C 
ATOM     18  N   UNL     1      46.563 -15.074 -40.584  0.00  0.00    -0.336 N 
ATOM     19  C   UNL     1      47.735 -14.524 -41.267  0.00  0.00    +0.000 C 
ENDBRANCH  11  18
ENDBRANCH  10  14
ENDBRANCH   6  10
ENDBRANCH   5   8
ENDBRANCH   4   5
ENDBRANCH   3   4
ENDBRANCH   2   3
ENDBRANCH   1   2
BRANCH   1  20
ATOM     20  C   UNL     1      39.635 -18.836 -36.268  0.00  0.00    -0.053 C 
BRANCH  20  21
ATOM     21  C   UNL     1      40.298 -19.599 -35.118  0.00  0.00    -0.053 C 
BRANCH  21  22
ATOM     22  C   UNL     1      41.661 -19.001 -34.764  0.00  0.00    -0.052 C 
BRANCH  22  23
ATOM     23  C   UNL     1      42.467 -19.801 -33.731  0.00  0.00    -0.040 C 
BRANCH  23  24
ATOM     24  C   UNL     1      43.769 -19.138 -33.259  0.00  0.00    -0.004 C 
BRANCH  24  25
ATOM     25  N   UNL     1      44.932 -19.833 -33.803  0.00  0.00    -0.311 N 
ATOM     26  H   UNL     1      44.642 -20.780 -34.045  0.00  0.00    +0.000 HD
ATOM     27  H   UNL     1      45.642 -19.778 -33.073  0.00  0.00    +0.000 HD
BRANCH  25  28
ATOM     28  C   UNL     1      45.556 -19.241 -34.994  0.00  0.00    +0.020 C 
ATOM     29  C   UNL     1      44.970 -19.993 -36.222  0.00  0.00    -0.032 C 
ATOM     30  C   UNL     1      45.549 -19.440 -37.535  0.00  0.00    -0.039 C 
ATOM     31  C   UNL     1      45.199 -17.948 -37.651  0.00  0.00    -0.047 C 
ATOM     32  C   UNL     1      45.791 -17.178 -36.460  0.00  0.00    -0.039 C 
ATOM     33  C   UNL     1      47.318 -17.355 -36.449  0.00  0.00    -0.047 C 
ATOM     34  C   UNL     1      47.678 -18.845 -36.332  0.00  0.00    -0.039 C 
ATOM     35  C   UNL     1      47.076 -19.607 -37.523  0.00  0.00    -0.047 C 
ATOM     36  C   UNL     1      47.096 -19.406 -35.021  0.00  0.00    -0.032 C 
ATOM     37  C   UNL     1      45.207 -17.738 -35.150  0.00  0.00    -0.032 C 
ENDBRANCH  25  28
ENDBRANCH  24  25
ENDBRANCH  23  24
ENDBRANCH  22  23
ENDBRANCH  21  22
ENDBRANCH  20  21
ENDBRANCH   1  20
TORSDOF 15
ENDMDL
MODEL 4
REMARK VINA RESULT:    -5.602      2.127      4.997
REMARK INTER + INTRA:         -13.770
REMARK INTER:                  -9.434
REMARK INTRA:                  -4.337
REMARK UNBOUND:                -3.256
REMARK  Name = cpd171.pdb
REMARK  17 active torsions:
REMARK  status: ('A' for Active; 'I' for Inactive)
REMARK    1  A    between atoms: C_1  and  N_2
REMARK    2  A    between atoms: N_2  and  C_3
REMARK    3  A    between atoms: N_2  and  C_4
REMARK    4  A    between atoms: C_7  and  C_8
REMARK    5  A    between atoms: C_8  and  C_9
REMARK    6  A    between atoms: N_11  and  C_12
REMARK    7  A    between atoms: C_12  and  C_13
REMARK    8  A    between atoms: C_13  and  C_14
REMARK    9  A    between atoms: C_14  and  C_15
REMARK   10  A    between atoms: C_15  and  C_16
REMARK   11  A    between atoms: C_16  and  C_17
REMARK   12  A    between atoms: C_17  and  C_18
REMARK   13  A    between atoms: C_18  and  C_19
REMARK   14  A    between atoms: C_19  and  C_20
REMARK   15  A    between atoms: C_20  and  C_21
REMARK   16  A    between atoms: C_21  and  N_22
REMARK   17  A    between atoms: N_22  and  C_23
REMARK                            x       y       z     vdW  Elec       q    Type
REMARK                         _______ _______ _______ _____ _____    ______ ____
ROOT
ATOM      1  C   UNL     1      39.128 -18.317 -39.653  0.00  0.00    -0.053 C 
ENDROOT
BRANCH   1   2
ATOM      2  C   UNL     1      39.313 -19.558 -38.777  0.00  0.00    -0.053 C 
BRANCH   2   3
ATOM      3  C   UNL     1      40.413 -20.471 -39.322  0.00  0.00    -0.052 C 
BRANCH   3   4
ATOM      4  C   UNL     1      40.234 -21.903 -38.818  0.00  0.00    -0.037 C 
BRANCH   4   5
ATOM      5  C   UNL     1      39.267 -21.975 -37.637  0.00  0.00    +0.012 C 
BRANCH   5   8
ATOM      6  C   UNL     1      40.362 -21.884 -35.354  0.00  0.00    +0.217 C 
ATOM      7  O   UNL     1      40.664 -22.548 -34.360  0.00  0.00    -0.275 OA
ATOM      8  N   UNL     1      39.914 -22.540 -36.468  0.00  0.00    -0.315 N 
ATOM      9  H   UNL     1      40.047 -23.515 -36.477  0.00  0.00    +0.000 HD
BRANCH   6  10
ATOM     10  C   UNL     1      40.521 -20.371 -35.375  0.00  0.00    +0.049 C 
BRANCH  10  14
ATOM     11  C   UNL     1      44.676 -19.045 -35.724  0.00  0.00    +0.029 A 
ATOM     12  C   UNL     1      44.133 -20.026 -36.573  0.00  0.00    -0.040 A 
ATOM     13  C   UNL     1      42.797 -20.444 -36.482  0.00  0.00    -0.056 A 
ATOM     14  C   UNL     1      41.944 -19.894 -35.526  0.00  0.00    -0.039 A 
ATOM     15  C   UNL     1      42.439 -18.869 -34.718  0.00  0.00    -0.056 A 
ATOM     16  C   UNL     1      43.776 -18.458 -34.819  0.00  0.00    -0.040 A 
BRANCH  11  18
ATOM     17  C   UNL     1      47.034 -19.663 -36.113  0.00  0.00    +0.000 C 
ATOM     18  N   UNL     1      46.020 -18.654 -35.810  0.00  0.00    -0.336 N 
ATOM     19  C   UNL     1      46.308 -17.310 -36.311  0.00  0.00    +0.000 C 
ENDBRANCH  11  18
ENDBRANCH  10  14
ENDBRANCH   6  10
ENDBRANCH   5   8
ENDBRANCH   4   5
ENDBRANCH   3   4
ENDBRANCH   2   3
ENDBRANCH   1   2
BRANCH   1  20
ATOM     20  C   UNL     1      39.539 -17.019 -38.950  0.00  0.00    -0.053 C 
BRANCH  20  21
ATOM     21  C   UNL     1      40.197 -17.257 -37.589  0.00  0.00    -0.053 C 
BRANCH  21  22
ATOM     22  C   UNL     1      41.630 -16.723 -37.561  0.00  0.00    -0.052 C 
BRANCH  22  23
ATOM     23  C   UNL     1      42.316 -16.646 -38.933  0.00  0.00    -0.040 C 
BRANCH  23  24
ATOM     24  C   UNL     1      43.524 -17.576 -39.115  0.00  0.00    -0.004 C 
BRANCH  24  25
ATOM     25  N   UNL     1      43.257 -18.579 -40.142  0.00  0.00    -0.311 N 
ATOM     26  H   UNL     1      43.027 -18.085 -41.005  0.00  0.00    +0.000 HD
ATOM     27  H   UNL     1      42.503 -19.153 -39.766  0.00  0.00    +0.000 HD
BRANCH  25  28
ATOM     28  C   UNL     1      44.345 -19.519 -40.444  0.00  0.00    +0.020 C 
ATOM     29  C   UNL     1      44.544 -19.485 -41.986  0.00  0.00    -0.032 C 
ATOM     30  C   UNL     1      45.679 -20.431 -42.415  0.00  0.00    -0.039 C 
ATOM     31  C   UNL     1      46.985 -19.994 -41.733  0.00  0.00    -0.047 C 
ATOM     32  C   UNL     1      46.820 -20.043 -40.206  0.00  0.00    -0.039 C 
ATOM     33  C   UNL     1      46.466 -21.477 -39.781  0.00  0.00    -0.047 C 
ATOM     34  C   UNL     1      45.159 -21.924 -40.457  0.00  0.00    -0.039 C 
ATOM     35  C   UNL     1      45.332 -21.864 -41.982  0.00  0.00    -0.047 C 
ATOM     36  C   UNL     1      44.020 -20.978 -40.035  0.00  0.00    -0.032 C 
ATOM     37  C   UNL     1      45.682 -19.094 -39.785  0.00  0.00    -0.032 C 
ENDBRANCH  25  28
ENDBRANCH  24  25
ENDBRANCH  23  24
ENDBRANCH  22  23
ENDBRANCH  21  22
ENDBRANCH  20  21
ENDBRANCH   1  20
TORSDOF 15
ENDMDL
MODEL 5
REMARK VINA RESULT:    -5.570      2.406      4.962
REMARK INTER + INTRA:         -13.710
REMARK INTER:                  -9.092
REMARK INTRA:                  -4.618
REMARK UNBOUND:                -3.256
REMARK  Name = cpd171.pdb
REMARK  17 active torsions:
REMARK  status: ('A' for Active; 'I' for Inactive)
REMARK    1  A    between atoms: C_1  and  N_2
REMARK    2  A    between atoms: N_2  and  C_3
REMARK    3  A    between atoms: N_2  and  C_4
REMARK    4  A    between atoms: C_7  and  C_8
REMARK    5  A    between atoms: C_8  and  C_9
REMARK    6  A    between atoms: N_11  and  C_12
REMARK    7  A    between atoms: C_12  and  C_13
REMARK    8  A    between atoms: C_13  and  C_14
REMARK    9  A    between atoms: C_14  and  C_15
REMARK   10  A    between atoms: C_15  and  C_16
REMARK   11  A    between atoms: C_16  and  C_17
REMARK   12  A    between atoms: C_17  and  C_18
REMARK   13  A    between atoms: C_18  and  C_19
REMARK   14  A    between atoms: C_19  and  C_20
REMARK   15  A    between atoms: C_20  and  C_21
REMARK   16  A    between atoms: C_21  and  N_22
REMARK   17  A    between atoms: N_22  and  C_23
REMARK                            x       y       z     vdW  Elec       q    Type
REMARK                         _______ _______ _______ _____ _____    ______ ____
ROOT
ATOM      1  C   UNL     1      41.877 -16.613 -38.225  0.00  0.00    -0.053 C 
ENDROOT
BRANCH   1   2
ATOM      2  C   UNL     1      42.552 -17.834 -38.855  0.00  0.00    -0.053 C 
BRANCH   2   3
ATOM      3  C   UNL     1      41.523 -18.865 -39.324  0.00  0.00    -0.052 C 
BRANCH   3   4
ATOM      4  C   UNL     1      40.142 -18.561 -38.744  0.00  0.00    -0.037 C 
BRANCH   4   5
ATOM      5  C   UNL     1      39.409 -19.833 -38.322  0.00  0.00    +0.012 C 
BRANCH   5   8
ATOM      6  C   UNL     1      40.777 -21.897 -37.785  0.00  0.00    +0.217 C 
ATOM      7  O   UNL     1      41.188 -22.971 -38.232  0.00  0.00    -0.275 OA
ATOM      8  N   UNL     1      40.185 -21.015 -38.647  0.00  0.00    -0.315 N 
ATOM      9  H   UNL     1      40.300 -21.205 -39.606  0.00  0.00    +0.000 HD
BRANCH   6  10
ATOM     10  C   UNL     1      40.957 -21.526 -36.321  0.00  0.00    +0.049 C 
BRANCH  10  14
ATOM     11  C   UNL     1      44.115 -18.621 -35.467  0.00  0.00    +0.029 A 
ATOM     12  C   UNL     1      44.360 -19.792 -36.205  0.00  0.00    -0.040 A 
ATOM     13  C   UNL     1      43.351 -20.720 -36.501  0.00  0.00    -0.056 A 
ATOM     14  C   UNL     1      42.043 -20.512 -36.062  0.00  0.00    -0.039 A 
ATOM     15  C   UNL     1      41.760 -19.323 -35.388  0.00  0.00    -0.056 A 
ATOM     16  C   UNL     1      42.777 -18.402 -35.099  0.00  0.00    -0.040 A 
BRANCH  11  18
ATOM     17  C   UNL     1      45.125 -17.045 -33.856  0.00  0.00    +0.000 C 
ATOM     18  N   UNL     1      45.138 -17.713 -35.157  0.00  0.00    -0.336 N 
ATOM     19  C   UNL     1      46.468 -17.970 -35.712  0.00  0.00    +0.000 C 
ENDBRANCH  11  18
ENDBRANCH  10  14
ENDBRANCH   6  10
ENDBRANCH   5   8
ENDBRANCH   4   5
ENDBRANCH   3   4
ENDBRANCH   2   3
ENDBRANCH   1   2
BRANCH   1  20
ATOM     20  C   UNL     1      42.876 -15.601 -37.655  0.00  0.00    -0.053 C 
BRANCH  20  21
ATOM     21  C   UNL     1      44.307 -15.830 -38.146  0.00  0.00    -0.053 C 
BRANCH  21  22
ATOM     22  C   UNL     1      44.572 -15.089 -39.458  0.00  0.00    -0.052 C 
BRANCH  22  23
ATOM     23  C   UNL     1      45.841 -15.529 -40.202  0.00  0.00    -0.040 C 
BRANCH  23  24
ATOM     24  C   UNL     1      46.434 -16.872 -39.749  0.00  0.00    -0.004 C 
BRANCH  24  25
ATOM     25  N   UNL     1      46.812 -17.687 -40.900  0.00  0.00    -0.311 N 
ATOM     26  H   UNL     1      47.831 -17.703 -40.946  0.00  0.00    +0.000 HD
ATOM     27  H   UNL     1      46.356 -17.248 -41.700  0.00  0.00    +0.000 HD
BRANCH  25  28
ATOM     28  C   UNL     1      46.345 -19.079 -40.904  0.00  0.00    +0.020 C 
ATOM     29  C   UNL     1      44.889 -19.056 -41.449  0.00  0.00    -0.032 C 
ATOM     30  C   UNL     1      44.301 -20.476 -41.510  0.00  0.00    -0.039 C 
ATOM     31  C   UNL     1      45.168 -21.341 -42.439  0.00  0.00    -0.047 C 
ATOM     32  C   UNL     1      46.608 -21.400 -41.906  0.00  0.00    -0.039 C 
ATOM     33  C   UNL     1      46.601 -22.001 -40.492  0.00  0.00    -0.047 C 
ATOM     34  C   UNL     1      45.737 -21.142 -39.554  0.00  0.00    -0.039 C 
ATOM     35  C   UNL     1      44.302 -21.084 -40.099  0.00  0.00    -0.047 C 
ATOM     36  C   UNL     1      46.318 -19.717 -39.492  0.00  0.00    -0.032 C 
ATOM     37  C   UNL     1      47.189 -19.974 -41.848  0.00  0.00    -0.032 C 
ENDBRANCH  25  28
ENDBRANCH  24  25
ENDBRANCH  23  24
ENDBRANCH  22  23
ENDBRANCH  21  22
ENDBRANCH  20  21
ENDBRANCH   1  20
TORSDOF 15
ENDMDL
MODEL 6
REMARK VINA RESULT:    -5.551      2.299      5.101
REMARK INTER + INTRA:         -13.674
REMARK INTER:                 -10.387
REMARK INTRA:                  -3.287
REMARK UNBOUND:                -3.256
REMARK  Name = cpd171.pdb
REMARK  17 active torsions:
REMARK  status: ('A' for Active; 'I' for Inactive)
REMARK    1  A    between atoms: C_1  and  N_2
REMARK    2  A    between atoms: N_2  and  C_3
REMARK    3  A    between atoms: N_2  and  C_4
REMARK    4  A    between atoms: C_7  and  C_8
REMARK    5  A    between atoms: C_8  and  C_9
REMARK    6  A    between atoms: N_11  and  C_12
REMARK    7  A    between atoms: C_12  and  C_13
REMARK    8  A    between atoms: C_13  and  C_14
REMARK    9  A    between atoms: C_14  and  C_15
REMARK   10  A    between atoms: C_15  and  C_16
REMARK   11  A    between atoms: C_16  and  C_17
REMARK   12  A    between atoms: C_17  and  C_18
REMARK   13  A    between atoms: C_18  and  C_19
REMARK   14  A    between atoms: C_19  and  C_20
REMARK   15  A    between atoms: C_20  and  C_21
REMARK   16  A    between atoms: C_21  and  N_22
REMARK   17  A    between atoms: N_22  and  C_23
REMARK                            x       y       z     vdW  Elec       q    Type
REMARK                         _______ _______ _______ _____ _____    ______ ____
ROOT
ATOM      1  C   UNL     1      43.256 -18.742 -36.982  0.00  0.00    -0.053 C 
ENDROOT
BRANCH   1   2
ATOM      2  C   UNL     1      42.169 -19.551 -36.271  0.00  0.00    -0.053 C 
BRANCH   2   3
ATOM      3  C   UNL     1      42.470 -21.051 -36.308  0.00  0.00    -0.052 C 
BRANCH   3   4
ATOM      4  C   UNL     1      41.327 -21.821 -36.966  0.00  0.00    -0.037 C 
BRANCH   4   5
ATOM      5  C   UNL     1      40.332 -22.355 -35.937  0.00  0.00    +0.012 C 
BRANCH   5   8
ATOM      6  C   UNL     1      40.712 -22.693 -33.455  0.00  0.00    +0.217 C 
ATOM      7  O   UNL     1      41.256 -23.412 -32.613  0.00  0.00    -0.275 OA
ATOM      8  N   UNL     1      41.019 -22.885 -34.774  0.00  0.00    -0.315 N 
ATOM      9  H   UNL     1      41.802 -23.452 -34.957  0.00  0.00    +0.000 HD
BRANCH   6  10
ATOM     10  C   UNL     1      39.756 -21.581 -33.050  0.00  0.00    +0.049 C 
BRANCH  10  14
ATOM     11  C   UNL     1      41.424 -17.537 -33.105  0.00  0.00    +0.029 A 
ATOM     12  C   UNL     1      42.181 -18.649 -32.695  0.00  0.00    -0.040 A 
ATOM     13  C   UNL     1      41.662 -19.952 -32.693  0.00  0.00    -0.056 A 
ATOM     14  C   UNL     1      40.350 -20.196 -33.100  0.00  0.00    -0.039 A 
ATOM     15  C   UNL     1      39.602 -19.118 -33.577  0.00  0.00    -0.056 A 
ATOM     16  C   UNL     1      40.132 -17.820 -33.577  0.00  0.00    -0.040 A 
BRANCH  11  18
ATOM     17  C   UNL     1      41.035 -15.107 -32.901  0.00  0.00    +0.000 C 
ATOM     18  N   UNL     1      41.947 -16.236 -33.079  0.00  0.00    -0.336 N 
ATOM     19  C   UNL     1      43.286 -16.051 -32.517  0.00  0.00    +0.000 C 
ENDBRANCH  11  18
ENDBRANCH  10  14
ENDBRANCH   6  10
ENDBRANCH   5   8
ENDBRANCH   4   5
ENDBRANCH   3   4
ENDBRANCH   2   3
ENDBRANCH   1   2
BRANCH   1  20
ATOM     20  C   UNL     1      43.743 -17.541 -36.166  0.00  0.00    -0.053 C 
BRANCH  20  21
ATOM     21  C   UNL     1      44.812 -17.910 -35.134  0.00  0.00    -0.053 C 
BRANCH  21  22
ATOM     22  C   UNL     1      46.216 -17.841 -35.736  0.00  0.00    -0.052 C 
BRANCH  22  23
ATOM     23  C   UNL     1      46.696 -19.139 -36.401  0.00  0.00    -0.040 C 
BRANCH  23  24
ATOM     24  C   UNL     1      47.313 -18.971 -37.798  0.00  0.00    -0.004 C 
BRANCH  24  25
ATOM     25  N   UNL     1      46.308 -18.524 -38.758  0.00  0.00    -0.311 N 
ATOM     26  H   UNL     1      46.700 -17.734 -39.271  0.00  0.00    +0.000 HD
ATOM     27  H   UNL     1      45.484 -18.302 -38.200  0.00  0.00    +0.000 HD
BRANCH  25  28
ATOM     28  C   UNL     1      45.853 -19.512 -39.745  0.00  0.00    +0.020 C 
ATOM     29  C   UNL     1      44.605 -18.901 -40.442  0.00  0.00    -0.032 C 
ATOM     30  C   UNL     1      44.050 -19.854 -41.513  0.00  0.00    -0.039 C 
ATOM     31  C   UNL     1      45.135 -20.111 -42.571  0.00  0.00    -0.047 C 
ATOM     32  C   UNL     1      46.371 -20.739 -41.909  0.00  0.00    -0.039 C 
ATOM     33  C   UNL     1      45.971 -22.065 -41.243  0.00  0.00    -0.047 C 
ATOM     34  C   UNL     1      44.886 -21.819 -40.182  0.00  0.00    -0.039 C 
ATOM     35  C   UNL     1      43.658 -21.184 -40.852  0.00  0.00    -0.047 C 
ATOM     36  C   UNL     1      45.435 -20.861 -39.108  0.00  0.00    -0.032 C 
ATOM     37  C   UNL     1      46.921 -19.779 -40.838  0.00  0.00    -0.032 C 
ENDBRANCH  25  28
ENDBRANCH  24  25
ENDBRANCH  23  24
ENDBRANCH  22  23
ENDBRANCH  21  22
ENDBRANCH  20  21
ENDBRANCH   1  20
TORSDOF 15
ENDMDL
MODEL 7
REMARK VINA RESULT:    -5.528      2.362      5.688
REMARK INTER + INTRA:         -13.631
REMARK INTER:                 -10.422
REMARK INTRA:                  -3.208
REMARK UNBOUND:                -3.256
REMARK  Name = cpd171.pdb
REMARK  17 active torsions:
REMARK  status: ('A' for Active; 'I' for Inactive)
REMARK    1  A    between atoms: C_1  and  N_2
REMARK    2  A    between atoms: N_2  and  C_3
REMARK    3  A    between atoms: N_2  and  C_4
REMARK    4  A    between atoms: C_7  and  C_8
REMARK    5  A    between atoms: C_8  and  C_9
REMARK    6  A    between atoms: N_11  and  C_12
REMARK    7  A    between atoms: C_12  and  C_13
REMARK    8  A    between atoms: C_13  and  C_14
REMARK    9  A    between atoms: C_14  and  C_15
REMARK   10  A    between atoms: C_15  and  C_16
REMARK   11  A    between atoms: C_16  and  C_17
REMARK   12  A    between atoms: C_17  and  C_18
REMARK   13  A    between atoms: C_18  and  C_19
REMARK   14  A    between atoms: C_19  and  C_20
REMARK   15  A    between atoms: C_20  and  C_21
REMARK   16  A    between atoms: C_21  and  N_22
REMARK   17  A    between atoms: N_22  and  C_23
REMARK                            x       y       z     vdW  Elec       q    Type
REMARK                         _______ _______ _______ _____ _____    ______ ____
ROOT
ATOM      1  C   UNL     1      41.882 -19.969 -38.596  0.00  0.00    -0.053 C 
ENDROOT
BRANCH   1   2
ATOM      2  C   UNL     1      42.001 -21.054 -37.524  0.00  0.00    -0.053 C 
BRANCH   2   3
ATOM      3  C   UNL     1      41.059 -20.788 -36.349  0.00  0.00    -0.052 C 
BRANCH   3   4
ATOM      4  C   UNL     1      39.695 -21.437 -36.584  0.00  0.00    -0.037 C 
BRANCH   4   5
ATOM      5  C   UNL     1      39.142 -22.080 -35.314  0.00  0.00    +0.012 C 
BRANCH   5   8
ATOM      6  C   UNL     1      40.394 -22.378 -33.131  0.00  0.00    +0.217 C 
ATOM      7  O   UNL     1      41.223 -23.072 -32.537  0.00  0.00    -0.275 OA
ATOM      8  N   UNL     1      40.214 -22.578 -34.472  0.00  0.00    -0.315 N 
ATOM      9  H   UNL     1      40.896 -23.126 -34.922  0.00  0.00    +0.000 HD
BRANCH   6  10
ATOM     10  C   UNL     1      39.613 -21.287 -32.413  0.00  0.00    +0.049 C 
BRANCH  10  14
ATOM     11  C   UNL     1      41.416 -17.316 -32.771  0.00  0.00    +0.029 A 
ATOM     12  C   UNL     1      40.045 -17.491 -32.515  0.00  0.00    -0.040 A 
ATOM     13  C   UNL     1      39.461 -18.759 -32.379  0.00  0.00    -0.056 A 
ATOM     14  C   UNL     1      40.233 -19.914 -32.499  0.00  0.00    -0.039 A 
ATOM     15  C   UNL     1      41.609 -19.766 -32.683  0.00  0.00    -0.056 A 
ATOM     16  C   UNL     1      42.182 -18.493 -32.816  0.00  0.00    -0.040 A 
BRANCH  11  18
ATOM     17  C   UNL     1      41.251 -14.876 -32.441  0.00  0.00    +0.000 C 
ATOM     18  N   UNL     1      41.983 -16.044 -32.929  0.00  0.00    -0.336 N 
ATOM     19  C   UNL     1      43.441 -15.934 -32.871  0.00  0.00    +0.000 C 
ENDBRANCH  11  18
ENDBRANCH  10  14
ENDBRANCH   6  10
ENDBRANCH   5   8
ENDBRANCH   4   5
ENDBRANCH   3   4
ENDBRANCH   2   3
ENDBRANCH   1   2
BRANCH   1  20
ATOM     20  C   UNL     1      43.016 -20.013 -39.625  0.00  0.00    -0.053 C 
BRANCH  20  21
ATOM     21  C   UNL     1      43.659 -21.397 -39.750  0.00  0.00    -0.053 C 
BRANCH  21  22
ATOM     22  C   UNL     1      44.938 -21.344 -40.588  0.00  0.00    -0.052 C 
BRANCH  22  23
ATOM     23  C   UNL     1      46.191 -21.887 -39.885  0.00  0.00    -0.040 C 
BRANCH  23  24
ATOM     24  C   UNL     1      46.998 -20.850 -39.091  0.00  0.00    -0.004 C 
BRANCH  24  25
ATOM     25  N   UNL     1      46.683 -20.927 -37.667  0.00  0.00    -0.311 N 
ATOM     26  H   UNL     1      47.503 -21.297 -37.188  0.00  0.00    +0.000 HD
ATOM     27  H   UNL     1      45.852 -21.516 -37.608  0.00  0.00    +0.000 HD
BRANCH  25  28
ATOM     28  C   UNL     1      46.312 -19.668 -37.006  0.00  0.00    +0.020 C 
ATOM     29  C   UNL     1      47.594 -19.146 -36.298  0.00  0.00    -0.032 C 
ATOM     30  C   UNL     1      47.322 -17.814 -35.579  0.00  0.00    -0.039 C 
ATOM     31  C   UNL     1      46.860 -16.770 -36.608  0.00  0.00    -0.047 C 
ATOM     32  C   UNL     1      45.579 -17.254 -37.304  0.00  0.00    -0.039 C 
ATOM     33  C   UNL     1      44.479 -17.467 -36.251  0.00  0.00    -0.047 C 
ATOM     34  C   UNL     1      44.932 -18.511 -35.217  0.00  0.00    -0.039 C 
ATOM     35  C   UNL     1      46.217 -18.022 -34.532  0.00  0.00    -0.047 C 
ATOM     36  C   UNL     1      45.210 -19.847 -35.932  0.00  0.00    -0.032 C 
ATOM     37  C   UNL     1      45.860 -18.588 -38.021  0.00  0.00    -0.032 C 
ENDBRANCH  25  28
ENDBRANCH  24  25
ENDBRANCH  23  24
ENDBRANCH  22  23
ENDBRANCH  21  22
ENDBRANCH  20  21
ENDBRANCH   1  20
TORSDOF 15
ENDMDL
MODEL 8
REMARK VINA RESULT:    -5.523      2.457      6.947
REMARK INTER + INTRA:         -13.622
REMARK INTER:                  -9.826
REMARK INTRA:                  -3.797
REMARK UNBOUND:                -3.256
REMARK  Name = cpd171.pdb
REMARK  17 active torsions:
REMARK  status: ('A' for Active; 'I' for Inactive)
REMARK    1  A    between atoms: C_1  and  N_2
REMARK    2  A    between atoms: N_2  and  C_3
REMARK    3  A    between atoms: N_2  and  C_4
REMARK    4  A    between atoms: C_7  and  C_8
REMARK    5  A    between atoms: C_8  and  C_9
REMARK    6  A    between atoms: N_11  and  C_12
REMARK    7  A    between atoms: C_12  and  C_13
REMARK    8  A    between atoms: C_13  and  C_14
REMARK    9  A    between atoms: C_14  and  C_15
REMARK   10  A    between atoms: C_15  and  C_16
REMARK   11  A    between atoms: C_16  and  C_17
REMARK   12  A    between atoms: C_17  and  C_18
REMARK   13  A    between atoms: C_18  and  C_19
REMARK   14  A    between atoms: C_19  and  C_20
REMARK   15  A    between atoms: C_20  and  C_21
REMARK   16  A    between atoms: C_21  and  N_22
REMARK   17  A    between atoms: N_22  and  C_23
REMARK                            x       y       z     vdW  Elec       q    Type
REMARK                         _______ _______ _______ _____ _____    ______ ____
ROOT
ATOM      1  C   UNL     1      44.630 -18.526 -37.273  0.00  0.00    -0.053 C 
ENDROOT
BRANCH   1   2
ATOM      2  C   UNL     1      44.996 -17.042 -37.190  0.00  0.00    -0.053 C 
BRANCH   2   3
ATOM      3  C   UNL     1      46.211 -16.813 -36.288  0.00  0.00    -0.052 C 
BRANCH   3   4
ATOM      4  C   UNL     1      47.451 -16.481 -37.117  0.00  0.00    -0.037 C 
BRANCH   4   5
ATOM      5  C   UNL     1      47.348 -15.105 -37.772  0.00  0.00    +0.012 C 
BRANCH   5   8
ATOM      6  C   UNL     1      47.719 -15.052 -40.278  0.00  0.00    +0.217 C 
ATOM      7  O   UNL     1      48.518 -14.748 -41.166  0.00  0.00    -0.275 OA
ATOM      8  N   UNL     1      48.150 -15.041 -38.980  0.00  0.00    -0.315 N 
ATOM      9  H   UNL     1      49.123 -14.983 -38.848  0.00  0.00    +0.000 HD
BRANCH   6  10
ATOM     10  C   UNL     1      46.295 -15.477 -40.603  0.00  0.00    +0.049 C 
BRANCH  10  14
ATOM     11  C   UNL     1      45.748 -19.780 -41.176  0.00  0.00    +0.029 A 
ATOM     12  C   UNL     1      47.001 -19.224 -40.865  0.00  0.00    -0.040 A 
ATOM     13  C   UNL     1      47.183 -17.848 -40.660  0.00  0.00    -0.056 A 
ATOM     14  C   UNL     1      46.108 -16.965 -40.763  0.00  0.00    -0.039 A 
ATOM     15  C   UNL     1      44.841 -17.502 -41.002  0.00  0.00    -0.056 A 
ATOM     16  C   UNL     1      44.671 -18.879 -41.203  0.00  0.00    -0.040 A 
BRANCH  11  18
ATOM     17  C   UNL     1      45.550 -22.063 -40.256  0.00  0.00    +0.000 C 
ATOM     18  N   UNL     1      45.584 -21.154 -41.402  0.00  0.00    -0.336 N 
ATOM     19  C   UNL     1      44.770 -21.565 -42.547  0.00  0.00    +0.000 C 
ENDBRANCH  11  18
ENDBRANCH  10  14
ENDBRANCH   6  10
ENDBRANCH   5   8
ENDBRANCH   4   5
ENDBRANCH   3   4
ENDBRANCH   2   3
ENDBRANCH   1   2
BRANCH   1  20
ATOM     20  C   UNL     1      45.354 -19.383 -36.230  0.00  0.00    -0.053 C 
BRANCH  20  21
ATOM     21  C   UNL     1      44.399 -20.079 -35.257  0.00  0.00    -0.053 C 
BRANCH  21  22
ATOM     22  C   UNL     1      43.598 -19.065 -34.439  0.00  0.00    -0.052 C 
BRANCH  22  23
ATOM     23  C   UNL     1      42.350 -19.635 -33.750  0.00  0.00    -0.040 C 
BRANCH  23  24
ATOM     24  C   UNL     1      41.056 -19.565 -34.575  0.00  0.00    -0.004 C 
BRANCH  24  25
ATOM     25  N   UNL     1      40.753 -20.860 -35.177  0.00  0.00    -0.311 N 
ATOM     26  H   UNL     1      39.805 -21.116 -34.899  0.00  0.00    +0.000 HD
ATOM     27  H   UNL     1      41.480 -21.489 -34.839  0.00  0.00    +0.000 HD
BRANCH  25  28
ATOM     28  C   UNL     1      40.823 -20.939 -36.642  0.00  0.00    +0.020 C 
ATOM     29  C   UNL     1      39.418 -21.395 -37.129  0.00  0.00    -0.032 C 
ATOM     30  C   UNL     1      39.374 -21.498 -38.663  0.00  0.00    -0.039 C 
ATOM     31  C   UNL     1      39.690 -20.122 -39.270  0.00  0.00    -0.047 C 
ATOM     32  C   UNL     1      41.086 -19.661 -38.823  0.00  0.00    -0.039 C 
ATOM     33  C   UNL     1      42.132 -20.687 -39.287  0.00  0.00    -0.047 C 
ATOM     34  C   UNL     1      41.825 -22.068 -38.683  0.00  0.00    -0.039 C 
ATOM     35  C   UNL     1      40.426 -22.516 -39.131  0.00  0.00    -0.047 C 
ATOM     36  C   UNL     1      41.864 -21.970 -37.147  0.00  0.00    -0.032 C 
ATOM     37  C   UNL     1      41.122 -19.561 -37.286  0.00  0.00    -0.032 C 
ENDBRANCH  25  28
ENDBRANCH  24  25
ENDBRANCH  23  24
ENDBRANCH  22  23
ENDBRANCH  21  22
ENDBRANCH  20  21
ENDBRANCH   1  20
TORSDOF 15
ENDMDL
MODEL 9
REMARK VINA RESULT:    -5.485      2.458      5.130
REMARK INTER + INTRA:         -13.550
REMARK INTER:                  -9.221
REMARK INTRA:                  -4.329
REMARK UNBOUND:                -3.256
REMARK  Name = cpd171.pdb
REMARK  17 active torsions:
REMARK  status: ('A' for Active; 'I' for Inactive)
REMARK    1  A    between atoms: C_1  and  N_2
REMARK    2  A    between atoms: N_2  and  C_3
REMARK    3  A    between atoms: N_2  and  C_4
REMARK    4  A    between atoms: C_7  and  C_8
REMARK    5  A    between atoms: C_8  and  C_9
REMARK    6  A    between atoms: N_11  and  C_12
REMARK    7  A    between atoms: C_12  and  C_13
REMARK    8  A    between atoms: C_13  and  C_14
REMARK    9  A    between atoms: C_14  and  C_15
REMARK   10  A    between atoms: C_15  and  C_16
REMARK   11  A    between atoms: C_16  and  C_17
REMARK   12  A    between atoms: C_17  and  C_18
REMARK   13  A    between atoms: C_18  and  C_19
REMARK   14  A    between atoms: C_19  and  C_20
REMARK   15  A    between atoms: C_20  and  C_21
REMARK   16  A    between atoms: C_21  and  N_22
REMARK   17  A    between atoms: N_22  and  C_23
REMARK                            x       y       z     vdW  Elec       q    Type
REMARK                         _______ _______ _______ _____ _____    ______ ____
ROOT
ATOM      1  C   UNL     1      41.754 -16.177 -39.861  0.00  0.00    -0.053 C 
ENDROOT
BRANCH   1   2
ATOM      2  C   UNL     1      41.770 -15.428 -38.526  0.00  0.00    -0.053 C 
BRANCH   2   3
ATOM      3  C   UNL     1      40.415 -15.510 -37.820  0.00  0.00    -0.052 C 
BRANCH   3   4
ATOM      4  C   UNL     1      40.381 -16.678 -36.835  0.00  0.00    -0.037 C 
BRANCH   4   5
ATOM      5  C   UNL     1      39.708 -17.911 -37.436  0.00  0.00    +0.012 C 
BRANCH   5   8
ATOM      6  C   UNL     1      40.689 -19.947 -36.290  0.00  0.00    +0.217 C 
ATOM      7  O   UNL     1      40.622 -20.663 -35.288  0.00  0.00    -0.275 OA
ATOM      8  N   UNL     1      39.709 -19.015 -36.495  0.00  0.00    -0.315 N 
ATOM      9  H   UNL     1      38.904 -19.105 -35.935  0.00  0.00    +0.000 HD
BRANCH   6  10
ATOM     10  C   UNL     1      41.804 -20.114 -37.311  0.00  0.00    +0.049 C 
BRANCH  10  14
ATOM     11  C   UNL     1      45.738 -18.627 -36.107  0.00  0.00    +0.029 A 
ATOM     12  C   UNL     1      44.805 -17.811 -36.772  0.00  0.00    -0.040 A 
ATOM     13  C   UNL     1      43.534 -18.273 -37.145  0.00  0.00    -0.056 A 
ATOM     14  C   UNL     1      43.144 -19.583 -36.868  0.00  0.00    -0.039 A 
ATOM     15  C   UNL     1      44.026 -20.390 -36.146  0.00  0.00    -0.056 A 
ATOM     16  C   UNL     1      45.293 -19.917 -35.777  0.00  0.00    -0.040 A 
BRANCH  11  18
ATOM     17  C   UNL     1      48.115 -19.117 -35.653  0.00  0.00    +0.000 C 
ATOM     18  N   UNL     1      47.015 -18.160 -35.762  0.00  0.00    -0.336 N 
ATOM     19  C   UNL     1      47.396 -16.821 -36.212  0.00  0.00    +0.000 C 
ENDBRANCH  11  18
ENDBRANCH  10  14
ENDBRANCH   6  10
ENDBRANCH   5   8
ENDBRANCH   4   5
ENDBRANCH   3   4
ENDBRANCH   2   3
ENDBRANCH   1   2
BRANCH   1  20
ATOM     20  C   UNL     1      43.114 -16.777 -40.229  0.00  0.00    -0.053 C 
BRANCH  20  21
ATOM     21  C   UNL     1      44.072 -15.757 -40.850  0.00  0.00    -0.053 C 
BRANCH  21  22
ATOM     22  C   UNL     1      45.218 -15.415 -39.897  0.00  0.00    -0.052 C 
BRANCH  22  23
ATOM     23  C   UNL     1      46.588 -15.970 -40.312  0.00  0.00    -0.040 C 
BRANCH  23  24
ATOM     24  C   UNL     1      46.836 -17.442 -39.953  0.00  0.00    -0.004 C 
BRANCH  24  25
ATOM     25  N   UNL     1      46.983 -18.253 -41.158  0.00  0.00    -0.311 N 
ATOM     26  H   UNL     1      47.961 -18.534 -41.226  0.00  0.00    +0.000 HD
ATOM     27  H   UNL     1      46.657 -17.660 -41.921  0.00  0.00    +0.000 HD
BRANCH  25  28
ATOM     28  C   UNL     1      46.164 -19.470 -41.238  0.00  0.00    +0.020 C 
ATOM     29  C   UNL     1      45.710 -19.795 -39.787  0.00  0.00    -0.032 C 
ATOM     30  C   UNL     1      44.827 -21.053 -39.755  0.00  0.00    -0.039 C 
ATOM     31  C   UNL     1      43.582 -20.818 -40.625  0.00  0.00    -0.047 C 
ATOM     32  C   UNL     1      44.005 -20.520 -42.072  0.00  0.00    -0.039 C 
ATOM     33  C   UNL     1      44.807 -21.710 -42.622  0.00  0.00    -0.047 C 
ATOM     34  C   UNL     1      46.056 -21.953 -41.758  0.00  0.00    -0.039 C 
ATOM     35  C   UNL     1      45.623 -22.243 -40.313  0.00  0.00    -0.047 C 
ATOM     36  C   UNL     1      46.942 -20.694 -41.783  0.00  0.00    -0.032 C 
ATOM     37  C   UNL     1      44.889 -19.259 -42.096  0.00  0.00    -0.032 C 
ENDBRANCH  25  28
ENDBRANCH  24  25
ENDBRANCH  23  24
ENDBRANCH  22  23
ENDBRANCH  21  22
ENDBRANCH  20  21
ENDBRANCH   1  20
TORSDOF 15
ENDMDL
MODEL 10
REMARK VINA RESULT:    -5.436      2.407      6.900
REMARK INTER + INTRA:         -13.458
REMARK INTER:                  -9.543
REMARK INTRA:                  -3.915
REMARK UNBOUND:                -3.256
REMARK  Name = cpd171.pdb
REMARK  17 active torsions:
REMARK  status: ('A' for Active; 'I' for Inactive)
REMARK    1  A    between atoms: C_1  and  N_2
REMARK    2  A    between atoms: N_2  and  C_3
REMARK    3  A    between atoms: N_2  and  C_4
REMARK    4  A    between atoms: C_7  and  C_8
REMARK    5  A    between atoms: C_8  and  C_9
REMARK    6  A    between atoms: N_11  and  C_12
REMARK    7  A    between atoms: C_12  and  C_13
REMARK    8  A    between atoms: C_13  and  C_14
REMARK    9  A    between atoms: C_14  and  C_15
REMARK   10  A    between atoms: C_15  and  C_16
REMARK   11  A    between atoms: C_16  and  C_17
REMARK   12  A    between atoms: C_17  and  C_18
REMARK   13  A    between atoms: C_18  and  C_19
REMARK   14  A    between atoms: C_19  and  C_20
REMARK   15  A    between atoms: C_20  and  C_21
REMARK   16  A    between atoms: C_21  and  N_22
REMARK   17  A    between atoms: N_22  and  C_23
REMARK                            x       y       z     vdW  Elec       q    Type
REMARK                         _______ _______ _______ _____ _____    ______ ____
ROOT
ATOM      1  C   UNL     1      43.639 -16.105 -33.962  0.00  0.00    -0.053 C 
ENDROOT
BRANCH   1   2
ATOM      2  C   UNL     1      42.384 -16.955 -34.177  0.00  0.00    -0.053 C 
BRANCH   2   3
ATOM      3  C   UNL     1      42.114 -17.191 -35.664  0.00  0.00    -0.052 C 
BRANCH   3   4
ATOM      4  C   UNL     1      42.417 -18.638 -36.051  0.00  0.00    -0.037 C 
BRANCH   4   5
ATOM      5  C   UNL     1      41.632 -19.074 -37.286  0.00  0.00    +0.012 C 
BRANCH   5   8
ATOM      6  C   UNL     1      41.547 -21.420 -38.241  0.00  0.00    +0.217 C 
ATOM      7  O   UNL     1      41.479 -22.617 -37.953  0.00  0.00    -0.275 OA
ATOM      8  N   UNL     1      41.351 -20.497 -37.250  0.00  0.00    -0.315 N 
ATOM      9  H   UNL     1      40.974 -20.841 -36.408  0.00  0.00    +0.000 HD
BRANCH   6  10
ATOM     10  C   UNL     1      41.794 -20.960 -39.670  0.00  0.00    +0.049 C 
BRANCH  10  14
ATOM     11  C   UNL     1      45.889 -21.645 -41.049  0.00  0.00    +0.029 A 
ATOM     12  C   UNL     1      44.811 -21.528 -41.945  0.00  0.00    -0.040 A 
ATOM     13  C   UNL     1      43.498 -21.289 -41.515  0.00  0.00    -0.056 A 
ATOM     14  C   UNL     1      43.207 -21.160 -40.156  0.00  0.00    -0.039 A 
ATOM     15  C   UNL     1      44.271 -21.202 -39.253  0.00  0.00    -0.056 A 
ATOM     16  C   UNL     1      45.580 -21.439 -39.695  0.00  0.00    -0.040 A 
BRANCH  11  18
ATOM     17  C   UNL     1      47.476 -23.184 -42.147  0.00  0.00    +0.000 C 
ATOM     18  N   UNL     1      47.193 -21.908 -41.492  0.00  0.00    -0.336 N 
ATOM     19  C   UNL     1      47.996 -20.776 -41.958  0.00  0.00    +0.000 C 
ENDBRANCH  11  18
ENDBRANCH  10  14
ENDBRANCH   6  10
ENDBRANCH   5   8
ENDBRANCH   4   5
ENDBRANCH   3   4
ENDBRANCH   2   3
ENDBRANCH   1   2
BRANCH   1  20
ATOM     20  C   UNL     1      44.618 -16.722 -32.959  0.00  0.00    -0.053 C 
BRANCH  20  21
ATOM     21  C   UNL     1      45.084 -18.125 -33.359  0.00  0.00    -0.053 C 
BRANCH  21  22
ATOM     22  C   UNL     1      46.060 -18.073 -34.536  0.00  0.00    -0.052 C 
BRANCH  22  23
ATOM     23  C   UNL     1      46.109 -19.350 -35.388  0.00  0.00    -0.040 C 
BRANCH  23  24
ATOM     24  C   UNL     1      46.864 -19.221 -36.719  0.00  0.00    -0.004 C 
BRANCH  24  25
ATOM     25  N   UNL     1      47.095 -17.819 -37.051  0.00  0.00    -0.311 N 
ATOM     26  H   UNL     1      48.103 -17.677 -37.112  0.00  0.00    +0.000 HD
ATOM     27  H   UNL     1      46.635 -17.289 -36.312  0.00  0.00    +0.000 HD
BRANCH  25  28
ATOM     28  C   UNL     1      46.502 -17.331 -38.303  0.00  0.00    +0.020 C 
ATOM     29  C   UNL     1      44.982 -17.650 -38.227  0.00  0.00    -0.032 C 
ATOM     30  C   UNL     1      44.253 -17.166 -39.491  0.00  0.00    -0.039 C 
ATOM     31  C   UNL     1      44.437 -15.646 -39.628  0.00  0.00    -0.047 C 
ATOM     32  C   UNL     1      45.932 -15.308 -39.731  0.00  0.00    -0.039 C 
ATOM     33  C   UNL     1      46.529 -16.016 -40.958  0.00  0.00    -0.047 C 
ATOM     34  C   UNL     1      46.351 -17.538 -40.829  0.00  0.00    -0.039 C 
ATOM     35  C   UNL     1      44.854 -17.865 -40.720  0.00  0.00    -0.047 C 
ATOM     36  C   UNL     1      47.075 -18.029 -39.562  0.00  0.00    -0.032 C 
ATOM     37  C   UNL     1      46.654 -15.796 -38.462  0.00  0.00    -0.032 C 
ENDBRANCH  25  28
ENDBRANCH  24  25
ENDBRANCH  23  24
ENDBRANCH  22  23
ENDBRANCH  21  22
ENDBRANCH  20  21
ENDBRANCH   1  20
TORSDOF 15
ENDMDL
MODEL 11
REMARK VINA RESULT:    -5.389      1.627      4.263
REMARK INTER + INTRA:         -13.371
REMARK INTER:                  -9.462
REMARK INTRA:                  -3.909
REMARK UNBOUND:                -3.256
REMARK  Name = cpd171.pdb
REMARK  17 active torsions:
REMARK  status: ('A' for Active; 'I' for Inactive)
REMARK    1  A    between atoms: C_1  and  N_2
REMARK    2  A    between atoms: N_2  and  C_3
REMARK    3  A    between atoms: N_2  and  C_4
REMARK    4  A    between atoms: C_7  and  C_8
REMARK    5  A    between atoms: C_8  and  C_9
REMARK    6  A    between atoms: N_11  and  C_12
REMARK    7  A    between atoms: C_12  and  C_13
REMARK    8  A    between atoms: C_13  and  C_14
REMARK    9  A    between atoms: C_14  and  C_15
REMARK   10  A    between atoms: C_15  and  C_16
REMARK   11  A    between atoms: C_16  and  C_17
REMARK   12  A    between atoms: C_17  and  C_18
REMARK   13  A    between atoms: C_18  and  C_19
REMARK   14  A    between atoms: C_19  and  C_20
REMARK   15  A    between atoms: C_20  and  C_21
REMARK   16  A    between atoms: C_21  and  N_22
REMARK   17  A    between atoms: N_22  and  C_23
REMARK                            x       y       z     vdW  Elec       q    Type
REMARK                         _______ _______ _______ _____ _____    ______ ____
ROOT
ATOM      1  C   UNL     1      45.673 -16.925 -40.177  0.00  0.00    -0.053 C 
ENDROOT
BRANCH   1   2
ATOM      2  C   UNL     1      45.447 -16.567 -38.706  0.00  0.00    -0.053 C 
BRANCH   2   3
ATOM      3  C   UNL     1      45.117 -17.806 -37.871  0.00  0.00    -0.052 C 
BRANCH   3   4
ATOM      4  C   UNL     1      46.109 -17.969 -36.720  0.00  0.00    -0.037 C 
BRANCH   4   5
ATOM      5  C   UNL     1      45.665 -19.046 -35.733  0.00  0.00    +0.012 C 
BRANCH   5   8
ATOM      6  C   UNL     1      44.895 -18.154 -33.489  0.00  0.00    +0.217 C 
ATOM      7  O   UNL     1      45.192 -18.052 -32.296  0.00  0.00    -0.275 OA
ATOM      8  N   UNL     1      45.847 -18.605 -34.362  0.00  0.00    -0.315 N 
ATOM      9  H   UNL     1      46.769 -18.632 -34.019  0.00  0.00    +0.000 HD
BRANCH   6  10
ATOM     10  C   UNL     1      43.522 -17.749 -34.003  0.00  0.00    +0.049 C 
BRANCH  10  14
ATOM     11  C   UNL     1      40.413 -20.741 -33.281  0.00  0.00    +0.029 A 
ATOM     12  C   UNL     1      40.103 -19.409 -33.611  0.00  0.00    -0.040 A 
ATOM     13  C   UNL     1      41.092 -18.448 -33.864  0.00  0.00    -0.056 A 
ATOM     14  C   UNL     1      42.445 -18.782 -33.791  0.00  0.00    -0.039 A 
ATOM     15  C   UNL     1      42.777 -20.114 -33.535  0.00  0.00    -0.056 A 
ATOM     16  C   UNL     1      41.779 -21.067 -33.286  0.00  0.00    -0.040 A 
BRANCH  11  18
ATOM     17  C   UNL     1      38.076 -21.222 -32.647  0.00  0.00    +0.000 C 
ATOM     18  N   UNL     1      39.415 -21.687 -33.007  0.00  0.00    -0.336 N 
ATOM     19  C   UNL     1      39.459 -22.955 -33.737  0.00  0.00    +0.000 C 
ENDBRANCH  11  18
ENDBRANCH  10  14
ENDBRANCH   6  10
ENDBRANCH   5   8
ENDBRANCH   4   5
ENDBRANCH   3   4
ENDBRANCH   2   3
ENDBRANCH   1   2
BRANCH   1  20
ATOM     20  C   UNL     1      47.140 -17.213 -40.507  0.00  0.00    -0.053 C 
BRANCH  20  21
ATOM     21  C   UNL     1      47.331 -18.492 -41.327  0.00  0.00    -0.053 C 
BRANCH  21  22
ATOM     22  C   UNL     1      46.226 -19.510 -41.039  0.00  0.00    -0.052 C 
BRANCH  22  23
ATOM     23  C   UNL     1      46.650 -20.685 -40.147  0.00  0.00    -0.040 C 
BRANCH  23  24
ATOM     24  C   UNL     1      45.498 -21.457 -39.488  0.00  0.00    -0.004 C 
BRANCH  24  25
ATOM     25  N   UNL     1      44.255 -21.269 -40.231  0.00  0.00    -0.311 N 
ATOM     26  H   UNL     1      44.082 -22.120 -40.765  0.00  0.00    +0.000 HD
ATOM     27  H   UNL     1      44.405 -20.433 -40.797  0.00  0.00    +0.000 HD
BRANCH  25  28
ATOM     28  C   UNL     1      43.050 -20.987 -39.440  0.00  0.00    +0.020 C 
ATOM     29  C   UNL     1      43.498 -20.940 -37.951  0.00  0.00    -0.032 C 
ATOM     30  C   UNL     1      42.307 -20.635 -37.027  0.00  0.00    -0.039 C 
ATOM     31  C   UNL     1      41.706 -19.273 -37.411  0.00  0.00    -0.047 C 
ATOM     32  C   UNL     1      41.232 -19.304 -38.873  0.00  0.00    -0.039 C 
ATOM     33  C   UNL     1      40.173 -20.405 -39.039  0.00  0.00    -0.047 C 
ATOM     34  C   UNL     1      40.765 -21.772 -38.658  0.00  0.00    -0.039 C 
ATOM     35  C   UNL     1      41.242 -21.729 -37.198  0.00  0.00    -0.047 C 
ATOM     36  C   UNL     1      41.961 -22.081 -39.578  0.00  0.00    -0.032 C 
ATOM     37  C   UNL     1      42.430 -19.610 -39.791  0.00  0.00    -0.032 C 
ENDBRANCH  25  28
ENDBRANCH  24  25
ENDBRANCH  23  24
ENDBRANCH  22  23
ENDBRANCH  21  22
ENDBRANCH  20  21
ENDBRANCH   1  20
TORSDOF 15
ENDMDL
MODEL 12
REMARK VINA RESULT:    -5.355      2.221      8.573
REMARK INTER + INTRA:         -13.307
REMARK INTER:                 -10.580
REMARK INTRA:                  -2.726
REMARK UNBOUND:                -3.256
REMARK  Name = cpd171.pdb
REMARK  17 active torsions:
REMARK  status: ('A' for Active; 'I' for Inactive)
REMARK    1  A    between atoms: C_1  and  N_2
REMARK    2  A    between atoms: N_2  and  C_3
REMARK    3  A    between atoms: N_2  and  C_4
REMARK    4  A    between atoms: C_7  and  C_8
REMARK    5  A    between atoms: C_8  and  C_9
REMARK    6  A    between atoms: N_11  and  C_12
REMARK    7  A    between atoms: C_12  and  C_13
REMARK    8  A    between atoms: C_13  and  C_14
REMARK    9  A    between atoms: C_14  and  C_15
REMARK   10  A    between atoms: C_15  and  C_16
REMARK   11  A    between atoms: C_16  and  C_17
REMARK   12  A    between atoms: C_17  and  C_18
REMARK   13  A    between atoms: C_18  and  C_19
REMARK   14  A    between atoms: C_19  and  C_20
REMARK   15  A    between atoms: C_20  and  C_21
REMARK   16  A    between atoms: C_21  and  N_22
REMARK   17  A    between atoms: N_22  and  C_23
REMARK                            x       y       z     vdW  Elec       q    Type
REMARK                         _______ _______ _______ _____ _____    ______ ____
ROOT
ATOM      1  C   UNL     1      46.482 -19.218 -36.917  0.00  0.00    -0.053 C 
ENDROOT
BRANCH   1   2
ATOM      2  C   UNL     1      47.227 -19.951 -38.036  0.00  0.00    -0.053 C 
BRANCH   2   3
ATOM      3  C   UNL     1      46.388 -21.093 -38.615  0.00  0.00    -0.052 C 
BRANCH   3   4
ATOM      4  C   UNL     1      47.061 -21.693 -39.849  0.00  0.00    -0.037 C 
BRANCH   4   5
ATOM      5  C   UNL     1      46.044 -22.080 -40.921  0.00  0.00    +0.012 C 
BRANCH   5   8
ATOM      6  C   UNL     1      43.827 -20.853 -40.913  0.00  0.00    +0.217 C 
ATOM      7  O   UNL     1      42.639 -20.932 -40.592  0.00  0.00    -0.275 OA
ATOM      8  N   UNL     1      44.689 -21.820 -40.472  0.00  0.00    -0.315 N 
ATOM      9  H   UNL     1      44.348 -22.412 -39.764  0.00  0.00    +0.000 HD
BRANCH   6  10
ATOM     10  C   UNL     1      44.349 -19.688 -41.740  0.00  0.00    +0.049 C 
BRANCH  10  14
ATOM     11  C   UNL     1      46.281 -16.467 -39.496  0.00  0.00    +0.029 A 
ATOM     12  C   UNL     1      44.964 -16.880 -39.223  0.00  0.00    -0.040 A 
ATOM     13  C   UNL     1      44.343 -17.924 -39.924  0.00  0.00    -0.056 A 
ATOM     14  C   UNL     1      45.020 -18.602 -40.938  0.00  0.00    -0.039 A 
ATOM     15  C   UNL     1      46.351 -18.258 -41.180  0.00  0.00    -0.056 A 
ATOM     16  C   UNL     1      46.962 -17.213 -40.472  0.00  0.00    -0.040 A 
BRANCH  11  18
ATOM     17  C   UNL     1      47.296 -14.218 -39.550  0.00  0.00    +0.000 C 
ATOM     18  N   UNL     1      46.882 -15.406 -38.805  0.00  0.00    -0.336 N 
ATOM     19  C   UNL     1      46.453 -15.160 -37.428  0.00  0.00    +0.000 C 
ENDBRANCH  11  18
ENDBRANCH  10  14
ENDBRANCH   6  10
ENDBRANCH   5   8
ENDBRANCH   4   5
ENDBRANCH   3   4
ENDBRANCH   2   3
ENDBRANCH   1   2
BRANCH   1  20
ATOM     20  C   UNL     1      47.340 -19.000 -35.667  0.00  0.00    -0.053 C 
BRANCH  20  21
ATOM     21  C   UNL     1      46.734 -17.986 -34.694  0.00  0.00    -0.053 C 
BRANCH  21  22
ATOM     22  C   UNL     1      45.206 -18.031 -34.719  0.00  0.00    -0.052 C 
BRANCH  22  23
ATOM     23  C   UNL     1      44.579 -19.133 -33.853  0.00  0.00    -0.040 C 
BRANCH  23  24
ATOM     24  C   UNL     1      43.547 -20.019 -34.565  0.00  0.00    -0.004 C 
BRANCH  24  25
ATOM     25  N   UNL     1      42.955 -20.976 -33.634  0.00  0.00    -0.311 N 
ATOM     26  H   UNL     1      43.179 -20.668 -32.689  0.00  0.00    +0.000 HD
ATOM     27  H   UNL     1      43.350 -21.880 -33.893  0.00  0.00    +0.000 HD
BRANCH  25  28
ATOM     28  C   UNL     1      41.499 -21.156 -33.710  0.00  0.00    +0.020 C 
ATOM     29  C   UNL     1      41.115 -22.148 -32.576  0.00  0.00    -0.032 C 
ATOM     30  C   UNL     1      39.598 -22.399 -32.554  0.00  0.00    -0.039 C 
ATOM     31  C   UNL     1      38.870 -21.066 -32.317  0.00  0.00    -0.047 C 
ATOM     32  C   UNL     1      39.214 -20.076 -33.440  0.00  0.00    -0.039 C 
ATOM     33  C   UNL     1      38.784 -20.671 -34.791  0.00  0.00    -0.047 C 
ATOM     34  C   UNL     1      39.508 -22.005 -35.038  0.00  0.00    -0.039 C 
ATOM     35  C   UNL     1      39.163 -22.985 -33.906  0.00  0.00    -0.047 C 
ATOM     36  C   UNL     1      41.029 -21.761 -35.056  0.00  0.00    -0.032 C 
ATOM     37  C   UNL     1      40.735 -19.831 -33.456  0.00  0.00    -0.032 C 
ENDBRANCH  25  28
ENDBRANCH  24  25
ENDBRANCH  23  24
ENDBRANCH  22  23
ENDBRANCH  21  22
ENDBRANCH  20  21
ENDBRANCH   1  20
TORSDOF 15
ENDMDL
MODEL 13
REMARK VINA RESULT:    -5.306      2.083      6.455
REMARK INTER + INTRA:         -13.214
REMARK INTER:                  -9.111
REMARK INTRA:                  -4.103
REMARK UNBOUND:                -3.256
REMARK  Name = cpd171.pdb
REMARK  17 active torsions:
REMARK  status: ('A' for Active; 'I' for Inactive)
REMARK    1  A    between atoms: C_1  and  N_2
REMARK    2  A    between atoms: N_2  and  C_3
REMARK    3  A    between atoms: N_2  and  C_4
REMARK    4  A    between atoms: C_7  and  C_8
REMARK    5  A    between atoms: C_8  and  C_9
REMARK    6  A    between atoms: N_11  and  C_12
REMARK    7  A    between atoms: C_12  and  C_13
REMARK    8  A    between atoms: C_13  and  C_14
REMARK    9  A    between atoms: C_14  and  C_15
REMARK   10  A    between atoms: C_15  and  C_16
REMARK   11  A    between atoms: C_16  and  C_17
REMARK   12  A    between atoms: C_17  and  C_18
REMARK   13  A    between atoms: C_18  and  C_19
REMARK   14  A    between atoms: C_19  and  C_20
REMARK   15  A    between atoms: C_20  and  C_21
REMARK   16  A    between atoms: C_21  and  N_22
REMARK   17  A    between atoms: N_22  and  C_23
REMARK                            x       y       z     vdW  Elec       q    Type
REMARK                         _______ _______ _______ _____ _____    ______ ____
ROOT
ATOM      1  C   UNL     1      46.347 -15.846 -39.237  0.00  0.00    -0.053 C 
ENDROOT
BRANCH   1   2
ATOM      2  C   UNL     1      47.237 -16.369 -38.107  0.00  0.00    -0.053 C 
BRANCH   2   3
ATOM      3  C   UNL     1      46.726 -15.920 -36.736  0.00  0.00    -0.052 C 
BRANCH   3   4
ATOM      4  C   UNL     1      45.265 -16.323 -36.539  0.00  0.00    -0.037 C 
BRANCH   4   5
ATOM      5  C   UNL     1      44.992 -16.800 -35.114  0.00  0.00    +0.012 C 
BRANCH   5   8
ATOM      6  C   UNL     1      46.258 -18.994 -35.050  0.00  0.00    +0.217 C 
ATOM      7  O   UNL     1      47.326 -19.526 -34.739  0.00  0.00    -0.275 OA
ATOM      8  N   UNL     1      46.032 -17.703 -34.658  0.00  0.00    -0.315 N 
ATOM      9  H   UNL     1      46.651 -17.342 -33.984  0.00  0.00    +0.000 HD
BRANCH   6  10
ATOM     10  C   UNL     1      45.184 -19.757 -35.812  0.00  0.00    +0.049 C 
BRANCH  10  14
ATOM     11  C   UNL     1      46.163 -20.611 -39.989  0.00  0.00    +0.029 A 
ATOM     12  C   UNL     1      47.099 -20.043 -39.106  0.00  0.00    -0.040 A 
ATOM     13  C   UNL     1      46.801 -19.784 -37.760  0.00  0.00    -0.056 A 
ATOM     14  C   UNL     1      45.541 -20.082 -37.241  0.00  0.00    -0.039 A 
ATOM     15  C   UNL     1      44.619 -20.710 -38.079  0.00  0.00    -0.056 A 
ATOM     16  C   UNL     1      44.928 -20.966 -39.422  0.00  0.00    -0.040 A 
BRANCH  11  18
ATOM     17  C   UNL     1      47.316 -21.980 -41.690  0.00  0.00    +0.000 C 
ATOM     18  N   UNL     1      46.466 -20.843 -41.339  0.00  0.00    -0.336 N 
ATOM     19  C   UNL     1      45.454 -20.490 -42.335  0.00  0.00    +0.000 C 
ENDBRANCH  11  18
ENDBRANCH  10  14
ENDBRANCH   6  10
ENDBRANCH   5   8
ENDBRANCH   4   5
ENDBRANCH   3   4
ENDBRANCH   2   3
ENDBRANCH   1   2
BRANCH   1  20
ATOM     20  C   UNL     1      46.254 -16.809 -40.424  0.00  0.00    -0.053 C 
BRANCH  20  21
ATOM     21  C   UNL     1      44.812 -17.113 -40.839  0.00  0.00    -0.053 C 
BRANCH  21  22
ATOM     22  C   UNL     1      43.976 -17.585 -39.648  0.00  0.00    -0.052 C 
BRANCH  22  23
ATOM     23  C   UNL     1      42.695 -16.775 -39.400  0.00  0.00    -0.040 C 
BRANCH  23  24
ATOM     24  C   UNL     1      41.854 -17.231 -38.198  0.00  0.00    -0.004 C 
BRANCH  24  25
ATOM     25  N   UNL     1      40.727 -18.050 -38.635  0.00  0.00    -0.311 N 
ATOM     26  H   UNL     1      40.848 -18.240 -39.629  0.00  0.00    +0.000 HD
ATOM     27  H   UNL     1      39.895 -17.507 -38.404  0.00  0.00    +0.000 HD
BRANCH  25  28
ATOM     28  C   UNL     1      40.546 -19.340 -37.955  0.00  0.00    +0.020 C 
ATOM     29  C   UNL     1      41.399 -19.279 -36.656  0.00  0.00    -0.032 C 
ATOM     30  C   UNL     1      41.272 -20.584 -35.852  0.00  0.00    -0.039 C 
ATOM     31  C   UNL     1      39.799 -20.800 -35.471  0.00  0.00    -0.047 C 
ATOM     32  C   UNL     1      38.938 -20.889 -36.741  0.00  0.00    -0.039 C 
ATOM     33  C   UNL     1      39.429 -22.061 -37.606  0.00  0.00    -0.047 C 
ATOM     34  C   UNL     1      40.902 -21.854 -37.993  0.00  0.00    -0.039 C 
ATOM     35  C   UNL     1      41.753 -21.759 -36.717  0.00  0.00    -0.047 C 
ATOM     36  C   UNL     1      41.037 -20.546 -38.795  0.00  0.00    -0.032 C 
ATOM     37  C   UNL     1      39.071 -19.579 -37.540  0.00  0.00    -0.032 C 
ENDBRANCH  25  28
ENDBRANCH  24  25
ENDBRANCH  23  24
ENDBRANCH  22  23
ENDBRANCH  21  22
ENDBRANCH  20  21
ENDBRANCH   1  20
TORSDOF 15
ENDMDL
MODEL 14
REMARK VINA RESULT:    -5.253      2.248      7.675
REMARK INTER + INTRA:         -13.116
REMARK INTER:                 -10.059
REMARK INTRA:                  -3.057
REMARK UNBOUND:                -3.256
REMARK  Name = cpd171.pdb
REMARK  17 active torsions:
REMARK  status: ('A' for Active; 'I' for Inactive)
REMARK    1  A    between atoms: C_1  and  N_2
REMARK    2  A    between atoms: N_2  and  C_3
REMARK    3  A    between atoms: N_2  and  C_4
REMARK    4  A    between atoms: C_7  and  C_8
REMARK    5  A    between atoms: C_8  and  C_9
REMARK    6  A    between atoms: N_11  and  C_12
REMARK    7  A    between atoms: C_12  and  C_13
REMARK    8  A    between atoms: C_13  and  C_14
REMARK    9  A    between atoms: C_14  and  C_15
REMARK   10  A    between atoms: C_15  and  C_16
REMARK   11  A    between atoms: C_16  and  C_17
REMARK   12  A    between atoms: C_17  and  C_18
REMARK   13  A    between atoms: C_18  and  C_19
REMARK   14  A    between atoms: C_19  and  C_20
REMARK   15  A    between atoms: C_20  and  C_21
REMARK   16  A    between atoms: C_21  and  N_22
REMARK   17  A    between atoms: N_22  and  C_23
REMARK                            x       y       z     vdW  Elec       q    Type
REMARK                         _______ _______ _______ _____ _____    ______ ____
ROOT
ATOM      1  C   UNL     1      43.145 -18.845 -37.032  0.00  0.00    -0.053 C 
ENDROOT
BRANCH   1   2
ATOM      2  C   UNL     1      44.095 -17.647 -36.947  0.00  0.00    -0.053 C 
BRANCH   2   3
ATOM      3  C   UNL     1      45.422 -18.028 -36.288  0.00  0.00    -0.052 C 
BRANCH   3   4
ATOM      4  C   UNL     1      46.600 -17.400 -37.031  0.00  0.00    -0.037 C 
BRANCH   4   5
ATOM      5  C   UNL     1      46.252 -16.023 -37.593  0.00  0.00    +0.012 C 
BRANCH   5   8
ATOM      6  C   UNL     1      46.589 -15.933 -40.103  0.00  0.00    +0.217 C 
ATOM      7  O   UNL     1      47.257 -15.426 -41.007  0.00  0.00    -0.275 OA
ATOM      8  N   UNL     1      46.996 -15.753 -38.810  0.00  0.00    -0.315 N 
ATOM      9  H   UNL     1      47.906 -15.398 -38.689  0.00  0.00    +0.000 HD
BRANCH   6  10
ATOM     10  C   UNL     1      45.362 -16.781 -40.404  0.00  0.00    +0.049 C 
BRANCH  10  14
ATOM     11  C   UNL     1      46.187 -20.992 -41.258  0.00  0.00    +0.029 A 
ATOM     12  C   UNL     1      45.163 -20.285 -41.915  0.00  0.00    -0.040 A 
ATOM     13  C   UNL     1      44.904 -18.930 -41.663  0.00  0.00    -0.056 A 
ATOM     14  C   UNL     1      45.663 -18.222 -40.731  0.00  0.00    -0.039 A 
ATOM     15  C   UNL     1      46.729 -18.883 -40.118  0.00  0.00    -0.056 A 
ATOM     16  C   UNL     1      46.981 -20.237 -40.379  0.00  0.00    -0.040 A 
BRANCH  11  18
ATOM     17  C   UNL     1      46.131 -22.896 -42.829  0.00  0.00    +0.000 C 
ATOM     18  N   UNL     1      46.420 -22.353 -41.503  0.00  0.00    -0.336 N 
ATOM     19  C   UNL     1      47.532 -22.991 -40.797  0.00  0.00    +0.000 C 
ENDBRANCH  11  18
ENDBRANCH  10  14
ENDBRANCH   6  10
ENDBRANCH   5   8
ENDBRANCH   4   5
ENDBRANCH   3   4
ENDBRANCH   2   3
ENDBRANCH   1   2
BRANCH   1  20
ATOM     20  C   UNL     1      43.012 -19.406 -38.451  0.00  0.00    -0.053 C 
BRANCH  20  21
ATOM     21  C   UNL     1      43.382 -20.888 -38.547  0.00  0.00    -0.053 C 
BRANCH  21  22
ATOM     22  C   UNL     1      42.174 -21.741 -38.940  0.00  0.00    -0.052 C 
BRANCH  22  23
ATOM     23  C   UNL     1      40.859 -20.963 -39.091  0.00  0.00    -0.040 C 
BRANCH  23  24
ATOM     24  C   UNL     1      39.767 -21.316 -38.071  0.00  0.00    -0.004 C 
BRANCH  24  25
ATOM     25  N   UNL     1      39.791 -20.389 -36.943  0.00  0.00    -0.311 N 
ATOM     26  H   UNL     1      38.994 -19.761 -37.042  0.00  0.00    +0.000 HD
ATOM     27  H   UNL     1      40.702 -19.932 -36.992  0.00  0.00    +0.000 HD
BRANCH  25  28
ATOM     28  C   UNL     1      39.727 -20.981 -35.601  0.00  0.00    +0.020 C 
ATOM     29  C   UNL     1      38.233 -20.945 -35.171  0.00  0.00    -0.032 C 
ATOM     30  C   UNL     1      38.047 -21.559 -33.774  0.00  0.00    -0.039 C 
ATOM     31  C   UNL     1      38.524 -23.020 -33.797  0.00  0.00    -0.047 C 
ATOM     32  C   UNL     1      40.007 -23.079 -34.195  0.00  0.00    -0.039 C 
ATOM     33  C   UNL     1      40.837 -22.278 -33.180  0.00  0.00    -0.047 C 
ATOM     34  C   UNL     1      40.368 -20.814 -33.150  0.00  0.00    -0.039 C 
ATOM     35  C   UNL     1      38.884 -20.765 -32.758  0.00  0.00    -0.047 C 
ATOM     36  C   UNL     1      40.548 -20.194 -34.548  0.00  0.00    -0.032 C 
ATOM     37  C   UNL     1      40.185 -22.462 -35.595  0.00  0.00    -0.032 C 
ENDBRANCH  25  28
ENDBRANCH  24  25
ENDBRANCH  23  24
ENDBRANCH  22  23
ENDBRANCH  21  22
ENDBRANCH  20  21
ENDBRANCH   1  20
TORSDOF 15
ENDMDL
MODEL 15
REMARK VINA RESULT:    -5.243      1.296      2.268
REMARK INTER + INTRA:         -13.097
REMARK INTER:                  -9.512
REMARK INTRA:                  -3.585
REMARK UNBOUND:                -3.256
REMARK  Name = cpd171.pdb
REMARK  17 active torsions:
REMARK  status: ('A' for Active; 'I' for Inactive)
REMARK    1  A    between atoms: C_1  and  N_2
REMARK    2  A    between atoms: N_2  and  C_3
REMARK    3  A    between atoms: N_2  and  C_4
REMARK    4  A    between atoms: C_7  and  C_8
REMARK    5  A    between atoms: C_8  and  C_9
REMARK    6  A    between atoms: N_11  and  C_12
REMARK    7  A    between atoms: C_12  and  C_13
REMARK    8  A    between atoms: C_13  and  C_14
REMARK    9  A    between atoms: C_14  and  C_15
REMARK   10  A    between atoms: C_15  and  C_16
REMARK   11  A    between atoms: C_16  and  C_17
REMARK   12  A    between atoms: C_17  and  C_18
REMARK   13  A    between atoms: C_18  and  C_19
REMARK   14  A    between atoms: C_19  and  C_20
REMARK   15  A    between atoms: C_20  and  C_21
REMARK   16  A    between atoms: C_21  and  N_22
REMARK   17  A    between atoms: N_22  and  C_23
REMARK                            x       y       z     vdW  Elec       q    Type
REMARK                         _______ _______ _______ _____ _____    ______ ____
ROOT
ATOM      1  C   UNL     1      41.918 -16.236 -39.252  0.00  0.00    -0.053 C 
ENDROOT
BRANCH   1   2
ATOM      2  C   UNL     1      43.383 -16.680 -39.227  0.00  0.00    -0.053 C 
BRANCH   2   3
ATOM      3  C   UNL     1      44.066 -16.287 -37.916  0.00  0.00    -0.052 C 
BRANCH   3   4
ATOM      4  C   UNL     1      45.587 -16.308 -38.064  0.00  0.00    -0.037 C 
BRANCH   4   5
ATOM      5  C   UNL     1      46.293 -16.138 -36.721  0.00  0.00    +0.012 C 
BRANCH   5   8
ATOM      6  C   UNL     1      46.800 -18.272 -35.452  0.00  0.00    +0.217 C 
ATOM      7  O   UNL     1      47.447 -19.322 -35.475  0.00  0.00    -0.275 OA
ATOM      8  N   UNL     1      47.075 -17.314 -36.390  0.00  0.00    -0.315 N 
ATOM      9  H   UNL     1      47.906 -17.439 -36.903  0.00  0.00    +0.000 HD
BRANCH   6  10
ATOM     10  C   UNL     1      45.749 -18.011 -34.384  0.00  0.00    +0.049 C 
BRANCH  10  14
ATOM     11  C   UNL     1      42.082 -20.369 -34.746  0.00  0.00    +0.029 A 
ATOM     12  C   UNL     1      42.924 -20.127 -35.846  0.00  0.00    -0.040 A 
ATOM     13  C   UNL     1      44.111 -19.389 -35.737  0.00  0.00    -0.056 A 
ATOM     14  C   UNL     1      44.506 -18.855 -34.510  0.00  0.00    -0.039 A 
ATOM     15  C   UNL     1      43.724 -19.141 -33.389  0.00  0.00    -0.056 A 
ATOM     16  C   UNL     1      42.540 -19.882 -33.511  0.00  0.00    -0.040 A 
BRANCH  11  18
ATOM     17  C   UNL     1      40.707 -22.314 -34.097  0.00  0.00    +0.000 C 
ATOM     18  N   UNL     1      40.885 -21.088 -34.874  0.00  0.00    -0.336 N 
ATOM     19  C   UNL     1      39.659 -20.331 -35.133  0.00  0.00    +0.000 C 
ENDBRANCH  11  18
ENDBRANCH  10  14
ENDBRANCH   6  10
ENDBRANCH   5   8
ENDBRANCH   4   5
ENDBRANCH   3   4
ENDBRANCH   2   3
ENDBRANCH   1   2
BRANCH   1  20
ATOM     20  C   UNL     1      40.944 -17.393 -39.498  0.00  0.00    -0.053 C 
BRANCH  20  21
ATOM     21  C   UNL     1      41.048 -18.499 -38.445  0.00  0.00    -0.053 C 
BRANCH  21  22
ATOM     22  C   UNL     1      40.173 -19.700 -38.809  0.00  0.00    -0.052 C 
BRANCH  22  23
ATOM     23  C   UNL     1      40.835 -20.718 -39.748  0.00  0.00    -0.040 C 
BRANCH  23  24
ATOM     24  C   UNL     1      42.301 -21.049 -39.429  0.00  0.00    -0.004 C 
BRANCH  24  25
ATOM     25  N   UNL     1      43.117 -21.009 -40.639  0.00  0.00    -0.311 N 
ATOM     26  H   UNL     1      42.821 -20.201 -41.186  0.00  0.00    +0.000 HD
ATOM     27  H   UNL     1      42.966 -21.909 -41.093  0.00  0.00    +0.000 HD
BRANCH  25  28
ATOM     28  C   UNL     1      44.571 -20.910 -40.450  0.00  0.00    +0.020 C 
ATOM     29  C   UNL     1      44.988 -19.500 -40.956  0.00  0.00    -0.032 C 
ATOM     30  C   UNL     1      46.502 -19.282 -40.790  0.00  0.00    -0.039 C 
ATOM     31  C   UNL     1      46.870 -19.408 -39.303  0.00  0.00    -0.047 C 
ATOM     32  C   UNL     1      46.489 -20.804 -38.787  0.00  0.00    -0.039 C 
ATOM     33  C   UNL     1      47.242 -21.869 -39.601  0.00  0.00    -0.047 C 
ATOM     34  C   UNL     1      46.879 -21.752 -41.091  0.00  0.00    -0.039 C 
ATOM     35  C   UNL     1      47.257 -20.350 -41.595  0.00  0.00    -0.047 C 
ATOM     36  C   UNL     1      45.363 -21.965 -41.262  0.00  0.00    -0.032 C 
ATOM     37  C   UNL     1      44.973 -21.015 -38.957  0.00  0.00    -0.032 C 
ENDBRANCH  25  28
ENDBRANCH  24  25
ENDBRANCH  23  24
ENDBRANCH  22  23
ENDBRANCH  21  22
ENDBRANCH  20  21
ENDBRANCH   1  20
TORSDOF 15
ENDMDL
MODEL 16
REMARK VINA RESULT:    -5.211      2.705      7.989
REMARK INTER + INTRA:         -13.037
REMARK INTER:                 -10.022
REMARK INTRA:                  -3.015
REMARK UNBOUND:                -3.256
REMARK  Name = cpd171.pdb
REMARK  17 active torsions:
REMARK  status: ('A' for Active; 'I' for Inactive)
REMARK    1  A    between atoms: C_1  and  N_2
REMARK    2  A    between atoms: N_2  and  C_3
REMARK    3  A    between atoms: N_2  and  C_4
REMARK    4  A    between atoms: C_7  and  C_8
REMARK    5  A    between atoms: C_8  and  C_9
REMARK    6  A    between atoms: N_11  and  C_12
REMARK    7  A    between atoms: C_12  and  C_13
REMARK    8  A    between atoms: C_13  and  C_14
REMARK    9  A    between atoms: C_14  and  C_15
REMARK   10  A    between atoms: C_15  and  C_16
REMARK   11  A    between atoms: C_16  and  C_17
REMARK   12  A    between atoms: C_17  and  C_18
REMARK   13  A    between atoms: C_18  and  C_19
REMARK   14  A    between atoms: C_19  and  C_20
REMARK   15  A    between atoms: C_20  and  C_21
REMARK   16  A    between atoms: C_21  and  N_22
REMARK   17  A    between atoms: N_22  and  C_23
REMARK                            x       y       z     vdW  Elec       q    Type
REMARK                         _______ _______ _______ _____ _____    ______ ____
ROOT
ATOM      1  C   UNL     1      44.384 -17.634 -37.475  0.00  0.00    -0.053 C 
ENDROOT
BRANCH   1   2
ATOM      2  C   UNL     1      45.544 -18.101 -36.593  0.00  0.00    -0.053 C 
BRANCH   2   3
ATOM      3  C   UNL     1      45.708 -19.621 -36.638  0.00  0.00    -0.052 C 
BRANCH   3   4
ATOM      4  C   UNL     1      46.688 -20.032 -37.736  0.00  0.00    -0.037 C 
BRANCH   4   5
ATOM      5  C   UNL     1      46.073 -21.047 -38.699  0.00  0.00    +0.012 C 
BRANCH   5   8
ATOM      6  C   UNL     1      47.020 -21.003 -41.048  0.00  0.00    +0.217 C 
ATOM      7  O   UNL     1      48.027 -21.220 -41.727  0.00  0.00    -0.275 OA
ATOM      8  N   UNL     1      47.013 -21.411 -39.743  0.00  0.00    -0.315 N 
ATOM      9  H   UNL     1      47.733 -22.028 -39.479  0.00  0.00    +0.000 HD
BRANCH   6  10
ATOM     10  C   UNL     1      45.788 -20.340 -41.646  0.00  0.00    +0.049 C 
BRANCH  10  14
ATOM     11  C   UNL     1      45.441 -16.062 -40.798  0.00  0.00    +0.029 A 
ATOM     12  C   UNL     1      46.651 -16.760 -40.629  0.00  0.00    -0.040 A 
ATOM     13  C   UNL     1      46.778 -18.126 -40.917  0.00  0.00    -0.056 A 
ATOM     14  C   UNL     1      45.687 -18.858 -41.386  0.00  0.00    -0.039 A 
ATOM     15  C   UNL     1      44.495 -18.174 -41.628  0.00  0.00    -0.056 A 
ATOM     16  C   UNL     1      44.380 -16.806 -41.338  0.00  0.00    -0.040 A 
BRANCH  11  18
ATOM     17  C   UNL     1      46.461 -13.815 -40.721  0.00  0.00    +0.000 C 
ATOM     18  N   UNL     1      45.322 -14.701 -40.483  0.00  0.00    -0.336 N 
ATOM     19  C   UNL     1      44.007 -14.079 -40.636  0.00  0.00    +0.000 C 
ENDBRANCH  11  18
ENDBRANCH  10  14
ENDBRANCH   6  10
ENDBRANCH   5   8
ENDBRANCH   4   5
ENDBRANCH   3   4
ENDBRANCH   2   3
ENDBRANCH   1   2
BRANCH   1  20
ATOM     20  C   UNL     1      43.160 -18.552 -37.394  0.00  0.00    -0.053 C 
BRANCH  20  21
ATOM     21  C   UNL     1      42.495 -18.786 -38.752  0.00  0.00    -0.053 C 
BRANCH  21  22
ATOM     22  C   UNL     1      42.448 -20.275 -39.101  0.00  0.00    -0.052 C 
BRANCH  22  23
ATOM     23  C   UNL     1      41.049 -20.905 -39.045  0.00  0.00    -0.040 C 
BRANCH  23  24
ATOM     24  C   UNL     1      40.866 -22.003 -37.987  0.00  0.00    -0.004 C 
BRANCH  24  25
ATOM     25  N   UNL     1      41.601 -21.677 -36.768  0.00  0.00    -0.311 N 
ATOM     26  H   UNL     1      42.064 -20.780 -36.916  0.00  0.00    +0.000 HD
ATOM     27  H   UNL     1      42.233 -22.463 -36.618  0.00  0.00    +0.000 HD
BRANCH  25  28
ATOM     28  C   UNL     1      40.814 -21.572 -35.532  0.00  0.00    +0.020 C 
ATOM     29  C   UNL     1      40.352 -23.014 -35.177  0.00  0.00    -0.032 C 
ATOM     30  C   UNL     1      39.525 -23.024 -33.881  0.00  0.00    -0.039 C 
ATOM     31  C   UNL     1      40.385 -22.478 -32.730  0.00  0.00    -0.047 C 
ATOM     32  C   UNL     1      40.834 -21.043 -33.046  0.00  0.00    -0.039 C 
ATOM     33  C   UNL     1      39.594 -20.154 -33.235  0.00  0.00    -0.047 C 
ATOM     34  C   UNL     1      38.727 -20.691 -34.386  0.00  0.00    -0.039 C 
ATOM     35  C   UNL     1      38.290 -22.128 -34.063  0.00  0.00    -0.047 C 
ATOM     36  C   UNL     1      39.551 -20.688 -35.687  0.00  0.00    -0.032 C 
ATOM     37  C   UNL     1      41.660 -21.042 -34.346  0.00  0.00    -0.032 C 
ENDBRANCH  25  28
ENDBRANCH  24  25
ENDBRANCH  23  24
ENDBRANCH  22  23
ENDBRANCH  21  22
ENDBRANCH  20  21
ENDBRANCH   1  20
TORSDOF 15
ENDMDL
MODEL 17
REMARK VINA RESULT:    -5.115      2.515      6.803
REMARK INTER + INTRA:         -12.857
REMARK INTER:                  -7.787
REMARK INTRA:                  -5.070
REMARK UNBOUND:                -3.256
REMARK  Name = cpd171.pdb
REMARK  17 active torsions:
REMARK  status: ('A' for Active; 'I' for Inactive)
REMARK    1  A    between atoms: C_1  and  N_2
REMARK    2  A    between atoms: N_2  and  C_3
REMARK    3  A    between atoms: N_2  and  C_4
REMARK    4  A    between atoms: C_7  and  C_8
REMARK    5  A    between atoms: C_8  and  C_9
REMARK    6  A    between atoms: N_11  and  C_12
REMARK    7  A    between atoms: C_12  and  C_13
REMARK    8  A    between atoms: C_13  and  C_14
REMARK    9  A    between atoms: C_14  and  C_15
REMARK   10  A    between atoms: C_15  and  C_16
REMARK   11  A    between atoms: C_16  and  C_17
REMARK   12  A    between atoms: C_17  and  C_18
REMARK   13  A    between atoms: C_18  and  C_19
REMARK   14  A    between atoms: C_19  and  C_20
REMARK   15  A    between atoms: C_20  and  C_21
REMARK   16  A    between atoms: C_21  and  N_22
REMARK   17  A    between atoms: N_22  and  C_23
REMARK                            x       y       z     vdW  Elec       q    Type
REMARK                         _______ _______ _______ _____ _____    ______ ____
ROOT
ATOM      1  C   UNL     1      45.956 -16.702 -36.219  0.00  0.00    -0.053 C 
ENDROOT
BRANCH   1   2
ATOM      2  C   UNL     1      45.181 -17.076 -34.953  0.00  0.00    -0.053 C 
BRANCH   2   3
ATOM      3  C   UNL     1      44.776 -18.551 -34.957  0.00  0.00    -0.052 C 
BRANCH   3   4
ATOM      4  C   UNL     1      43.771 -18.845 -33.844  0.00  0.00    -0.037 C 
BRANCH   4   5
ATOM      5  C   UNL     1      42.755 -19.907 -34.259  0.00  0.00    +0.012 C 
BRANCH   5   8
ATOM      6  C   UNL     1      41.136 -19.963 -36.208  0.00  0.00    +0.217 C 
ATOM      7  O   UNL     1      40.143 -19.424 -36.701  0.00  0.00    -0.275 OA
ATOM      8  N   UNL     1      41.755 -19.352 -35.152  0.00  0.00    -0.315 N 
ATOM      9  H   UNL     1      41.489 -18.421 -34.975  0.00  0.00    +0.000 HD
BRANCH   6  10
ATOM     10  C   UNL     1      41.703 -21.255 -36.778  0.00  0.00    +0.049 C 
BRANCH  10  14
ATOM     11  C   UNL     1      44.350 -20.609 -40.202  0.00  0.00    +0.029 A 
ATOM     12  C   UNL     1      44.805 -20.493 -38.876  0.00  0.00    -0.040 A 
ATOM     13  C   UNL     1      43.970 -20.717 -37.772  0.00  0.00    -0.056 A 
ATOM     14  C   UNL     1      42.631 -21.066 -37.952  0.00  0.00    -0.039 A 
ATOM     15  C   UNL     1      42.174 -21.255 -39.257  0.00  0.00    -0.056 A 
ATOM     16  C   UNL     1      43.019 -21.030 -40.354  0.00  0.00    -0.040 A 
BRANCH  11  18
ATOM     17  C   UNL     1      46.620 -20.163 -41.064  0.00  0.00    +0.000 C 
ATOM     18  N   UNL     1      45.189 -20.358 -41.296  0.00  0.00    -0.336 N 
ATOM     19  C   UNL     1      44.845 -20.980 -42.576  0.00  0.00    +0.000 C 
ENDBRANCH  11  18
ENDBRANCH  10  14
ENDBRANCH   6  10
ENDBRANCH   5   8
ENDBRANCH   4   5
ENDBRANCH   3   4
ENDBRANCH   2   3
ENDBRANCH   1   2
BRANCH   1  20
ATOM     20  C   UNL     1      46.518 -17.919 -36.960  0.00  0.00    -0.053 C 
BRANCH  20  21
ATOM     21  C   UNL     1      47.147 -17.562 -38.310  0.00  0.00    -0.053 C 
BRANCH  21  22
ATOM     22  C   UNL     1      47.164 -16.049 -38.535  0.00  0.00    -0.052 C 
BRANCH  22  23
ATOM     23  C   UNL     1      47.050 -15.615 -40.003  0.00  0.00    -0.040 C 
BRANCH  23  24
ATOM     24  C   UNL     1      45.892 -16.250 -40.787  0.00  0.00    -0.004 C 
BRANCH  24  25
ATOM     25  N   UNL     1      44.769 -15.323 -40.895  0.00  0.00    -0.311 N 
ATOM     26  H   UNL     1      44.456 -15.329 -41.866  0.00  0.00    +0.000 HD
ATOM     27  H   UNL     1      45.130 -14.426 -40.570  0.00  0.00    +0.000 HD
BRANCH  25  28
ATOM     28  C   UNL     1      43.601 -15.600 -40.049  0.00  0.00    +0.020 C 
ATOM     29  C   UNL     1      43.628 -17.124 -39.742  0.00  0.00    -0.032 C 
ATOM     30  C   UNL     1      42.447 -17.526 -38.843  0.00  0.00    -0.039 C 
ATOM     31  C   UNL     1      42.534 -16.749 -37.519  0.00  0.00    -0.047 C 
ATOM     32  C   UNL     1      42.484 -15.238 -37.795  0.00  0.00    -0.039 C 
ATOM     33  C   UNL     1      41.168 -14.897 -38.513  0.00  0.00    -0.047 C 
ATOM     34  C   UNL     1      41.072 -15.669 -39.839  0.00  0.00    -0.039 C 
ATOM     35  C   UNL     1      41.130 -17.177 -39.553  0.00  0.00    -0.047 C 
ATOM     36  C   UNL     1      42.255 -15.274 -40.743  0.00  0.00    -0.032 C 
ATOM     37  C   UNL     1      43.669 -14.845 -38.697  0.00  0.00    -0.032 C 
ENDBRANCH  25  28
ENDBRANCH  24  25
ENDBRANCH  23  24
ENDBRANCH  22  23
ENDBRANCH  21  22
ENDBRANCH  20  21
ENDBRANCH   1  20
TORSDOF 15
ENDMDL
MODEL 18
REMARK VINA RESULT:    -5.012      2.130      4.916
REMARK INTER + INTRA:         -12.662
REMARK INTER:                  -9.430
REMARK INTRA:                  -3.233
REMARK UNBOUND:                -3.256
REMARK  Name = cpd171.pdb
REMARK  17 active torsions:
REMARK  status: ('A' for Active; 'I' for Inactive)
REMARK    1  A    between atoms: C_1  and  N_2
REMARK    2  A    between atoms: N_2  and  C_3
REMARK    3  A    between atoms: N_2  and  C_4
REMARK    4  A    between atoms: C_7  and  C_8
REMARK    5  A    between atoms: C_8  and  C_9
REMARK    6  A    between atoms: N_11  and  C_12
REMARK    7  A    between atoms: C_12  and  C_13
REMARK    8  A    between atoms: C_13  and  C_14
REMARK    9  A    between atoms: C_14  and  C_15
REMARK   10  A    between atoms: C_15  and  C_16
REMARK   11  A    between atoms: C_16  and  C_17
REMARK   12  A    between atoms: C_17  and  C_18
REMARK   13  A    between atoms: C_18  and  C_19
REMARK   14  A    between atoms: C_19  and  C_20
REMARK   15  A    between atoms: C_20  and  C_21
REMARK   16  A    between atoms: C_21  and  N_22
REMARK   17  A    between atoms: N_22  and  C_23
REMARK                            x       y       z     vdW  Elec       q    Type
REMARK                         _______ _______ _______ _____ _____    ______ ____
ROOT
ATOM      1  C   UNL     1      41.919 -19.186 -38.832  0.00  0.00    -0.053 C 
ENDROOT
BRANCH   1   2
ATOM      2  C   UNL     1      40.939 -20.346 -38.638  0.00  0.00    -0.053 C 
BRANCH   2   3
ATOM      3  C   UNL     1      40.254 -20.280 -37.272  0.00  0.00    -0.052 C 
BRANCH   3   4
ATOM      4  C   UNL     1      40.630 -21.487 -36.413  0.00  0.00    -0.037 C 
BRANCH   4   5
ATOM      5  C   UNL     1      39.494 -21.898 -35.479  0.00  0.00    +0.012 C 
BRANCH   5   8
ATOM      6  C   UNL     1      39.962 -21.895 -32.988  0.00  0.00    +0.217 C 
ATOM      7  O   UNL     1      40.235 -22.607 -32.019  0.00  0.00    -0.275 OA
ATOM      8  N   UNL     1      40.012 -22.447 -34.239  0.00  0.00    -0.315 N 
ATOM      9  H   UNL     1      40.453 -23.324 -34.306  0.00  0.00    +0.000 HD
BRANCH   6  10
ATOM     10  C   UNL     1      39.621 -20.422 -32.820  0.00  0.00    +0.049 C 
BRANCH  10  14
ATOM     11  C   UNL     1      42.867 -17.615 -33.675  0.00  0.00    +0.029 A 
ATOM     12  C   UNL     1      43.083 -18.811 -32.968  0.00  0.00    -0.040 A 
ATOM     13  C   UNL     1      42.054 -19.727 -32.706  0.00  0.00    -0.056 A 
ATOM     14  C   UNL     1      40.752 -19.477 -33.142  0.00  0.00    -0.039 A 
ATOM     15  C   UNL     1      40.526 -18.331 -33.906  0.00  0.00    -0.056 A 
ATOM     16  C   UNL     1      41.564 -17.424 -34.163  0.00  0.00    -0.040 A 
BRANCH  11  18
ATOM     17  C   UNL     1      43.807 -15.359 -33.325  0.00  0.00    +0.000 C 
ATOM     18  N   UNL     1      43.900 -16.697 -33.909  0.00  0.00    -0.336 N 
ATOM     19  C   UNL     1      45.259 -17.221 -34.053  0.00  0.00    +0.000 C 
ENDBRANCH  11  18
ENDBRANCH  10  14
ENDBRANCH   6  10
ENDBRANCH   5   8
ENDBRANCH   4   5
ENDBRANCH   3   4
ENDBRANCH   2   3
ENDBRANCH   1   2
BRANCH   1  20
ATOM     20  C   UNL     1      42.192 -18.408 -37.541  0.00  0.00    -0.053 C 
BRANCH  20  21
ATOM     21  C   UNL     1      43.672 -18.064 -37.350  0.00  0.00    -0.053 C 
BRANCH  21  22
ATOM     22  C   UNL     1      43.975 -16.635 -37.801  0.00  0.00    -0.052 C 
BRANCH  22  23
ATOM     23  C   UNL     1      44.592 -16.518 -39.202  0.00  0.00    -0.040 C 
BRANCH  23  24
ATOM     24  C   UNL     1      45.965 -17.184 -39.372  0.00  0.00    -0.004 C 
BRANCH  24  25
ATOM     25  N   UNL     1      46.082 -17.803 -40.689  0.00  0.00    -0.311 N 
ATOM     26  H   UNL     1      47.036 -17.652 -41.018  0.00  0.00    +0.000 HD
ATOM     27  H   UNL     1      45.361 -17.360 -41.258  0.00  0.00    +0.000 HD
BRANCH  25  28
ATOM     28  C   UNL     1      45.807 -19.243 -40.769  0.00  0.00    +0.020 C 
ATOM     29  C   UNL     1      46.942 -19.864 -41.632  0.00  0.00    -0.032 C 
ATOM     30  C   UNL     1      46.759 -21.385 -41.770  0.00  0.00    -0.039 C 
ATOM     31  C   UNL     1      46.789 -22.025 -40.373  0.00  0.00    -0.047 C 
ATOM     32  C   UNL     1      45.659 -21.445 -39.509  0.00  0.00    -0.039 C 
ATOM     33  C   UNL     1      44.307 -21.729 -40.183  0.00  0.00    -0.047 C 
ATOM     34  C   UNL     1      44.267 -21.091 -41.581  0.00  0.00    -0.039 C 
ATOM     35  C   UNL     1      45.405 -21.673 -42.435  0.00  0.00    -0.047 C 
ATOM     36  C   UNL     1      44.454 -19.568 -41.450  0.00  0.00    -0.032 C 
ATOM     37  C   UNL     1      45.848 -19.922 -39.376  0.00  0.00    -0.032 C 
ENDBRANCH  25  28
ENDBRANCH  24  25
ENDBRANCH  23  24
ENDBRANCH  22  23
ENDBRANCH  21  22
ENDBRANCH  20  21
ENDBRANCH   1  20
TORSDOF 15
ENDMDL
MODEL 19
REMARK VINA RESULT:    -4.947      2.957      8.079
REMARK INTER + INTRA:         -12.540
REMARK INTER:                  -8.419
REMARK INTRA:                  -4.121
REMARK UNBOUND:                -3.256
REMARK  Name = cpd171.pdb
REMARK  17 active torsions:
REMARK  status: ('A' for Active; 'I' for Inactive)
REMARK    1  A    between atoms: C_1  and  N_2
REMARK    2  A    between atoms: N_2  and  C_3
REMARK    3  A    between atoms: N_2  and  C_4
REMARK    4  A    between atoms: C_7  and  C_8
REMARK    5  A    between atoms: C_8  and  C_9
REMARK    6  A    between atoms: N_11  and  C_12
REMARK    7  A    between atoms: C_12  and  C_13
REMARK    8  A    between atoms: C_13  and  C_14
REMARK    9  A    between atoms: C_14  and  C_15
REMARK   10  A    between atoms: C_15  and  C_16
REMARK   11  A    between atoms: C_16  and  C_17
REMARK   12  A    between atoms: C_17  and  C_18
REMARK   13  A    between atoms: C_18  and  C_19
REMARK   14  A    between atoms: C_19  and  C_20
REMARK   15  A    between atoms: C_20  and  C_21
REMARK   16  A    between atoms: C_21  and  N_22
REMARK   17  A    between atoms: N_22  and  C_23
REMARK                            x       y       z     vdW  Elec       q    Type
REMARK                         _______ _______ _______ _____ _____    ______ ____
ROOT
ATOM      1  C   UNL     1      41.349 -18.388 -37.413  0.00  0.00    -0.053 C 
ENDROOT
BRANCH   1   2
ATOM      2  C   UNL     1      40.058 -17.704 -37.869  0.00  0.00    -0.053 C 
BRANCH   2   3
ATOM      3  C   UNL     1      39.969 -16.268 -37.350  0.00  0.00    -0.052 C 
BRANCH   3   4
ATOM      4  C   UNL     1      39.873 -15.274 -38.508  0.00  0.00    -0.037 C 
BRANCH   4   5
ATOM      5  C   UNL     1      40.185 -15.931 -39.851  0.00  0.00    +0.012 C 
BRANCH   5   8
ATOM      6  C   UNL     1      42.303 -14.853 -40.728  0.00  0.00    +0.217 C 
ATOM      7  O   UNL     1      42.796 -14.238 -41.676  0.00  0.00    -0.275 OA
ATOM      8  N   UNL     1      40.948 -15.039 -40.703  0.00  0.00    -0.315 N 
ATOM      9  H   UNL     1      40.427 -14.502 -41.342  0.00  0.00    +0.000 HD
BRANCH   6  10
ATOM     10  C   UNL     1      43.162 -15.359 -39.578  0.00  0.00    +0.049 C 
BRANCH  10  14
ATOM     11  C   UNL     1      45.421 -18.977 -40.552  0.00  0.00    +0.029 A 
ATOM     12  C   UNL     1      45.916 -18.006 -39.664  0.00  0.00    -0.040 A 
ATOM     13  C   UNL     1      45.192 -16.853 -39.329  0.00  0.00    -0.056 A 
ATOM     14  C   UNL     1      43.931 -16.621 -39.880  0.00  0.00    -0.039 A 
ATOM     15  C   UNL     1      43.388 -17.604 -40.710  0.00  0.00    -0.056 A 
ATOM     16  C   UNL     1      44.121 -18.754 -41.035  0.00  0.00    -0.040 A 
BRANCH  11  18
ATOM     17  C   UNL     1      45.505 -21.419 -40.910  0.00  0.00    +0.000 C 
ATOM     18  N   UNL     1      46.166 -20.114 -40.896  0.00  0.00    -0.336 N 
ATOM     19  C   UNL     1      47.246 -19.953 -41.870  0.00  0.00    +0.000 C 
ENDBRANCH  11  18
ENDBRANCH  10  14
ENDBRANCH   6  10
ENDBRANCH   5   8
ENDBRANCH   4   5
ENDBRANCH   3   4
ENDBRANCH   2   3
ENDBRANCH   1   2
BRANCH   1  20
ATOM     20  C   UNL     1      41.629 -19.699 -38.152  0.00  0.00    -0.053 C 
BRANCH  20  21
ATOM     21  C   UNL     1      43.000 -20.295 -37.820  0.00  0.00    -0.053 C 
BRANCH  21  22
ATOM     22  C   UNL     1      43.800 -19.374 -36.898  0.00  0.00    -0.052 C 
BRANCH  22  23
ATOM     23  C   UNL     1      44.325 -20.040 -35.619  0.00  0.00    -0.040 C 
BRANCH  23  24
ATOM     24  C   UNL     1      43.502 -19.767 -34.352  0.00  0.00    -0.004 C 
BRANCH  24  25
ATOM     25  N   UNL     1      42.912 -21.001 -33.840  0.00  0.00    -0.311 N 
ATOM     26  H   UNL     1      43.164 -21.079 -32.855  0.00  0.00    +0.000 HD
ATOM     27  H   UNL     1      43.283 -21.742 -34.435  0.00  0.00    +0.000 HD
BRANCH  25  28
ATOM     28  C   UNL     1      41.451 -21.122 -33.936  0.00  0.00    +0.020 C 
ATOM     29  C   UNL     1      40.893 -19.676 -34.053  0.00  0.00    -0.032 C 
ATOM     30  C   UNL     1      39.360 -19.686 -34.175  0.00  0.00    -0.039 C 
ATOM     31  C   UNL     1      38.958 -20.478 -35.430  0.00  0.00    -0.047 C 
ATOM     32  C   UNL     1      39.478 -21.920 -35.326  0.00  0.00    -0.039 C 
ATOM     33  C   UNL     1      38.880 -22.586 -34.077  0.00  0.00    -0.047 C 
ATOM     34  C   UNL     1      39.277 -21.802 -32.816  0.00  0.00    -0.039 C 
ATOM     35  C   UNL     1      38.758 -20.360 -32.932  0.00  0.00    -0.047 C 
ATOM     36  C   UNL     1      40.811 -21.785 -32.690  0.00  0.00    -0.032 C 
ATOM     37  C   UNL     1      41.014 -21.901 -35.204  0.00  0.00    -0.032 C 
ENDBRANCH  25  28
ENDBRANCH  24  25
ENDBRANCH  23  24
ENDBRANCH  22  23
ENDBRANCH  21  22
ENDBRANCH  20  21
ENDBRANCH   1  20
TORSDOF 15
ENDMDL
MODEL 20
REMARK VINA RESULT:    -4.919      2.750      7.797
REMARK INTER + INTRA:         -12.489
REMARK INTER:                  -9.299
REMARK INTRA:                  -3.190
REMARK UNBOUND:                -3.256
REMARK  Name = cpd171.pdb
REMARK  17 active torsions:
REMARK  status: ('A' for Active; 'I' for Inactive)
REMARK    1  A    between atoms: C_1  and  N_2
REMARK    2  A    between atoms: N_2  and  C_3
REMARK    3  A    between atoms: N_2  and  C_4
REMARK    4  A    between atoms: C_7  and  C_8
REMARK    5  A    between atoms: C_8  and  C_9
REMARK    6  A    between atoms: N_11  and  C_12
REMARK    7  A    between atoms: C_12  and  C_13
REMARK    8  A    between atoms: C_13  and  C_14
REMARK    9  A    between atoms: C_14  and  C_15
REMARK   10  A    between atoms: C_15  and  C_16
REMARK   11  A    between atoms: C_16  and  C_17
REMARK   12  A    between atoms: C_17  and  C_18
REMARK   13  A    between atoms: C_18  and  C_19
REMARK   14  A    between atoms: C_19  and  C_20
REMARK   15  A    between atoms: C_20  and  C_21
REMARK   16  A    between atoms: C_21  and  N_22
REMARK   17  A    between atoms: N_22  and  C_23
REMARK                            x       y       z     vdW  Elec       q    Type
REMARK                         _______ _______ _______ _____ _____    ______ ____
ROOT
ATOM      1  C   UNL     1      46.359 -18.586 -38.731  0.00  0.00    -0.053 C 
ENDROOT
BRANCH   1   2
ATOM      2  C   UNL     1      45.295 -19.537 -39.283  0.00  0.00    -0.053 C 
BRANCH   2   3
ATOM      3  C   UNL     1      45.563 -19.891 -40.747  0.00  0.00    -0.052 C 
BRANCH   3   4
ATOM      4  C   UNL     1      44.765 -21.125 -41.166  0.00  0.00    -0.037 C 
BRANCH   4   5
ATOM      5  C   UNL     1      43.259 -20.897 -41.051  0.00  0.00    +0.012 C 
BRANCH   5   8
ATOM      6  C   UNL     1      41.978 -22.003 -39.165  0.00  0.00    +0.217 C 
ATOM      7  O   UNL     1      41.281 -22.974 -38.861  0.00  0.00    -0.275 OA
ATOM      8  N   UNL     1      42.614 -22.008 -40.376  0.00  0.00    -0.315 N 
ATOM      9  H   UNL     1      42.636 -22.871 -40.848  0.00  0.00    +0.000 HD
BRANCH   6  10
ATOM     10  C   UNL     1      42.175 -20.837 -38.207  0.00  0.00    +0.049 C 
BRANCH  10  14
ATOM     11  C   UNL     1      39.587 -17.412 -39.047  0.00  0.00    +0.029 A 
ATOM     12  C   UNL     1      39.087 -18.725 -38.982  0.00  0.00    -0.040 A 
ATOM     13  C   UNL     1      39.905 -19.827 -38.693  0.00  0.00    -0.056 A 
ATOM     14  C   UNL     1      41.270 -19.658 -38.461  0.00  0.00    -0.039 A 
ATOM     15  C   UNL     1      41.777 -18.358 -38.451  0.00  0.00    -0.056 A 
ATOM     16  C   UNL     1      40.949 -17.263 -38.739  0.00  0.00    -0.040 A 
BRANCH  11  18
ATOM     17  C   UNL     1      38.147 -16.254 -40.684  0.00  0.00    +0.000 C 
ATOM     18  N   UNL     1      38.763 -16.321 -39.360  0.00  0.00    -0.336 N 
ATOM     19  C   UNL     1      37.978 -15.727 -38.276  0.00  0.00    +0.000 C 
ENDBRANCH  11  18
ENDBRANCH  10  14
ENDBRANCH   6  10
ENDBRANCH   5   8
ENDBRANCH   4   5
ENDBRANCH   3   4
ENDBRANCH   2   3
ENDBRANCH   1   2
BRANCH   1  20
ATOM     20  C   UNL     1      46.631 -18.791 -37.237  0.00  0.00    -0.053 C 
BRANCH  20  21
ATOM     21  C   UNL     1      46.065 -17.667 -36.365  0.00  0.00    -0.053 C 
BRANCH  21  22
ATOM     22  C   UNL     1      44.604 -17.929 -35.995  0.00  0.00    -0.052 C 
BRANCH  22  23
ATOM     23  C   UNL     1      44.324 -19.330 -35.432  0.00  0.00    -0.040 C 
BRANCH  23  24
ATOM     24  C   UNL     1      43.556 -19.361 -34.103  0.00  0.00    -0.004 C 
BRANCH  24  25
ATOM     25  N   UNL     1      43.101 -20.715 -33.798  0.00  0.00    -0.311 N 
ATOM     26  H   UNL     1      43.444 -20.954 -32.868  0.00  0.00    +0.000 HD
ATOM     27  H   UNL     1      43.469 -21.297 -34.550  0.00  0.00    +0.000 HD
BRANCH  25  28
ATOM     28  C   UNL     1      41.650 -20.941 -33.809  0.00  0.00    +0.020 C 
ATOM     29  C   UNL     1      40.982 -19.540 -33.727  0.00  0.00    -0.032 C 
ATOM     30  C   UNL     1      39.449 -19.658 -33.746  0.00  0.00    -0.039 C 
ATOM     31  C   UNL     1      39.012 -20.342 -35.051  0.00  0.00    -0.047 C 
ATOM     32  C   UNL     1      39.641 -21.742 -35.143  0.00  0.00    -0.039 C 
ATOM     33  C   UNL     1      39.187 -22.582 -33.939  0.00  0.00    -0.047 C 
ATOM     34  C   UNL     1      39.620 -21.906 -32.628  0.00  0.00    -0.039 C 
ATOM     35  C   UNL     1      38.993 -20.505 -32.549  0.00  0.00    -0.047 C 
ATOM     36  C   UNL     1      41.155 -21.780 -32.604  0.00  0.00    -0.032 C 
ATOM     37  C   UNL     1      41.175 -21.614 -35.123  0.00  0.00    -0.032 C 
ENDBRANCH  25  28
ENDBRANCH  24  25
ENDBRANCH  23  24
ENDBRANCH  22  23
ENDBRANCH  21  22
ENDBRANCH  20  21
ENDBRANCH   1  20
TORSDOF 15
ENDMDL
