REMARK  Name = cpd171.pdb
REMARK  17 active torsions:
REMARK  status: ('A' for Active; 'I' for Inactive)
REMARK    1  A    between atoms: C_1  and  N_2
REMARK    2  A    between atoms: N_2  and  C_3
REMARK    3  A    between atoms: N_2  and  C_4
REMARK    4  A    between atoms: C_7  and  C_8
REMARK    5  A    between atoms: C_8  and  C_9
REMARK    6  A    between atoms: N_11  and  C_12
REMARK    7  A    between atoms: C_12  and  C_13
REMARK    8  A    between atoms: C_13  and  C_14
REMARK    9  A    between atoms: C_14  and  C_15
REMARK   10  A    between atoms: C_15  and  C_16
REMARK   11  A    between atoms: C_16  and  C_17
REMARK   12  A    between atoms: C_17  and  C_18
REMARK   13  A    between atoms: C_18  and  C_19
REMARK   14  A    between atoms: C_19  and  C_20
REMARK   15  A    between atoms: C_20  and  C_21
REMARK   16  A    between atoms: C_21  and  N_22
REMARK   17  A    between atoms: N_22  and  C_23
REMARK                            x       y       z     vdW  Elec       q    Type
REMARK                         _______ _______ _______ _____ _____    ______ ____
ROOT
ATOM      1  C   UNL     1      -2.961  -0.035   2.300  0.00  0.00    -0.053 C 
ENDROOT
BRANCH   1   2
ATOM      2  C   UNL     1      -1.754  -0.153   1.366  0.00  0.00    -0.053 C 
BRANCH   2   3
ATOM      3  C   UNL     1      -0.656  -1.027   1.975  0.00  0.00    -0.052 C 
BRANCH   3   4
ATOM      4  C   UNL     1       0.490  -1.233   0.985  0.00  0.00    -0.037 C 
BRANCH   4   5
ATOM      5  C   UNL     1       1.522  -2.231   1.507  0.00  0.00    +0.012 C 
BRANCH   5   8
ATOM      6  C   UNL     1       2.301  -3.704  -0.402  0.00  0.00    +0.217 C 
ATOM      7  O   UNL     1       3.041  -3.760  -1.387  0.00  0.00    -0.275 OA
ATOM      8  N   UNL     1       2.429  -2.643   0.452  0.00  0.00    -0.315 N 
ATOM      9  H   UNL     1       3.236  -2.091   0.337  0.00  0.00    +0.000 HD
BRANCH   6  10
ATOM     10  C   UNL     1       1.295  -4.805  -0.102  0.00  0.00    +0.049 C 
BRANCH  10  14
ATOM     11  C   UNL     1      -2.852  -3.649  -0.881  0.00  0.00    +0.029 A 
ATOM     12  C   UNL     1      -1.846  -3.516  -1.855  0.00  0.00    -0.040 A 
ATOM     13  C   UNL     1      -0.518  -3.902  -1.622  0.00  0.00    -0.056 A 
ATOM     14  C   UNL     1      -0.139  -4.438  -0.391  0.00  0.00    -0.039 A 
ATOM     15  C   UNL     1      -1.133  -4.645   0.567  0.00  0.00    -0.056 A 
ATOM     16  C   UNL     1      -2.458  -4.257   0.322  0.00  0.00    -0.040 A 
BRANCH  11  18
ATOM     17  C   UNL     1      -5.131  -3.258  -0.016  0.00  0.00    +0.000 C 
ATOM     18  N   UNL     1      -4.171  -3.237  -1.119  0.00  0.00    -0.336 N 
ATOM     19  C   UNL     1      -4.388  -2.186  -2.114  0.00  0.00    +0.000 C 
ENDBRANCH  11  18
ENDBRANCH  10  14
ENDBRANCH   6  10
ENDBRANCH   5   8
ENDBRANCH   4   5
ENDBRANCH   3   4
ENDBRANCH   2   3
ENDBRANCH   1   2
BRANCH   1  20
ATOM     20  C   UNL     1      -4.141   0.708   1.666  0.00  0.00    -0.053 C 
BRANCH  20  21
ATOM     21  C   UNL     1      -3.858   2.194   1.431  0.00  0.00    -0.053 C 
BRANCH  21  22
ATOM     22  C   UNL     1      -5.060   2.898   0.799  0.00  0.00    -0.052 C 
BRANCH  22  23
ATOM     23  C   UNL     1      -4.939   4.426   0.712  0.00  0.00    -0.040 C 
BRANCH  23  24
ATOM     24  C   UNL     1      -3.772   4.944  -0.141  0.00  0.00    -0.004 C 
BRANCH  24  25
ATOM     25  N   UNL     1      -2.516   4.874   0.600  0.00  0.00    -0.311 N 
ATOM     26  H   UNL     1      -2.422   3.925   0.961  0.00  0.00    +0.000 HD
ATOM     27  H   UNL     1      -2.587   5.597   1.316  0.00  0.00    +0.000 HD
BRANCH  25  28
ATOM     28  C   UNL     1      -1.291   5.189  -0.147  0.00  0.00    +0.020 C 
ATOM     29  C   UNL     1      -0.122   5.138   0.877  0.00  0.00    -0.032 C 
ATOM     30  C   UNL     1       1.222   5.441   0.194  0.00  0.00    -0.039 C 
ATOM     31  C   UNL     1       1.476   4.397  -0.905  0.00  0.00    -0.047 C 
ATOM     32  C   UNL     1       0.345   4.446  -1.944  0.00  0.00    -0.039 C 
ATOM     33  C   UNL     1       0.287   5.851  -2.565  0.00  0.00    -0.047 C 
ATOM     34  C   UNL     1       0.032   6.903  -1.473  0.00  0.00    -0.039 C 
ATOM     35  C   UNL     1       1.164   6.841  -0.436  0.00  0.00    -0.047 C 
ATOM     36  C   UNL     1      -1.311   6.602  -0.782  0.00  0.00    -0.032 C 
ATOM     37  C   UNL     1      -0.997   4.142  -1.252  0.00  0.00    -0.032 C 
ENDBRANCH  25  28
ENDBRANCH  24  25
ENDBRANCH  23  24
ENDBRANCH  22  23
ENDBRANCH  21  22
ENDBRANCH  20  21
ENDBRANCH   1  20
TORSDOF 15
