REMARK  Name = cpd357.pdb
REMARK  4 active torsions:
REMARK  status: ('A' for Active; 'I' for Inactive)
REMARK    1  A    between atoms: C_5  and  C_6
REMARK    2  A    between atoms: C_6  and  N_7
REMARK    3  A    between atoms: C_11  and  C_12
REMARK    4  A    between atoms: C_12  and  N_13
REMARK                            x       y       z     vdW  Elec       q    Type
REMARK                         _______ _______ _______ _____ _____    ______ ____
ROOT
ATOM      1  N   UNL A   1      -4.270   2.483  -0.945  0.00  0.00    -0.349 N 
ATOM      2  C   UNL A   1      -3.978   3.787  -1.159  0.00  0.00    +0.005 A 
ATOM      3  C   UNL A   1      -2.926   4.394  -0.486  0.00  0.00    -0.045 A 
ATOM      4  C   UNL A   1      -2.165   3.648   0.406  0.00  0.00    -0.054 A 
ATOM      5  C   UNL A   1      -2.453   2.296   0.610  0.00  0.00    -0.012 A 
ATOM      6  C   UNL A   1      -3.535   1.741  -0.083  0.00  0.00    +0.010 A 
ENDROOT
BRANCH   1   7
ATOM      7  C   UNL A   1      -5.401   1.854  -1.674  0.00  0.00    +0.048 C 
BRANCH   7  12
ATOM      8 CL   UNL A   1     -10.698   4.014   0.244  0.00  0.00    -0.084 Cl
ATOM      9  C   UNL A   1      -9.192   3.392  -0.302  0.00  0.00    +0.041 A 
ATOM     10  C   UNL A   1      -8.342   2.750   0.594  0.00  0.00    -0.043 A 
ATOM     11  C   UNL A   1      -7.115   2.246   0.153  0.00  0.00    -0.055 A 
ATOM     12  C   UNL A   1      -6.726   2.389  -1.189  0.00  0.00    -0.028 A 
ATOM     13  C   UNL A   1      -7.601   3.029  -2.083  0.00  0.00    -0.055 A 
ATOM     14  C   UNL A   1      -8.828   3.530  -1.639  0.00  0.00    -0.043 A 
ENDBRANCH   7  12
ENDBRANCH   1   7
BRANCH   5  15
ATOM     15  C   UNL A   1      -1.633   1.496   1.604  0.00  0.00    +0.050 C 
BRANCH  15  16
ATOM     16  N   UNL A   1      -1.539   0.088   1.233  0.00  0.00    -0.339 N 
ATOM     17  C   UNL A   1      -0.660  -0.433   0.316  0.00  0.00    +0.023 A 
ATOM     18  C   UNL A   1      -0.939  -1.777   0.170  0.00  0.00    -0.019 A 
ATOM     19  C   UNL A   1      -2.034  -2.087   1.019  0.00  0.00    +0.003 A 
ATOM     20  C   UNL A   1      -2.759  -3.267   1.283  0.00  0.00    -0.052 A 
ATOM     21  C   UNL A   1      -3.804  -3.244   2.211  0.00  0.00    -0.061 A 
ATOM     22  C   UNL A   1      -4.129  -2.068   2.879  0.00  0.00    -0.060 A 
ATOM     23  C   UNL A   1      -3.427  -0.884   2.637  0.00  0.00    -0.038 A 
ATOM     24  C   UNL A   1      -2.382  -0.912   1.696  0.00  0.00    +0.050 A 
ATOM     25  C   UNL A   1      -0.168  -2.668  -0.750  0.00  0.00    -0.025 C 
ATOM     26  C   UNL A   1       1.170  -2.023  -1.154  0.00  0.00    -0.049 C 
ATOM     27  C   UNL A   1       1.003  -0.541  -1.532  0.00  0.00    -0.047 C 
ATOM     28  C   UNL A   1       0.452   0.298  -0.365  0.00  0.00    -0.012 C 
ENDBRANCH  15  16
ENDBRANCH   5  15
TORSDOF 4
