MODEL 1
REMARK VINA RESULT:    -8.553      0.000      0.000
REMARK INTER + INTRA:         -12.381
REMARK INTER:                 -10.554
REMARK INTRA:                  -1.827
REMARK UNBOUND:                -1.827
REMARK  Name = cpd357.pdb
REMARK  4 active torsions:
REMARK  status: ('A' for Active; 'I' for Inactive)
REMARK    1  A    between atoms: C_5  and  C_6
REMARK    2  A    between atoms: C_6  and  N_7
REMARK    3  A    between atoms: C_11  and  C_12
REMARK    4  A    between atoms: C_12  and  N_13
REMARK                            x       y       z     vdW  Elec       q    Type
REMARK                         _______ _______ _______ _____ _____    ______ ____
ROOT
ATOM      1  N   UNL A   1      33.211 -37.495 -32.519  0.00  0.00    -0.349 N 
ATOM      2  C   UNL A   1      32.058 -36.866 -32.846  0.00  0.00    +0.005 A 
ATOM      3  C   UNL A   1      31.930 -35.494 -32.677  0.00  0.00    -0.045 A 
ATOM      4  C   UNL A   1      33.002 -34.765 -32.177  0.00  0.00    -0.054 A 
ATOM      5  C   UNL A   1      34.200 -35.411 -31.860  0.00  0.00    -0.012 A 
ATOM      6  C   UNL A   1      34.267 -36.798 -32.035  0.00  0.00    +0.010 A 
ENDROOT
BRANCH   1   7
ATOM      7  C   UNL A   1      33.326 -38.964 -32.705  0.00  0.00    +0.048 C 
BRANCH   7  12
ATOM      8 CL   UNL A   1      36.329 -41.494 -28.125  0.00  0.00    -0.084 Cl
ATOM      9  C   UNL A   1      35.473 -40.780 -29.433  0.00  0.00    +0.041 A 
ATOM     10  C   UNL A   1      36.118 -40.564 -30.647  0.00  0.00    -0.043 A 
ATOM     11  C   UNL A   1      35.425 -39.980 -31.711  0.00  0.00    -0.055 A 
ATOM     12  C   UNL A   1      34.081 -39.600 -31.565  0.00  0.00    -0.028 A 
ATOM     13  C   UNL A   1      33.441 -39.836 -30.336  0.00  0.00    -0.055 A 
ATOM     14  C   UNL A   1      34.136 -40.422 -29.275  0.00  0.00    -0.043 A 
ENDBRANCH   7  12
ENDBRANCH   1   7
BRANCH   5  15
ATOM     15  C   UNL A   1      35.356 -34.611 -31.291  0.00  0.00    +0.050 C 
BRANCH  15  16
ATOM     16  N   UNL A   1      36.315 -35.455 -30.586  0.00  0.00    -0.339 N 
ATOM     17  C   UNL A   1      37.582 -35.752 -31.024  0.00  0.00    +0.023 A 
ATOM     18  C   UNL A   1      38.143 -36.649 -30.137  0.00  0.00    -0.019 A 
ATOM     19  C   UNL A   1      37.182 -36.918 -29.127  0.00  0.00    +0.003 A 
ATOM     20  C   UNL A   1      37.173 -37.747 -27.987  0.00  0.00    -0.052 A 
ATOM     21  C   UNL A   1      36.045 -37.778 -27.163  0.00  0.00    -0.061 A 
ATOM     22  C   UNL A   1      34.934 -36.994 -27.457  0.00  0.00    -0.060 A 
ATOM     23  C   UNL A   1      34.915 -36.164 -28.581  0.00  0.00    -0.038 A 
ATOM     24  C   UNL A   1      36.051 -36.143 -29.411  0.00  0.00    +0.050 A 
ATOM     25  C   UNL A   1      39.528 -37.188 -30.300  0.00  0.00    -0.025 C 
ATOM     26  C   UNL A   1      40.346 -36.329 -31.280  0.00  0.00    -0.049 C 
ATOM     27  C   UNL A   1      39.541 -35.973 -32.542  0.00  0.00    -0.047 C 
ATOM     28  C   UNL A   1      38.272 -35.167 -32.214  0.00  0.00    -0.012 C 
ENDBRANCH  15  16
ENDBRANCH   5  15
TORSDOF 4
ENDMDL
MODEL 2
REMARK VINA RESULT:    -8.222      2.459      4.760
REMARK INTER + INTRA:         -11.972
REMARK INTER:                 -10.314
REMARK INTRA:                  -1.658
REMARK UNBOUND:                -1.827
REMARK  Name = cpd357.pdb
REMARK  4 active torsions:
REMARK  status: ('A' for Active; 'I' for Inactive)
REMARK    1  A    between atoms: C_5  and  C_6
REMARK    2  A    between atoms: C_6  and  N_7
REMARK    3  A    between atoms: C_11  and  C_12
REMARK    4  A    between atoms: C_12  and  N_13
REMARK                            x       y       z     vdW  Elec       q    Type
REMARK                         _______ _______ _______ _____ _____    ______ ____
ROOT
ATOM      1  N   UNL A   1      34.605 -39.927 -29.428  0.00  0.00    -0.349 N 
ATOM      2  C   UNL A   1      35.027 -41.210 -29.513  0.00  0.00    +0.005 A 
ATOM      3  C   UNL A   1      36.323 -41.552 -29.149  0.00  0.00    -0.045 A 
ATOM      4  C   UNL A   1      37.185 -40.565 -28.685  0.00  0.00    -0.054 A 
ATOM      5  C   UNL A   1      36.741 -39.244 -28.576  0.00  0.00    -0.012 A 
ATOM      6  C   UNL A   1      35.430 -38.955 -28.973  0.00  0.00    +0.010 A 
ENDROOT
BRANCH   1   7
ATOM      7  C   UNL A   1      33.215 -39.583 -29.825  0.00  0.00    +0.048 C 
BRANCH   7  12
ATOM      8 CL   UNL A   1      33.017 -34.340 -32.804  0.00  0.00    -0.084 Cl
ATOM      9  C   UNL A   1      33.081 -35.833 -31.955  0.00  0.00    +0.041 A 
ATOM     10  C   UNL A   1      33.554 -36.975 -32.595  0.00  0.00    -0.043 A 
ATOM     11  C   UNL A   1      33.604 -38.191 -31.908  0.00  0.00    -0.055 A 
ATOM     12  C   UNL A   1      33.171 -38.274 -30.574  0.00  0.00    -0.028 A 
ATOM     13  C   UNL A   1      32.708 -37.110 -29.938  0.00  0.00    -0.055 A 
ATOM     14  C   UNL A   1      32.661 -35.895 -30.628  0.00  0.00    -0.043 A 
ENDBRANCH   7  12
ENDBRANCH   1   7
BRANCH   5  15
ATOM     15  C   UNL A   1      37.696 -38.170 -28.093  0.00  0.00    +0.050 C 
BRANCH  15  16
ATOM     16  N   UNL A   1      38.378 -37.503 -29.196  0.00  0.00    -0.339 N 
ATOM     17  C   UNL A   1      39.671 -37.744 -29.591  0.00  0.00    +0.023 A 
ATOM     18  C   UNL A   1      39.984 -36.856 -30.600  0.00  0.00    -0.019 A 
ATOM     19  C   UNL A   1      38.848 -36.035 -30.823  0.00  0.00    +0.003 A 
ATOM     20  C   UNL A   1      38.577 -34.962 -31.697  0.00  0.00    -0.052 A 
ATOM     21  C   UNL A   1      37.317 -34.357 -31.680  0.00  0.00    -0.061 A 
ATOM     22  C   UNL A   1      36.328 -34.809 -30.812  0.00  0.00    -0.060 A 
ATOM     23  C   UNL A   1      36.570 -35.870 -29.935  0.00  0.00    -0.038 A 
ATOM     24  C   UNL A   1      37.842 -36.470 -29.952  0.00  0.00    +0.050 A 
ATOM     25  C   UNL A   1      41.317 -36.838 -31.276  0.00  0.00    -0.025 C 
ATOM     26  C   UNL A   1      42.089 -38.144 -31.015  0.00  0.00    -0.049 C 
ATOM     27  C   UNL A   1      42.018 -38.568 -29.538  0.00  0.00    -0.047 C 
ATOM     28  C   UNL A   1      40.572 -38.819 -29.075  0.00  0.00    -0.012 C 
ENDBRANCH  15  16
ENDBRANCH   5  15
TORSDOF 4
ENDMDL
MODEL 3
REMARK VINA RESULT:    -7.327     17.212     20.729
REMARK INTER + INTRA:         -10.867
REMARK INTER:                  -9.252
REMARK INTRA:                  -1.615
REMARK UNBOUND:                -1.827
REMARK  Name = cpd357.pdb
REMARK  4 active torsions:
REMARK  status: ('A' for Active; 'I' for Inactive)
REMARK    1  A    between atoms: C_5  and  C_6
REMARK    2  A    between atoms: C_6  and  N_7
REMARK    3  A    between atoms: C_11  and  C_12
REMARK    4  A    between atoms: C_12  and  N_13
REMARK                            x       y       z     vdW  Elec       q    Type
REMARK                         _______ _______ _______ _____ _____    ______ ____
ROOT
ATOM      1  N   UNL A   1      46.283 -19.589 -36.919  0.00  0.00    -0.349 N 
ATOM      2  C   UNL A   1      46.659 -20.084 -35.717  0.00  0.00    +0.005 A 
ATOM      3  C   UNL A   1      45.743 -20.188 -34.679  0.00  0.00    -0.045 A 
ATOM      4  C   UNL A   1      44.428 -19.787 -34.886  0.00  0.00    -0.054 A 
ATOM      5  C   UNL A   1      44.036 -19.296 -36.134  0.00  0.00    -0.012 A 
ATOM      6  C   UNL A   1      45.005 -19.199 -37.139  0.00  0.00    +0.010 A 
ENDROOT
BRANCH   1   7
ATOM      7  C   UNL A   1      47.280 -19.485 -38.016  0.00  0.00    +0.048 C 
BRANCH   7  12
ATOM      8 CL   UNL A   1      45.371 -22.349 -42.971  0.00  0.00    -0.084 Cl
ATOM      9  C   UNL A   1      45.908 -21.530 -41.559  0.00  0.00    +0.041 A 
ATOM     10  C   UNL A   1      46.203 -20.171 -41.616  0.00  0.00    -0.043 A 
ATOM     11  C   UNL A   1      46.644 -19.504 -40.470  0.00  0.00    -0.055 A 
ATOM     12  C   UNL A   1      46.800 -20.195 -39.257  0.00  0.00    -0.028 A 
ATOM     13  C   UNL A   1      46.487 -21.564 -39.214  0.00  0.00    -0.055 A 
ATOM     14  C   UNL A   1      46.045 -22.228 -40.361  0.00  0.00    -0.043 A 
ENDBRANCH   7  12
ENDBRANCH   1   7
BRANCH   5  15
ATOM     15  C   UNL A   1      42.605 -18.837 -36.344  0.00  0.00    +0.050 C 
BRANCH  15  16
ATOM     16  N   UNL A   1      41.725 -19.936 -36.727  0.00  0.00    -0.339 N 
ATOM     17  C   UNL A   1      40.818 -20.550 -35.900  0.00  0.00    +0.023 A 
ATOM     18  C   UNL A   1      40.247 -21.598 -36.593  0.00  0.00    -0.019 A 
ATOM     19  C   UNL A   1      40.833 -21.634 -37.886  0.00  0.00    +0.003 A 
ATOM     20  C   UNL A   1      40.668 -22.471 -39.008  0.00  0.00    -0.052 A 
ATOM     21  C   UNL A   1      41.407 -22.226 -40.169  0.00  0.00    -0.061 A 
ATOM     22  C   UNL A   1      42.297 -21.158 -40.226  0.00  0.00    -0.060 A 
ATOM     23  C   UNL A   1      42.480 -20.313 -39.129  0.00  0.00    -0.038 A 
ATOM     24  C   UNL A   1      41.740 -20.570 -37.961  0.00  0.00    +0.050 A 
ATOM     25  C   UNL A   1      39.202 -22.488 -35.999  0.00  0.00    -0.025 C 
ATOM     26  C   UNL A   1      38.576 -21.847 -34.747  0.00  0.00    -0.049 C 
ATOM     27  C   UNL A   1      39.641 -21.238 -33.818  0.00  0.00    -0.047 C 
ATOM     28  C   UNL A   1      40.452 -20.130 -34.513  0.00  0.00    -0.012 C 
ENDBRANCH  15  16
ENDBRANCH   5  15
TORSDOF 4
ENDMDL
MODEL 4
REMARK VINA RESULT:    -7.257      2.449      5.257
REMARK INTER + INTRA:         -10.781
REMARK INTER:                  -9.097
REMARK INTRA:                  -1.684
REMARK UNBOUND:                -1.827
REMARK  Name = cpd357.pdb
REMARK  4 active torsions:
REMARK  status: ('A' for Active; 'I' for Inactive)
REMARK    1  A    between atoms: C_5  and  C_6
REMARK    2  A    between atoms: C_6  and  N_7
REMARK    3  A    between atoms: C_11  and  C_12
REMARK    4  A    between atoms: C_12  and  N_13
REMARK                            x       y       z     vdW  Elec       q    Type
REMARK                         _______ _______ _______ _____ _____    ______ ____
ROOT
ATOM      1  N   UNL A   1      33.565 -39.540 -31.430  0.00  0.00    -0.349 N 
ATOM      2  C   UNL A   1      34.301 -40.576 -31.897  0.00  0.00    +0.005 A 
ATOM      3  C   UNL A   1      35.611 -40.757 -31.474  0.00  0.00    -0.045 A 
ATOM      4  C   UNL A   1      36.162 -39.870 -30.558  0.00  0.00    -0.054 A 
ATOM      5  C   UNL A   1      35.395 -38.814 -30.059  0.00  0.00    -0.012 A 
ATOM      6  C   UNL A   1      34.086 -38.670 -30.533  0.00  0.00    +0.010 A 
ENDROOT
BRANCH   1   7
ATOM      7  C   UNL A   1      32.166 -39.364 -31.897  0.00  0.00    +0.048 C 
BRANCH   7  12
ATOM      8 CL   UNL A   1      30.724 -33.514 -32.219  0.00  0.00    -0.084 Cl
ATOM      9  C   UNL A   1      31.129 -35.182 -32.130  0.00  0.00    +0.041 A 
ATOM     10  C   UNL A   1      30.513 -35.995 -31.183  0.00  0.00    -0.043 A 
ATOM     11  C   UNL A   1      30.843 -37.351 -31.107  0.00  0.00    -0.055 A 
ATOM     12  C   UNL A   1      31.799 -37.902 -31.975  0.00  0.00    -0.028 A 
ATOM     13  C   UNL A   1      32.402 -37.071 -32.934  0.00  0.00    -0.055 A 
ATOM     14  C   UNL A   1      32.069 -35.716 -33.008  0.00  0.00    -0.043 A 
ENDBRANCH   7  12
ENDBRANCH   1   7
BRANCH   5  15
ATOM     15  C   UNL A   1      36.012 -37.835 -29.078  0.00  0.00    +0.050 C 
BRANCH  15  16
ATOM     16  N   UNL A   1      36.327 -36.555 -29.703  0.00  0.00    -0.339 N 
ATOM     17  C   UNL A   1      35.495 -35.463 -29.733  0.00  0.00    +0.023 A 
ATOM     18  C   UNL A   1      36.103 -34.481 -30.490  0.00  0.00    -0.019 A 
ATOM     19  C   UNL A   1      37.345 -34.995 -30.949  0.00  0.00    +0.003 A 
ATOM     20  C   UNL A   1      38.376 -34.474 -31.756  0.00  0.00    -0.052 A 
ATOM     21  C   UNL A   1      39.509 -35.250 -32.017  0.00  0.00    -0.061 A 
ATOM     22  C   UNL A   1      39.628 -36.528 -31.482  0.00  0.00    -0.060 A 
ATOM     23  C   UNL A   1      38.621 -37.069 -30.678  0.00  0.00    -0.038 A 
ATOM     24  C   UNL A   1      37.480 -36.287 -30.426  0.00  0.00    +0.050 A 
ATOM     25  C   UNL A   1      35.480 -33.144 -30.732  0.00  0.00    -0.025 C 
ATOM     26  C   UNL A   1      34.348 -32.870 -29.726  0.00  0.00    -0.049 C 
ATOM     27  C   UNL A   1      33.427 -34.090 -29.549  0.00  0.00    -0.047 C 
ATOM     28  C   UNL A   1      34.188 -35.320 -29.022  0.00  0.00    -0.012 C 
ENDBRANCH  15  16
ENDBRANCH   5  15
TORSDOF 4
ENDMDL
MODEL 5
REMARK VINA RESULT:    -7.063      2.738      6.504
REMARK INTER + INTRA:         -10.541
REMARK INTER:                 -10.543
REMARK INTRA:                   0.002
REMARK UNBOUND:                -1.827
REMARK  Name = cpd357.pdb
REMARK  4 active torsions:
REMARK  status: ('A' for Active; 'I' for Inactive)
REMARK    1  A    between atoms: C_5  and  C_6
REMARK    2  A    between atoms: C_6  and  N_7
REMARK    3  A    between atoms: C_11  and  C_12
REMARK    4  A    between atoms: C_12  and  N_13
REMARK                            x       y       z     vdW  Elec       q    Type
REMARK                         _______ _______ _______ _____ _____    ______ ____
ROOT
ATOM      1  N   UNL A   1      36.259 -37.107 -28.974  0.00  0.00    -0.349 N 
ATOM      2  C   UNL A   1      35.399 -37.065 -27.930  0.00  0.00    +0.005 A 
ATOM      3  C   UNL A   1      34.419 -36.084 -27.862  0.00  0.00    -0.045 A 
ATOM      4  C   UNL A   1      34.319 -35.146 -28.883  0.00  0.00    -0.054 A 
ATOM      5  C   UNL A   1      35.193 -35.203 -29.972  0.00  0.00    -0.012 A 
ATOM      6  C   UNL A   1      36.172 -36.204 -29.979  0.00  0.00    +0.010 A 
ENDROOT
BRANCH   1   7
ATOM      7  C   UNL A   1      37.302 -38.163 -29.025  0.00  0.00    +0.048 C 
BRANCH   7  12
ATOM      8 CL   UNL A   1      42.515 -35.989 -31.146  0.00  0.00    -0.084 Cl
ATOM      9  C   UNL A   1      41.030 -36.613 -30.547  0.00  0.00    +0.041 A 
ATOM     10  C   UNL A   1      39.831 -36.250 -31.155  0.00  0.00    -0.043 A 
ATOM     11  C   UNL A   1      38.621 -36.753 -30.668  0.00  0.00    -0.055 A 
ATOM     12  C   UNL A   1      38.602 -37.619 -29.562  0.00  0.00    -0.028 A 
ATOM     13  C   UNL A   1      39.822 -37.985 -28.968  0.00  0.00    -0.055 A 
ATOM     14  C   UNL A   1      41.030 -37.481 -29.459  0.00  0.00    -0.043 A 
ENDBRANCH   7  12
ENDBRANCH   1   7
BRANCH   5  15
ATOM     15  C   UNL A   1      35.094 -34.161 -31.070  0.00  0.00    +0.050 C 
BRANCH  15  16
ATOM     16  N   UNL A   1      33.714 -33.927 -31.483  0.00  0.00    -0.339 N 
ATOM     17  C   UNL A   1      32.937 -32.866 -31.087  0.00  0.00    +0.023 A 
ATOM     18  C   UNL A   1      31.672 -33.043 -31.608  0.00  0.00    -0.019 A 
ATOM     19  C   UNL A   1      31.670 -34.260 -32.339  0.00  0.00    +0.003 A 
ATOM     20  C   UNL A   1      30.685 -34.960 -33.066  0.00  0.00    -0.052 A 
ATOM     21  C   UNL A   1      31.016 -36.160 -33.702  0.00  0.00    -0.061 A 
ATOM     22  C   UNL A   1      32.310 -36.664 -33.628  0.00  0.00    -0.060 A 
ATOM     23  C   UNL A   1      33.307 -35.991 -32.915  0.00  0.00    -0.038 A 
ATOM     24  C   UNL A   1      32.965 -34.789 -32.271  0.00  0.00    +0.050 A 
ATOM     25  C   UNL A   1      30.560 -32.069 -31.383  0.00  0.00    -0.025 C 
ATOM     26  C   UNL A   1      31.102 -30.714 -30.893  0.00  0.00    -0.049 C 
ATOM     27  C   UNL A   1      32.167 -30.884 -29.795  0.00  0.00    -0.047 C 
ATOM     28  C   UNL A   1      33.385 -31.686 -30.286  0.00  0.00    -0.012 C 
ENDBRANCH  15  16
ENDBRANCH   5  15
TORSDOF 4
ENDMDL
MODEL 6
REMARK VINA RESULT:    -7.035      2.955      6.570
REMARK INTER + INTRA:         -10.507
REMARK INTER:                  -9.579
REMARK INTRA:                  -0.928
REMARK UNBOUND:                -1.827
REMARK  Name = cpd357.pdb
REMARK  4 active torsions:
REMARK  status: ('A' for Active; 'I' for Inactive)
REMARK    1  A    between atoms: C_5  and  C_6
REMARK    2  A    between atoms: C_6  and  N_7
REMARK    3  A    between atoms: C_11  and  C_12
REMARK    4  A    between atoms: C_12  and  N_13
REMARK                            x       y       z     vdW  Elec       q    Type
REMARK                         _______ _______ _______ _____ _____    ______ ____
ROOT
ATOM      1  N   UNL A   1      36.256 -38.112 -28.978  0.00  0.00    -0.349 N 
ATOM      2  C   UNL A   1      35.732 -38.868 -29.970  0.00  0.00    +0.005 A 
ATOM      3  C   UNL A   1      34.416 -38.686 -30.375  0.00  0.00    -0.045 A 
ATOM      4  C   UNL A   1      33.640 -37.711 -29.759  0.00  0.00    -0.054 A 
ATOM      5  C   UNL A   1      34.189 -36.916 -28.750  0.00  0.00    -0.012 A 
ATOM      6  C   UNL A   1      35.515 -37.155 -28.371  0.00  0.00    +0.010 A 
ENDROOT
BRANCH   1   7
ATOM      7  C   UNL A   1      37.665 -38.324 -28.558  0.00  0.00    +0.048 C 
BRANCH   7  12
ATOM      8 CL   UNL A   1      41.449 -35.200 -32.069  0.00  0.00    -0.084 Cl
ATOM      9  C   UNL A   1      40.373 -36.086 -31.064  0.00  0.00    +0.041 A 
ATOM     10  C   UNL A   1      40.879 -37.002 -30.146  0.00  0.00    -0.043 A 
ATOM     11  C   UNL A   1      40.005 -37.726 -29.329  0.00  0.00    -0.055 A 
ATOM     12  C   UNL A   1      38.617 -37.544 -29.431  0.00  0.00    -0.028 A 
ATOM     13  C   UNL A   1      38.123 -36.606 -30.354  0.00  0.00    -0.055 A 
ATOM     14  C   UNL A   1      38.999 -35.882 -31.168  0.00  0.00    -0.043 A 
ENDBRANCH   7  12
ENDBRANCH   1   7
BRANCH   5  15
ATOM     15  C   UNL A   1      33.328 -35.872 -28.066  0.00  0.00    +0.050 C 
BRANCH  15  16
ATOM     16  N   UNL A   1      32.819 -34.877 -29.004  0.00  0.00    -0.339 N 
ATOM     17  C   UNL A   1      31.496 -34.680 -29.311  0.00  0.00    +0.023 A 
ATOM     18  C   UNL A   1      31.423 -33.722 -30.302  0.00  0.00    -0.019 A 
ATOM     19  C   UNL A   1      32.749 -33.327 -30.621  0.00  0.00    +0.003 A 
ATOM     20  C   UNL A   1      33.299 -32.415 -31.545  0.00  0.00    -0.052 A 
ATOM     21  C   UNL A   1      34.684 -32.240 -31.604  0.00  0.00    -0.061 A 
ATOM     22  C   UNL A   1      35.523 -32.955 -30.755  0.00  0.00    -0.060 A 
ATOM     23  C   UNL A   1      35.005 -33.866 -29.830  0.00  0.00    -0.038 A 
ATOM     24  C   UNL A   1      33.610 -34.043 -29.781  0.00  0.00    +0.050 A 
ATOM     25  C   UNL A   1      30.127 -33.251 -30.879  0.00  0.00    -0.025 C 
ATOM     26  C   UNL A   1      28.945 -33.633 -29.970  0.00  0.00    -0.049 C 
ATOM     27  C   UNL A   1      29.046 -35.086 -29.475  0.00  0.00    -0.047 C 
ATOM     28  C   UNL A   1      30.323 -35.332 -28.651  0.00  0.00    -0.012 C 
ENDBRANCH  15  16
ENDBRANCH   5  15
TORSDOF 4
ENDMDL
MODEL 7
REMARK VINA RESULT:    -7.028      2.570      5.724
REMARK INTER + INTRA:         -10.498
REMARK INTER:                  -8.751
REMARK INTRA:                  -1.748
REMARK UNBOUND:                -1.827
REMARK  Name = cpd357.pdb
REMARK  4 active torsions:
REMARK  status: ('A' for Active; 'I' for Inactive)
REMARK    1  A    between atoms: C_5  and  C_6
REMARK    2  A    between atoms: C_6  and  N_7
REMARK    3  A    between atoms: C_11  and  C_12
REMARK    4  A    between atoms: C_12  and  N_13
REMARK                            x       y       z     vdW  Elec       q    Type
REMARK                         _______ _______ _______ _____ _____    ______ ____
ROOT
ATOM      1  N   UNL A   1      36.562 -35.414 -30.614  0.00  0.00    -0.349 N 
ATOM      2  C   UNL A   1      37.753 -35.505 -31.250  0.00  0.00    +0.005 A 
ATOM      3  C   UNL A   1      38.745 -36.349 -30.771  0.00  0.00    -0.045 A 
ATOM      4  C   UNL A   1      38.504 -37.111 -29.634  0.00  0.00    -0.054 A 
ATOM      5  C   UNL A   1      37.266 -37.033 -28.990  0.00  0.00    -0.012 A 
ATOM      6  C   UNL A   1      36.308 -36.153 -29.508  0.00  0.00    +0.010 A 
ENDROOT
BRANCH   1   7
ATOM      7  C   UNL A   1      35.514 -34.503 -31.143  0.00  0.00    +0.048 C 
BRANCH   7  12
ATOM      8 CL   UNL A   1      30.477 -34.841 -27.839  0.00  0.00    -0.084 Cl
ATOM      9  C   UNL A   1      31.907 -34.743 -28.786  0.00  0.00    +0.041 A 
ATOM     10  C   UNL A   1      32.205 -35.752 -29.698  0.00  0.00    -0.043 A 
ATOM     11  C   UNL A   1      33.370 -35.676 -30.467  0.00  0.00    -0.055 A 
ATOM     12  C   UNL A   1      34.251 -34.592 -30.322  0.00  0.00    -0.028 A 
ATOM     13  C   UNL A   1      33.929 -33.576 -29.406  0.00  0.00    -0.055 A 
ATOM     14  C   UNL A   1      32.763 -33.654 -28.640  0.00  0.00    -0.043 A 
ENDBRANCH   7  12
ENDBRANCH   1   7
BRANCH   5  15
ATOM     15  C   UNL A   1      37.020 -37.849 -27.736  0.00  0.00    +0.050 C 
BRANCH  15  16
ATOM     16  N   UNL A   1      35.737 -38.544 -27.774  0.00  0.00    -0.339 N 
ATOM     17  C   UNL A   1      35.470 -39.676 -28.504  0.00  0.00    +0.023 A 
ATOM     18  C   UNL A   1      34.131 -39.975 -28.356  0.00  0.00    -0.019 A 
ATOM     19  C   UNL A   1      33.556 -38.986 -27.515  0.00  0.00    +0.003 A 
ATOM     20  C   UNL A   1      32.252 -38.759 -27.029  0.00  0.00    -0.052 A 
ATOM     21  C   UNL A   1      32.009 -37.672 -26.184  0.00  0.00    -0.061 A 
ATOM     22  C   UNL A   1      33.044 -36.818 -25.816  0.00  0.00    -0.060 A 
ATOM     23  C   UNL A   1      34.345 -37.020 -26.284  0.00  0.00    -0.038 A 
ATOM     24  C   UNL A   1      34.582 -38.110 -27.140  0.00  0.00    +0.050 A 
ATOM     25  C   UNL A   1      33.489 -41.156 -29.011  0.00  0.00    -0.025 C 
ATOM     26  C   UNL A   1      34.546 -42.171 -29.482  0.00  0.00    -0.049 C 
ATOM     27  C   UNL A   1      35.725 -41.485 -30.193  0.00  0.00    -0.047 C 
ATOM     28  C   UNL A   1      36.458 -40.490 -29.275  0.00  0.00    -0.012 C 
ENDBRANCH  15  16
ENDBRANCH   5  15
TORSDOF 4
ENDMDL
MODEL 8
REMARK VINA RESULT:    -7.000     16.645     19.719
REMARK INTER + INTRA:         -10.464
REMARK INTER:                  -9.595
REMARK INTRA:                  -0.869
REMARK UNBOUND:                -1.827
REMARK  Name = cpd357.pdb
REMARK  4 active torsions:
REMARK  status: ('A' for Active; 'I' for Inactive)
REMARK    1  A    between atoms: C_5  and  C_6
REMARK    2  A    between atoms: C_6  and  N_7
REMARK    3  A    between atoms: C_11  and  C_12
REMARK    4  A    between atoms: C_12  and  N_13
REMARK                            x       y       z     vdW  Elec       q    Type
REMARK                         _______ _______ _______ _____ _____    ______ ____
ROOT
ATOM      1  N   UNL A   1      42.446 -20.657 -39.781  0.00  0.00    -0.349 N 
ATOM      2  C   UNL A   1      42.018 -21.859 -40.232  0.00  0.00    +0.005 A 
ATOM      3  C   UNL A   1      40.936 -22.492 -39.635  0.00  0.00    -0.045 A 
ATOM      4  C   UNL A   1      40.286 -21.876 -38.572  0.00  0.00    -0.054 A 
ATOM      5  C   UNL A   1      40.716 -20.625 -38.121  0.00  0.00    -0.012 A 
ATOM      6  C   UNL A   1      41.821 -20.041 -38.750  0.00  0.00    +0.010 A 
ENDROOT
BRANCH   1   7
ATOM      7  C   UNL A   1      43.607 -19.999 -40.434  0.00  0.00    +0.048 C 
BRANCH   7  12
ATOM      8 CL   UNL A   1      47.500 -24.073 -42.591  0.00  0.00    -0.084 Cl
ATOM      9  C   UNL A   1      46.386 -22.917 -41.977  0.00  0.00    +0.041 A 
ATOM     10  C   UNL A   1      45.497 -22.286 -42.842  0.00  0.00    -0.043 A 
ATOM     11  C   UNL A   1      44.591 -21.343 -42.345  0.00  0.00    -0.055 A 
ATOM     12  C   UNL A   1      44.576 -21.019 -40.979  0.00  0.00    -0.028 A 
ATOM     13  C   UNL A   1      45.472 -21.675 -40.118  0.00  0.00    -0.055 A 
ATOM     14  C   UNL A   1      46.375 -22.618 -40.617  0.00  0.00    -0.043 A 
ENDBRANCH   7  12
ENDBRANCH   1   7
BRANCH   5  15
ATOM     15  C   UNL A   1      40.017 -19.971 -36.944  0.00  0.00    +0.050 C 
BRANCH  15  16
ATOM     16  N   UNL A   1      40.696 -20.241 -35.681  0.00  0.00    -0.339 N 
ATOM     17  C   UNL A   1      40.376 -21.253 -34.810  0.00  0.00    +0.023 A 
ATOM     18  C   UNL A   1      41.177 -21.126 -33.692  0.00  0.00    -0.019 A 
ATOM     19  C   UNL A   1      42.008 -19.990 -33.882  0.00  0.00    +0.003 A 
ATOM     20  C   UNL A   1      42.998 -19.365 -33.096  0.00  0.00    -0.052 A 
ATOM     21  C   UNL A   1      43.662 -18.238 -33.588  0.00  0.00    -0.061 A 
ATOM     22  C   UNL A   1      43.357 -17.734 -34.848  0.00  0.00    -0.060 A 
ATOM     23  C   UNL A   1      42.381 -18.333 -35.648  0.00  0.00    -0.038 A 
ATOM     24  C   UNL A   1      41.710 -19.462 -35.144  0.00  0.00    +0.050 A 
ATOM     25  C   UNL A   1      41.104 -22.068 -32.534  0.00  0.00    -0.025 C 
ATOM     26  C   UNL A   1      40.375 -23.367 -32.921  0.00  0.00    -0.049 C 
ATOM     27  C   UNL A   1      39.094 -23.090 -33.726  0.00  0.00    -0.047 C 
ATOM     28  C   UNL A   1      39.384 -22.347 -35.042  0.00  0.00    -0.012 C 
ENDBRANCH  15  16
ENDBRANCH   5  15
TORSDOF 4
ENDMDL
MODEL 9
REMARK VINA RESULT:    -6.977     18.956     22.263
REMARK INTER + INTRA:         -10.436
REMARK INTER:                  -8.837
REMARK INTRA:                  -1.599
REMARK UNBOUND:                -1.827
REMARK  Name = cpd357.pdb
REMARK  4 active torsions:
REMARK  status: ('A' for Active; 'I' for Inactive)
REMARK    1  A    between atoms: C_5  and  C_6
REMARK    2  A    between atoms: C_6  and  N_7
REMARK    3  A    between atoms: C_11  and  C_12
REMARK    4  A    between atoms: C_12  and  N_13
REMARK                            x       y       z     vdW  Elec       q    Type
REMARK                         _______ _______ _______ _____ _____    ______ ____
ROOT
ATOM      1  N   UNL A   1      42.779 -21.044 -37.548  0.00  0.00    -0.349 N 
ATOM      2  C   UNL A   1      41.499 -21.477 -37.485  0.00  0.00    +0.005 A 
ATOM      3  C   UNL A   1      40.802 -21.788 -38.646  0.00  0.00    -0.045 A 
ATOM      4  C   UNL A   1      41.434 -21.661 -39.877  0.00  0.00    -0.054 A 
ATOM      5  C   UNL A   1      42.764 -21.234 -39.939  0.00  0.00    -0.012 A 
ATOM      6  C   UNL A   1      43.411 -20.919 -38.739  0.00  0.00    +0.010 A 
ENDROOT
BRANCH   1   7
ATOM      7  C   UNL A   1      43.505 -20.715 -36.294  0.00  0.00    +0.048 C 
BRANCH   7  12
ATOM      8 CL   UNL A   1      47.564 -16.343 -37.197  0.00  0.00    -0.084 Cl
ATOM      9  C   UNL A   1      46.405 -17.587 -36.946  0.00  0.00    +0.041 A 
ATOM     10  C   UNL A   1      45.087 -17.255 -36.647  0.00  0.00    -0.043 A 
ATOM     11  C   UNL A   1      44.143 -18.265 -36.439  0.00  0.00    -0.055 A 
ATOM     12  C   UNL A   1      44.515 -19.617 -36.522  0.00  0.00    -0.028 A 
ATOM     13  C   UNL A   1      45.847 -19.934 -36.838  0.00  0.00    -0.055 A 
ATOM     14  C   UNL A   1      46.788 -18.922 -37.046  0.00  0.00    -0.043 A 
ENDBRANCH   7  12
ENDBRANCH   1   7
BRANCH   5  15
ATOM     15  C   UNL A   1      43.438 -21.074 -41.288  0.00  0.00    +0.050 C 
BRANCH  15  16
ATOM     16  N   UNL A   1      44.790 -20.538 -41.167  0.00  0.00    -0.339 N 
ATOM     17  C   UNL A   1      45.110 -19.205 -41.092  0.00  0.00    +0.023 A 
ATOM     18  C   UNL A   1      46.486 -19.095 -41.083  0.00  0.00    -0.019 A 
ATOM     19  C   UNL A   1      47.027 -20.405 -41.167  0.00  0.00    +0.003 A 
ATOM     20  C   UNL A   1      48.339 -20.917 -41.213  0.00  0.00    -0.052 A 
ATOM     21  C   UNL A   1      48.542 -22.299 -41.283  0.00  0.00    -0.061 A 
ATOM     22  C   UNL A   1      47.458 -23.170 -41.301  0.00  0.00    -0.060 A 
ATOM     23  C   UNL A   1      46.146 -22.691 -41.257  0.00  0.00    -0.038 A 
ATOM     24  C   UNL A   1      45.949 -21.299 -41.195  0.00  0.00    +0.050 A 
ATOM     25  C   UNL A   1      47.192 -17.780 -41.000  0.00  0.00    -0.025 C 
ATOM     26  C   UNL A   1      46.241 -16.671 -40.514  0.00  0.00    -0.049 C 
ATOM     27  C   UNL A   1      44.877 -16.731 -41.223  0.00  0.00    -0.047 C 
ATOM     28  C   UNL A   1      44.151 -18.065 -40.973  0.00  0.00    -0.012 C 
ENDBRANCH  15  16
ENDBRANCH   5  15
TORSDOF 4
ENDMDL
MODEL 10
REMARK VINA RESULT:    -6.876     17.464     20.191
REMARK INTER + INTRA:         -10.311
REMARK INTER:                  -9.030
REMARK INTRA:                  -1.281
REMARK UNBOUND:                -1.827
REMARK  Name = cpd357.pdb
REMARK  4 active torsions:
REMARK  status: ('A' for Active; 'I' for Inactive)
REMARK    1  A    between atoms: C_5  and  C_6
REMARK    2  A    between atoms: C_6  and  N_7
REMARK    3  A    between atoms: C_11  and  C_12
REMARK    4  A    between atoms: C_12  and  N_13
REMARK                            x       y       z     vdW  Elec       q    Type
REMARK                         _______ _______ _______ _____ _____    ______ ____
ROOT
ATOM      1  N   UNL A   1      43.961 -19.154 -34.261  0.00  0.00    -0.349 N 
ATOM      2  C   UNL A   1      45.100 -19.885 -34.297  0.00  0.00    +0.005 A 
ATOM      3  C   UNL A   1      45.702 -20.195 -35.509  0.00  0.00    -0.045 A 
ATOM      4  C   UNL A   1      45.130 -19.741 -36.691  0.00  0.00    -0.054 A 
ATOM      5  C   UNL A   1      43.967 -18.968 -36.653  0.00  0.00    -0.012 A 
ATOM      6  C   UNL A   1      43.394 -18.699 -35.404  0.00  0.00    +0.010 A 
ENDROOT
BRANCH   1   7
ATOM      7  C   UNL A   1      43.333 -18.835 -32.954  0.00  0.00    +0.048 C 
BRANCH   7  12
ATOM      8 CL   UNL A   1      37.834 -21.275 -32.500  0.00  0.00    -0.084 Cl
ATOM      9  C   UNL A   1      39.399 -20.580 -32.636  0.00  0.00    +0.041 A 
ATOM     10  C   UNL A   1      40.480 -21.375 -33.009  0.00  0.00    -0.043 A 
ATOM     11  C   UNL A   1      41.755 -20.813 -33.118  0.00  0.00    -0.055 A 
ATOM     12  C   UNL A   1      41.959 -19.450 -32.845  0.00  0.00    -0.028 A 
ATOM     13  C   UNL A   1      40.856 -18.659 -32.482  0.00  0.00    -0.055 A 
ATOM     14  C   UNL A   1      39.582 -19.224 -32.376  0.00  0.00    -0.043 A 
ENDBRANCH   7  12
ENDBRANCH   1   7
BRANCH   5  15
ATOM     15  C   UNL A   1      43.336 -18.497 -37.949  0.00  0.00    +0.050 C 
BRANCH  15  16
ATOM     16  N   UNL A   1      42.960 -19.610 -38.814  0.00  0.00    -0.339 N 
ATOM     17  C   UNL A   1      43.464 -19.844 -40.070  0.00  0.00    +0.023 A 
ATOM     18  C   UNL A   1      42.799 -20.929 -40.604  0.00  0.00    -0.019 A 
ATOM     19  C   UNL A   1      41.846 -21.367 -39.647  0.00  0.00    +0.003 A 
ATOM     20  C   UNL A   1      40.886 -22.400 -39.630  0.00  0.00    -0.052 A 
ATOM     21  C   UNL A   1      40.089 -22.584 -38.497  0.00  0.00    -0.061 A 
ATOM     22  C   UNL A   1      40.240 -21.761 -37.386  0.00  0.00    -0.060 A 
ATOM     23  C   UNL A   1      41.184 -20.731 -37.375  0.00  0.00    -0.038 A 
ATOM     24  C   UNL A   1      41.977 -20.545 -38.522  0.00  0.00    +0.050 A 
ATOM     25  C   UNL A   1      43.097 -21.471 -41.965  0.00  0.00    -0.025 C 
ATOM     26  C   UNL A   1      44.458 -20.964 -42.477  0.00  0.00    -0.049 C 
ATOM     27  C   UNL A   1      44.641 -19.457 -42.228  0.00  0.00    -0.047 C 
ATOM     28  C   UNL A   1      44.582 -19.104 -40.731  0.00  0.00    -0.012 C 
ENDBRANCH  15  16
ENDBRANCH   5  15
TORSDOF 4
ENDMDL
MODEL 11
REMARK VINA RESULT:    -6.758     16.413     19.426
REMARK INTER + INTRA:         -10.165
REMARK INTER:                  -9.182
REMARK INTRA:                  -0.983
REMARK UNBOUND:                -1.827
REMARK  Name = cpd357.pdb
REMARK  4 active torsions:
REMARK  status: ('A' for Active; 'I' for Inactive)
REMARK    1  A    between atoms: C_5  and  C_6
REMARK    2  A    between atoms: C_6  and  N_7
REMARK    3  A    between atoms: C_11  and  C_12
REMARK    4  A    between atoms: C_12  and  N_13
REMARK                            x       y       z     vdW  Elec       q    Type
REMARK                         _______ _______ _______ _____ _____    ______ ____
ROOT
ATOM      1  N   UNL A   1      42.478 -20.468 -38.952  0.00  0.00    -0.349 N 
ATOM      2  C   UNL A   1      41.429 -21.002 -39.619  0.00  0.00    +0.005 A 
ATOM      3  C   UNL A   1      40.436 -21.691 -38.935  0.00  0.00    -0.045 A 
ATOM      4  C   UNL A   1      40.522 -21.822 -37.554  0.00  0.00    -0.054 A 
ATOM      5  C   UNL A   1      41.594 -21.251 -36.864  0.00  0.00    -0.012 A 
ATOM      6  C   UNL A   1      42.574 -20.582 -37.606  0.00  0.00    +0.010 A 
ENDROOT
BRANCH   1   7
ATOM      7  C   UNL A   1      43.530 -19.736 -39.703  0.00  0.00    +0.048 C 
BRANCH   7  12
ATOM      8 CL   UNL A   1      47.337 -23.568 -42.393  0.00  0.00    -0.084 Cl
ATOM      9  C   UNL A   1      46.258 -22.472 -41.626  0.00  0.00    +0.041 A 
ATOM     10  C   UNL A   1      46.361 -22.242 -40.257  0.00  0.00    -0.043 A 
ATOM     11  C   UNL A   1      45.482 -21.353 -39.631  0.00  0.00    -0.055 A 
ATOM     12  C   UNL A   1      44.487 -20.693 -40.371  0.00  0.00    -0.028 A 
ATOM     13  C   UNL A   1      44.405 -20.927 -41.754  0.00  0.00    -0.055 A 
ATOM     14  C   UNL A   1      45.286 -21.815 -42.377  0.00  0.00    -0.043 A 
ENDBRANCH   7  12
ENDBRANCH   1   7
BRANCH   5  15
ATOM     15  C   UNL A   1      41.693 -21.419 -35.360  0.00  0.00    +0.050 C 
BRANCH  15  16
ATOM     16  N   UNL A   1      40.498 -20.942 -34.673  0.00  0.00    -0.339 N 
ATOM     17  C   UNL A   1      40.292 -19.654 -34.242  0.00  0.00    +0.023 A 
ATOM     18  C   UNL A   1      39.094 -19.617 -33.558  0.00  0.00    -0.019 A 
ATOM     19  C   UNL A   1      38.552 -20.929 -33.562  0.00  0.00    +0.003 A 
ATOM     20  C   UNL A   1      37.383 -21.502 -33.021  0.00  0.00    -0.052 A 
ATOM     21  C   UNL A   1      37.124 -22.862 -33.218  0.00  0.00    -0.061 A 
ATOM     22  C   UNL A   1      38.008 -23.651 -33.947  0.00  0.00    -0.060 A 
ATOM     23  C   UNL A   1      39.174 -23.109 -34.494  0.00  0.00    -0.038 A 
ATOM     24  C   UNL A   1      39.433 -21.742 -34.285  0.00  0.00    +0.050 A 
ATOM     25  C   UNL A   1      38.547 -18.365 -32.952  0.00  0.00    -0.025 C 
ATOM     26  C   UNL A   1      39.239 -17.119 -33.534  0.00  0.00    -0.049 C 
ATOM     27  C   UNL A   1      40.766 -17.294 -33.612  0.00  0.00    -0.047 C 
ATOM     28  C   UNL A   1      41.170 -18.475 -34.513  0.00  0.00    -0.012 C 
ENDBRANCH  15  16
ENDBRANCH   5  15
TORSDOF 4
ENDMDL
MODEL 12
REMARK VINA RESULT:    -6.739     17.114     20.438
REMARK INTER + INTRA:         -10.142
REMARK INTER:                  -8.774
REMARK INTRA:                  -1.368
REMARK UNBOUND:                -1.827
REMARK  Name = cpd357.pdb
REMARK  4 active torsions:
REMARK  status: ('A' for Active; 'I' for Inactive)
REMARK    1  A    between atoms: C_5  and  C_6
REMARK    2  A    between atoms: C_6  and  N_7
REMARK    3  A    between atoms: C_11  and  C_12
REMARK    4  A    between atoms: C_12  and  N_13
REMARK                            x       y       z     vdW  Elec       q    Type
REMARK                         _______ _______ _______ _____ _____    ______ ____
ROOT
ATOM      1  N   UNL A   1      46.269 -19.110 -36.847  0.00  0.00    -0.349 N 
ATOM      2  C   UNL A   1      46.887 -19.553 -35.728  0.00  0.00    +0.005 A 
ATOM      3  C   UNL A   1      46.155 -19.839 -34.583  0.00  0.00    -0.045 A 
ATOM      4  C   UNL A   1      44.775 -19.676 -34.597  0.00  0.00    -0.054 A 
ATOM      5  C   UNL A   1      44.134 -19.240 -35.759  0.00  0.00    -0.012 A 
ATOM      6  C   UNL A   1      44.924 -18.950 -36.878  0.00  0.00    +0.010 A 
ENDROOT
BRANCH   1   7
ATOM      7  C   UNL A   1      47.071 -18.807 -38.059  0.00  0.00    +0.048 C 
BRANCH   7  12
ATOM      8 CL   UNL A   1      45.440 -22.327 -42.681  0.00  0.00    -0.084 Cl
ATOM      9  C   UNL A   1      45.911 -21.325 -41.366  0.00  0.00    +0.041 A 
ATOM     10  C   UNL A   1      46.475 -21.895 -40.229  0.00  0.00    -0.043 A 
ATOM     11  C   UNL A   1      46.857 -21.083 -39.157  0.00  0.00    -0.055 A 
ATOM     12  C   UNL A   1      46.668 -19.693 -39.213  0.00  0.00    -0.028 A 
ATOM     13  C   UNL A   1      46.109 -19.132 -40.374  0.00  0.00    -0.055 A 
ATOM     14  C   UNL A   1      45.730 -19.947 -41.444  0.00  0.00    -0.043 A 
ENDBRANCH   7  12
ENDBRANCH   1   7
BRANCH   5  15
ATOM     15  C   UNL A   1      42.631 -19.040 -35.757  0.00  0.00    +0.050 C 
BRANCH  15  16
ATOM     16  N   UNL A   1      41.912 -20.270 -36.076  0.00  0.00    -0.339 N 
ATOM     17  C   UNL A   1      41.702 -20.759 -37.341  0.00  0.00    +0.023 A 
ATOM     18  C   UNL A   1      40.906 -21.883 -37.239  0.00  0.00    -0.019 A 
ATOM     19  C   UNL A   1      40.611 -22.082 -35.864  0.00  0.00    +0.003 A 
ATOM     20  C   UNL A   1      39.849 -23.036 -35.159  0.00  0.00    -0.052 A 
ATOM     21  C   UNL A   1      39.766 -22.962 -33.766  0.00  0.00    -0.061 A 
ATOM     22  C   UNL A   1      40.434 -21.959 -33.071  0.00  0.00    -0.060 A 
ATOM     23  C   UNL A   1      41.197 -21.001 -33.745  0.00  0.00    -0.038 A 
ATOM     24  C   UNL A   1      41.270 -21.076 -35.147  0.00  0.00    +0.050 A 
ATOM     25  C   UNL A   1      40.480 -22.683 -38.428  0.00  0.00    -0.025 C 
ATOM     26  C   UNL A   1      41.351 -22.360 -39.655  0.00  0.00    -0.049 C 
ATOM     27  C   UNL A   1      41.567 -20.846 -39.824  0.00  0.00    -0.047 C 
ATOM     28  C   UNL A   1      42.278 -20.221 -38.611  0.00  0.00    -0.012 C 
ENDBRANCH  15  16
ENDBRANCH   5  15
TORSDOF 4
ENDMDL
MODEL 13
REMARK VINA RESULT:    -6.702     16.986     19.911
REMARK INTER + INTRA:         -10.097
REMARK INTER:                  -8.820
REMARK INTRA:                  -1.277
REMARK UNBOUND:                -1.827
REMARK  Name = cpd357.pdb
REMARK  4 active torsions:
REMARK  status: ('A' for Active; 'I' for Inactive)
REMARK    1  A    between atoms: C_5  and  C_6
REMARK    2  A    between atoms: C_6  and  N_7
REMARK    3  A    between atoms: C_11  and  C_12
REMARK    4  A    between atoms: C_12  and  N_13
REMARK                            x       y       z     vdW  Elec       q    Type
REMARK                         _______ _______ _______ _____ _____    ______ ____
ROOT
ATOM      1  N   UNL A   1      40.487 -20.755 -38.197  0.00  0.00    -0.349 N 
ATOM      2  C   UNL A   1      40.221 -21.999 -38.659  0.00  0.00    +0.005 A 
ATOM      3  C   UNL A   1      40.966 -22.540 -39.698  0.00  0.00    -0.045 A 
ATOM      4  C   UNL A   1      41.998 -21.796 -40.257  0.00  0.00    -0.054 A 
ATOM      5  C   UNL A   1      42.287 -20.521 -39.765  0.00  0.00    -0.012 A 
ATOM      6  C   UNL A   1      41.492 -20.020 -38.727  0.00  0.00    +0.010 A 
ENDROOT
BRANCH   1   7
ATOM      7  C   UNL A   1      39.676 -20.195 -37.086  0.00  0.00    +0.048 C 
BRANCH   7  12
ATOM      8 CL   UNL A   1      41.066 -22.799 -31.824  0.00  0.00    -0.084 Cl
ATOM      9  C   UNL A   1      40.675 -22.061 -33.326  0.00  0.00    +0.041 A 
ATOM     10  C   UNL A   1      41.534 -21.115 -33.877  0.00  0.00    -0.043 A 
ATOM     11  C   UNL A   1      41.217 -20.511 -35.097  0.00  0.00    -0.055 A 
ATOM     12  C   UNL A   1      40.031 -20.845 -35.771  0.00  0.00    -0.028 A 
ATOM     13  C   UNL A   1      39.180 -21.811 -35.206  0.00  0.00    -0.055 A 
ATOM     14  C   UNL A   1      39.502 -22.414 -33.987  0.00  0.00    -0.043 A 
ENDBRANCH   7  12
ENDBRANCH   1   7
BRANCH   5  15
ATOM     15  C   UNL A   1      43.399 -19.706 -40.398  0.00  0.00    +0.050 C 
BRANCH  15  16
ATOM     16  N   UNL A   1      44.714 -20.083 -39.891  0.00  0.00    -0.339 N 
ATOM     17  C   UNL A   1      45.580 -20.955 -40.503  0.00  0.00    +0.023 A 
ATOM     18  C   UNL A   1      46.672 -21.127 -39.676  0.00  0.00    -0.019 A 
ATOM     19  C   UNL A   1      46.462 -20.341 -38.512  0.00  0.00    +0.003 A 
ATOM     20  C   UNL A   1      47.206 -20.127 -37.334  0.00  0.00    -0.052 A 
ATOM     21  C   UNL A   1      46.716 -19.257 -36.356  0.00  0.00    -0.061 A 
ATOM     22  C   UNL A   1      45.505 -18.598 -36.539  0.00  0.00    -0.060 A 
ATOM     23  C   UNL A   1      44.747 -18.792 -37.697  0.00  0.00    -0.038 A 
ATOM     24  C   UNL A   1      45.241 -19.675 -38.674  0.00  0.00    +0.050 A 
ATOM     25  C   UNL A   1      47.824 -22.010 -40.031  0.00  0.00    -0.025 C 
ATOM     26  C   UNL A   1      47.830 -22.335 -41.536  0.00  0.00    -0.049 C 
ATOM     27  C   UNL A   1      46.429 -22.710 -42.049  0.00  0.00    -0.047 C 
ATOM     28  C   UNL A   1      45.415 -21.568 -41.856  0.00  0.00    -0.012 C 
ENDBRANCH  15  16
ENDBRANCH   5  15
TORSDOF 4
ENDMDL
MODEL 14
REMARK VINA RESULT:    -6.662     19.930     22.624
REMARK INTER + INTRA:         -10.047
REMARK INTER:                  -8.941
REMARK INTRA:                  -1.106
REMARK UNBOUND:                -1.827
REMARK  Name = cpd357.pdb
REMARK  4 active torsions:
REMARK  status: ('A' for Active; 'I' for Inactive)
REMARK    1  A    between atoms: C_5  and  C_6
REMARK    2  A    between atoms: C_6  and  N_7
REMARK    3  A    between atoms: C_11  and  C_12
REMARK    4  A    between atoms: C_12  and  N_13
REMARK                            x       y       z     vdW  Elec       q    Type
REMARK                         _______ _______ _______ _____ _____    ______ ____
ROOT
ATOM      1  N   UNL A   1      47.175 -17.704 -37.000  0.00  0.00    -0.349 N 
ATOM      2  C   UNL A   1      47.423 -16.386 -36.817  0.00  0.00    +0.005 A 
ATOM      3  C   UNL A   1      47.238 -15.483 -37.856  0.00  0.00    -0.045 A 
ATOM      4  C   UNL A   1      46.785 -15.942 -39.087  0.00  0.00    -0.054 A 
ATOM      5  C   UNL A   1      46.508 -17.299 -39.269  0.00  0.00    -0.012 A 
ATOM      6  C   UNL A   1      46.728 -18.166 -38.192  0.00  0.00    +0.010 A 
ENDROOT
BRANCH   1   7
ATOM      7  C   UNL A   1      47.381 -18.654 -35.877  0.00  0.00    +0.048 C 
BRANCH   7  12
ATOM      8 CL   UNL A   1      42.232 -19.622 -32.885  0.00  0.00    -0.084 Cl
ATOM      9  C   UNL A   1      43.702 -19.349 -33.731  0.00  0.00    +0.041 A 
ATOM     10  C   UNL A   1      44.480 -18.235 -33.426  0.00  0.00    -0.043 A 
ATOM     11  C   UNL A   1      45.675 -18.009 -34.115  0.00  0.00    -0.055 A 
ATOM     12  C   UNL A   1      46.096 -18.892 -35.123  0.00  0.00    -0.028 A 
ATOM     13  C   UNL A   1      45.305 -20.018 -35.410  0.00  0.00    -0.055 A 
ATOM     14  C   UNL A   1      44.112 -20.242 -34.718  0.00  0.00    -0.043 A 
ENDBRANCH   7  12
ENDBRANCH   1   7
BRANCH   5  15
ATOM     15  C   UNL A   1      46.038 -17.794 -40.623  0.00  0.00    +0.050 C 
BRANCH  15  16
ATOM     16  N   UNL A   1      45.566 -19.174 -40.571  0.00  0.00    -0.339 N 
ATOM     17  C   UNL A   1      44.331 -19.573 -40.125  0.00  0.00    +0.023 A 
ATOM     18  C   UNL A   1      44.294 -20.953 -40.140  0.00  0.00    -0.019 A 
ATOM     19  C   UNL A   1      45.555 -21.415 -40.601  0.00  0.00    +0.003 A 
ATOM     20  C   UNL A   1      46.107 -22.695 -40.811  0.00  0.00    -0.052 A 
ATOM     21  C   UNL A   1      47.410 -22.815 -41.301  0.00  0.00    -0.061 A 
ATOM     22  C   UNL A   1      48.163 -21.681 -41.589  0.00  0.00    -0.060 A 
ATOM     23  C   UNL A   1      47.641 -20.400 -41.391  0.00  0.00    -0.038 A 
ATOM     24  C   UNL A   1      46.332 -20.286 -40.890  0.00  0.00    +0.050 A 
ATOM     25  C   UNL A   1      43.091 -21.735 -39.722  0.00  0.00    -0.025 C 
ATOM     26  C   UNL A   1      41.834 -20.846 -39.693  0.00  0.00    -0.049 C 
ATOM     27  C   UNL A   1      42.105 -19.490 -39.016  0.00  0.00    -0.047 C 
ATOM     28  C   UNL A   1      43.191 -18.682 -39.747  0.00  0.00    -0.012 C 
ENDBRANCH  15  16
ENDBRANCH   5  15
TORSDOF 4
ENDMDL
MODEL 15
REMARK VINA RESULT:    -6.645     16.841     20.036
REMARK INTER + INTRA:         -10.026
REMARK INTER:                  -8.921
REMARK INTRA:                  -1.105
REMARK UNBOUND:                -1.827
REMARK  Name = cpd357.pdb
REMARK  4 active torsions:
REMARK  status: ('A' for Active; 'I' for Inactive)
REMARK    1  A    between atoms: C_5  and  C_6
REMARK    2  A    between atoms: C_6  and  N_7
REMARK    3  A    between atoms: C_11  and  C_12
REMARK    4  A    between atoms: C_12  and  N_13
REMARK                            x       y       z     vdW  Elec       q    Type
REMARK                         _______ _______ _______ _____ _____    ______ ____
ROOT
ATOM      1  N   UNL A   1      44.006 -19.854 -38.579  0.00  0.00    -0.349 N 
ATOM      2  C   UNL A   1      44.447 -19.530 -37.341  0.00  0.00    +0.005 A 
ATOM      3  C   UNL A   1      43.749 -19.941 -36.214  0.00  0.00    -0.045 A 
ATOM      4  C   UNL A   1      42.595 -20.700 -36.364  0.00  0.00    -0.054 A 
ATOM      5  C   UNL A   1      42.152 -21.053 -37.642  0.00  0.00    -0.012 A 
ATOM      6  C   UNL A   1      42.886 -20.597 -38.743  0.00  0.00    +0.010 A 
ENDROOT
BRANCH   1   7
ATOM      7  C   UNL A   1      44.767 -19.403 -39.772  0.00  0.00    +0.048 C 
BRANCH   7  12
ATOM      8 CL   UNL A   1      47.307 -24.072 -42.627  0.00  0.00    -0.084 Cl
ATOM      9  C   UNL A   1      46.590 -22.738 -41.815  0.00  0.00    +0.041 A 
ATOM     10  C   UNL A   1      47.038 -22.376 -40.548  0.00  0.00    -0.043 A 
ATOM     11  C   UNL A   1      46.454 -21.293 -39.884  0.00  0.00    -0.055 A 
ATOM     12  C   UNL A   1      45.409 -20.569 -40.482  0.00  0.00    -0.028 A 
ATOM     13  C   UNL A   1      44.977 -20.940 -41.767  0.00  0.00    -0.055 A 
ATOM     14  C   UNL A   1      45.564 -22.022 -42.428  0.00  0.00    -0.043 A 
ENDBRANCH   7  12
ENDBRANCH   1   7
BRANCH   5  15
ATOM     15  C   UNL A   1      40.877 -21.860 -37.797  0.00  0.00    +0.050 C 
BRANCH  15  16
ATOM     16  N   UNL A   1      39.755 -21.259 -37.085  0.00  0.00    -0.339 N 
ATOM     17  C   UNL A   1      39.122 -20.095 -37.442  0.00  0.00    +0.023 A 
ATOM     18  C   UNL A   1      38.179 -19.805 -36.476  0.00  0.00    -0.019 A 
ATOM     19  C   UNL A   1      38.245 -20.822 -35.487  0.00  0.00    +0.003 A 
ATOM     20  C   UNL A   1      37.555 -21.055 -34.281  0.00  0.00    -0.052 A 
ATOM     21  C   UNL A   1      37.853 -22.189 -33.520  0.00  0.00    -0.061 A 
ATOM     22  C   UNL A   1      38.821 -23.091 -33.949  0.00  0.00    -0.060 A 
ATOM     23  C   UNL A   1      39.521 -22.886 -35.141  0.00  0.00    -0.038 A 
ATOM     24  C   UNL A   1      39.222 -21.738 -35.897  0.00  0.00    +0.050 A 
ATOM     25  C   UNL A   1      37.292 -18.604 -36.545  0.00  0.00    -0.025 C 
ATOM     26  C   UNL A   1      37.271 -18.012 -37.966  0.00  0.00    -0.049 C 
ATOM     27  C   UNL A   1      38.682 -17.922 -38.573  0.00  0.00    -0.047 C 
ATOM     28  C   UNL A   1      39.354 -19.302 -38.688  0.00  0.00    -0.012 C 
ENDBRANCH  15  16
ENDBRANCH   5  15
TORSDOF 4
ENDMDL
MODEL 16
REMARK VINA RESULT:    -6.636     16.595     19.536
REMARK INTER + INTRA:         -10.015
REMARK INTER:                  -9.035
REMARK INTRA:                  -0.980
REMARK UNBOUND:                -1.827
REMARK  Name = cpd357.pdb
REMARK  4 active torsions:
REMARK  status: ('A' for Active; 'I' for Inactive)
REMARK    1  A    between atoms: C_5  and  C_6
REMARK    2  A    between atoms: C_6  and  N_7
REMARK    3  A    between atoms: C_11  and  C_12
REMARK    4  A    between atoms: C_12  and  N_13
REMARK                            x       y       z     vdW  Elec       q    Type
REMARK                         _______ _______ _______ _____ _____    ______ ____
ROOT
ATOM      1  N   UNL A   1      42.381 -20.377 -39.759  0.00  0.00    -0.349 N 
ATOM      2  C   UNL A   1      41.966 -21.561 -40.267  0.00  0.00    +0.005 A 
ATOM      3  C   UNL A   1      40.836 -22.189 -39.760  0.00  0.00    -0.045 A 
ATOM      4  C   UNL A   1      40.125 -21.587 -38.729  0.00  0.00    -0.054 A 
ATOM      5  C   UNL A   1      40.542 -20.354 -38.219  0.00  0.00    -0.012 A 
ATOM      6  C   UNL A   1      41.697 -19.775 -38.757  0.00  0.00    +0.010 A 
ENDROOT
BRANCH   1   7
ATOM      7  C   UNL A   1      43.594 -19.724 -40.315  0.00  0.00    +0.048 C 
BRANCH   7  12
ATOM      8 CL   UNL A   1      47.891 -23.777 -41.542  0.00  0.00    -0.084 Cl
ATOM      9  C   UNL A   1      46.662 -22.628 -41.194  0.00  0.00    +0.041 A 
ATOM     10  C   UNL A   1      45.912 -22.080 -42.231  0.00  0.00    -0.043 A 
ATOM     11  C   UNL A   1      44.914 -21.143 -41.950  0.00  0.00    -0.055 A 
ATOM     12  C   UNL A   1      44.665 -20.740 -40.628  0.00  0.00    -0.028 A 
ATOM     13  C   UNL A   1      45.423 -21.311 -39.592  0.00  0.00    -0.055 A 
ATOM     14  C   UNL A   1      46.419 -22.250 -39.876  0.00  0.00    -0.043 A 
ENDBRANCH   7  12
ENDBRANCH   1   7
BRANCH   5  15
ATOM     15  C   UNL A   1      39.774 -19.717 -37.077  0.00  0.00    +0.050 C 
BRANCH  15  16
ATOM     16  N   UNL A   1      40.264 -20.155 -35.774  0.00  0.00    -0.339 N 
ATOM     17  C   UNL A   1      41.230 -19.518 -35.035  0.00  0.00    +0.023 A 
ATOM     18  C   UNL A   1      41.486 -20.281 -33.914  0.00  0.00    -0.019 A 
ATOM     19  C   UNL A   1      40.655 -21.431 -33.974  0.00  0.00    +0.003 A 
ATOM     20  C   UNL A   1      40.484 -22.555 -33.140  0.00  0.00    -0.052 A 
ATOM     21  C   UNL A   1      39.548 -23.534 -33.481  0.00  0.00    -0.061 A 
ATOM     22  C   UNL A   1      38.780 -23.405 -34.634  0.00  0.00    -0.060 A 
ATOM     23  C   UNL A   1      38.928 -22.302 -35.479  0.00  0.00    -0.038 A 
ATOM     24  C   UNL A   1      39.878 -21.324 -35.134  0.00  0.00    +0.050 A 
ATOM     25  C   UNL A   1      42.485 -19.884 -32.875  0.00  0.00    -0.025 C 
ATOM     26  C   UNL A   1      42.846 -18.392 -32.995  0.00  0.00    -0.049 C 
ATOM     27  C   UNL A   1      43.096 -17.977 -34.456  0.00  0.00    -0.047 C 
ATOM     28  C   UNL A   1      41.857 -18.196 -35.343  0.00  0.00    -0.012 C 
ENDBRANCH  15  16
ENDBRANCH   5  15
TORSDOF 4
ENDMDL
MODEL 17
REMARK VINA RESULT:    -6.455     16.772     19.896
REMARK INTER + INTRA:          -9.792
REMARK INTER:                  -8.679
REMARK INTRA:                  -1.113
REMARK UNBOUND:                -1.827
REMARK  Name = cpd357.pdb
REMARK  4 active torsions:
REMARK  status: ('A' for Active; 'I' for Inactive)
REMARK    1  A    between atoms: C_5  and  C_6
REMARK    2  A    between atoms: C_6  and  N_7
REMARK    3  A    between atoms: C_11  and  C_12
REMARK    4  A    between atoms: C_12  and  N_13
REMARK                            x       y       z     vdW  Elec       q    Type
REMARK                         _______ _______ _______ _____ _____    ______ ____
ROOT
ATOM      1  N   UNL A   1      42.471 -20.478 -39.013  0.00  0.00    -0.349 N 
ATOM      2  C   UNL A   1      41.541 -21.277 -39.587  0.00  0.00    +0.005 A 
ATOM      3  C   UNL A   1      40.618 -21.958 -38.805  0.00  0.00    -0.045 A 
ATOM      4  C   UNL A   1      40.648 -21.805 -37.424  0.00  0.00    -0.054 A 
ATOM      5  C   UNL A   1      41.594 -20.963 -36.834  0.00  0.00    -0.012 A 
ATOM      6  C   UNL A   1      42.511 -20.315 -37.670  0.00  0.00    +0.010 A 
ENDROOT
BRANCH   1   7
ATOM      7  C   UNL A   1      43.452 -19.761 -39.868  0.00  0.00    +0.048 C 
BRANCH   7  12
ATOM      8 CL   UNL A   1      47.261 -23.616 -42.519  0.00  0.00    -0.084 Cl
ATOM      9  C   UNL A   1      46.171 -22.523 -41.765  0.00  0.00    +0.041 A 
ATOM     10  C   UNL A   1      45.275 -21.793 -42.541  0.00  0.00    -0.043 A 
ATOM     11  C   UNL A   1      44.389 -20.900 -41.931  0.00  0.00    -0.055 A 
ATOM     12  C   UNL A   1      44.400 -20.726 -40.537  0.00  0.00    -0.028 A 
ATOM     13  C   UNL A   1      45.302 -21.480 -39.767  0.00  0.00    -0.055 A 
ATOM     14  C   UNL A   1      46.185 -22.372 -40.381  0.00  0.00    -0.043 A 
ENDBRANCH   7  12
ENDBRANCH   1   7
BRANCH   5  15
ATOM     15  C   UNL A   1      41.636 -20.823 -35.324  0.00  0.00    +0.050 C 
BRANCH  15  16
ATOM     16  N   UNL A   1      40.403 -20.254 -34.790  0.00  0.00    -0.339 N 
ATOM     17  C   UNL A   1      39.361 -20.975 -34.262  0.00  0.00    +0.023 A 
ATOM     18  C   UNL A   1      38.343 -20.096 -33.954  0.00  0.00    -0.019 A 
ATOM     19  C   UNL A   1      38.772 -18.792 -34.316  0.00  0.00    +0.003 A 
ATOM     20  C   UNL A   1      38.174 -17.517 -34.255  0.00  0.00    -0.052 A 
ATOM     21  C   UNL A   1      38.887 -16.396 -34.691  0.00  0.00    -0.061 A 
ATOM     22  C   UNL A   1      40.183 -16.530 -35.177  0.00  0.00    -0.060 A 
ATOM     23  C   UNL A   1      40.801 -17.782 -35.248  0.00  0.00    -0.038 A 
ATOM     24  C   UNL A   1      40.075 -18.906 -34.816  0.00  0.00    +0.050 A 
ATOM     25  C   UNL A   1      37.048 -20.536 -33.349  0.00  0.00    -0.025 C 
ATOM     26  C   UNL A   1      37.168 -21.950 -32.752  0.00  0.00    -0.049 C 
ATOM     27  C   UNL A   1      37.906 -22.913 -33.698  0.00  0.00    -0.047 C 
ATOM     28  C   UNL A   1      39.341 -22.447 -34.000  0.00  0.00    -0.012 C 
ENDBRANCH  15  16
ENDBRANCH   5  15
TORSDOF 4
ENDMDL
MODEL 18
REMARK VINA RESULT:    -6.438     16.898     20.207
REMARK INTER + INTRA:          -9.771
REMARK INTER:                  -8.721
REMARK INTRA:                  -1.049
REMARK UNBOUND:                -1.827
REMARK  Name = cpd357.pdb
REMARK  4 active torsions:
REMARK  status: ('A' for Active; 'I' for Inactive)
REMARK    1  A    between atoms: C_5  and  C_6
REMARK    2  A    between atoms: C_6  and  N_7
REMARK    3  A    between atoms: C_11  and  C_12
REMARK    4  A    between atoms: C_12  and  N_13
REMARK                            x       y       z     vdW  Elec       q    Type
REMARK                         _______ _______ _______ _____ _____    ______ ____
ROOT
ATOM      1  N   UNL A   1      43.924 -19.677 -39.079  0.00  0.00    -0.349 N 
ATOM      2  C   UNL A   1      44.414 -19.053 -37.983  0.00  0.00    +0.005 A 
ATOM      3  C   UNL A   1      43.876 -19.305 -36.728  0.00  0.00    -0.045 A 
ATOM      4  C   UNL A   1      42.833 -20.214 -36.602  0.00  0.00    -0.054 A 
ATOM      5  C   UNL A   1      42.342 -20.875 -37.731  0.00  0.00    -0.012 A 
ATOM      6  C   UNL A   1      42.911 -20.569 -38.973  0.00  0.00    +0.010 A 
ENDROOT
BRANCH   1   7
ATOM      7  C   UNL A   1      44.513 -19.391 -40.412  0.00  0.00    +0.048 C 
BRANCH   7  12
ATOM      8 CL   UNL A   1      47.309 -24.249 -42.645  0.00  0.00    -0.084 Cl
ATOM      9  C   UNL A   1      46.507 -22.870 -42.006  0.00  0.00    +0.041 A 
ATOM     10  C   UNL A   1      45.404 -22.342 -42.670  0.00  0.00    -0.043 A 
ATOM     11  C   UNL A   1      44.751 -21.218 -42.155  0.00  0.00    -0.055 A 
ATOM     12  C   UNL A   1      45.206 -20.608 -40.974  0.00  0.00    -0.028 A 
ATOM     13  C   UNL A   1      46.315 -21.161 -40.310  0.00  0.00    -0.055 A 
ATOM     14  C   UNL A   1      46.963 -22.286 -40.827  0.00  0.00    -0.043 A 
ENDBRANCH   7  12
ENDBRANCH   1   7
BRANCH   5  15
ATOM     15  C   UNL A   1      41.186 -21.847 -37.589  0.00  0.00    +0.050 C 
BRANCH  15  16
ATOM     16  N   UNL A   1      40.049 -21.251 -36.895  0.00  0.00    -0.339 N 
ATOM     17  C   UNL A   1      39.533 -21.686 -35.700  0.00  0.00    +0.023 A 
ATOM     18  C   UNL A   1      38.411 -20.934 -35.417  0.00  0.00    -0.019 A 
ATOM     19  C   UNL A   1      38.227 -20.014 -36.483  0.00  0.00    +0.003 A 
ATOM     20  C   UNL A   1      37.265 -19.020 -36.758  0.00  0.00    -0.052 A 
ATOM     21  C   UNL A   1      37.376 -18.252 -37.921  0.00  0.00    -0.061 A 
ATOM     22  C   UNL A   1      38.430 -18.458 -38.804  0.00  0.00    -0.060 A 
ATOM     23  C   UNL A   1      39.398 -19.435 -38.557  0.00  0.00    -0.038 A 
ATOM     24  C   UNL A   1      39.276 -20.210 -37.389  0.00  0.00    +0.050 A 
ATOM     25  C   UNL A   1      37.595 -21.131 -34.181  0.00  0.00    -0.025 C 
ATOM     26  C   UNL A   1      38.375 -21.933 -33.124  0.00  0.00    -0.049 C 
ATOM     27  C   UNL A   1      39.089 -23.150 -33.737  0.00  0.00    -0.047 C 
ATOM     28  C   UNL A   1      40.111 -22.743 -34.814  0.00  0.00    -0.012 C 
ENDBRANCH  15  16
ENDBRANCH   5  15
TORSDOF 4
ENDMDL
MODEL 19
REMARK VINA RESULT:    -6.239     19.156     22.473
REMARK INTER + INTRA:          -9.525
REMARK INTER:                  -7.624
REMARK INTRA:                  -1.901
REMARK UNBOUND:                -1.827
REMARK  Name = cpd357.pdb
REMARK  4 active torsions:
REMARK  status: ('A' for Active; 'I' for Inactive)
REMARK    1  A    between atoms: C_5  and  C_6
REMARK    2  A    between atoms: C_6  and  N_7
REMARK    3  A    between atoms: C_11  and  C_12
REMARK    4  A    between atoms: C_12  and  N_13
REMARK                            x       y       z     vdW  Elec       q    Type
REMARK                         _______ _______ _______ _____ _____    ______ ____
ROOT
ATOM      1  N   UNL A   1      43.471 -20.206 -35.951  0.00  0.00    -0.349 N 
ATOM      2  C   UNL A   1      42.338 -20.616 -35.335  0.00  0.00    +0.005 A 
ATOM      3  C   UNL A   1      41.256 -21.071 -36.077  0.00  0.00    -0.045 A 
ATOM      4  C   UNL A   1      41.348 -21.113 -37.463  0.00  0.00    -0.054 A 
ATOM      5  C   UNL A   1      42.526 -20.710 -38.098  0.00  0.00    -0.012 A 
ATOM      6  C   UNL A   1      43.579 -20.245 -37.300  0.00  0.00    +0.010 A 
ENDROOT
BRANCH   1   7
ATOM      7  C   UNL A   1      44.615 -19.721 -35.138  0.00  0.00    +0.048 C 
BRANCH   7  12
ATOM      8 CL   UNL A   1      47.765 -15.500 -38.082  0.00  0.00    -0.084 Cl
ATOM      9  C   UNL A   1      46.863 -16.702 -37.249  0.00  0.00    +0.041 A 
ATOM     10  C   UNL A   1      45.656 -16.366 -36.642  0.00  0.00    -0.043 A 
ATOM     11  C   UNL A   1      44.922 -17.342 -35.961  0.00  0.00    -0.055 A 
ATOM     12  C   UNL A   1      45.397 -18.661 -35.876  0.00  0.00    -0.028 A 
ATOM     13  C   UNL A   1      46.611 -18.986 -36.504  0.00  0.00    -0.055 A 
ATOM     14  C   UNL A   1      47.341 -18.008 -37.186  0.00  0.00    -0.043 A 
ENDBRANCH   7  12
ENDBRANCH   1   7
BRANCH   5  15
ATOM     15  C   UNL A   1      42.609 -20.735 -39.612  0.00  0.00    +0.050 C 
BRANCH  15  16
ATOM     16  N   UNL A   1      43.820 -20.090 -40.108  0.00  0.00    -0.339 N 
ATOM     17  C   UNL A   1      44.975 -20.741 -40.466  0.00  0.00    +0.023 A 
ATOM     18  C   UNL A   1      45.921 -19.789 -40.791  0.00  0.00    -0.019 A 
ATOM     19  C   UNL A   1      45.327 -18.511 -40.615  0.00  0.00    +0.003 A 
ATOM     20  C   UNL A   1      45.794 -17.190 -40.774  0.00  0.00    -0.052 A 
ATOM     21  C   UNL A   1      44.932 -16.118 -40.527  0.00  0.00    -0.061 A 
ATOM     22  C   UNL A   1      43.617 -16.345 -40.133  0.00  0.00    -0.060 A 
ATOM     23  C   UNL A   1      43.128 -17.644 -39.969  0.00  0.00    -0.038 A 
ATOM     24  C   UNL A   1      44.003 -18.719 -40.210  0.00  0.00    +0.050 A 
ATOM     25  C   UNL A   1      47.303 -20.142 -41.236  0.00  0.00    -0.025 C 
ATOM     26  C   UNL A   1      47.385 -21.615 -41.676  0.00  0.00    -0.049 C 
ATOM     27  C   UNL A   1      46.668 -22.551 -40.688  0.00  0.00    -0.047 C 
ATOM     28  C   UNL A   1      45.171 -22.220 -40.556  0.00  0.00    -0.012 C 
ENDBRANCH  15  16
ENDBRANCH   5  15
TORSDOF 4
ENDMDL
MODEL 20
REMARK VINA RESULT:    -6.086     18.814     21.512
REMARK INTER + INTRA:          -9.337
REMARK INTER:                  -7.656
REMARK INTRA:                  -1.681
REMARK UNBOUND:                -1.827
REMARK  Name = cpd357.pdb
REMARK  4 active torsions:
REMARK  status: ('A' for Active; 'I' for Inactive)
REMARK    1  A    between atoms: C_5  and  C_6
REMARK    2  A    between atoms: C_6  and  N_7
REMARK    3  A    between atoms: C_11  and  C_12
REMARK    4  A    between atoms: C_12  and  N_13
REMARK                            x       y       z     vdW  Elec       q    Type
REMARK                         _______ _______ _______ _____ _____    ______ ____
ROOT
ATOM      1  N   UNL A   1      45.594 -18.028 -34.907  0.00  0.00    -0.349 N 
ATOM      2  C   UNL A   1      46.927 -18.206 -34.756  0.00  0.00    +0.005 A 
ATOM      3  C   UNL A   1      47.759 -18.277 -35.866  0.00  0.00    -0.045 A 
ATOM      4  C   UNL A   1      47.212 -18.155 -37.138  0.00  0.00    -0.054 A 
ATOM      5  C   UNL A   1      45.839 -17.949 -37.292  0.00  0.00    -0.012 A 
ATOM      6  C   UNL A   1      45.047 -17.901 -36.139  0.00  0.00    +0.010 A 
ENDROOT
BRANCH   1   7
ATOM      7  C   UNL A   1      44.722 -17.956 -33.706  0.00  0.00    +0.048 C 
BRANCH   7  12
ATOM      8 CL   UNL A   1      39.515 -20.854 -34.647  0.00  0.00    -0.084 Cl
ATOM      9  C   UNL A   1      40.996 -20.028 -34.372  0.00  0.00    +0.041 A 
ATOM     10  C   UNL A   1      41.011 -18.637 -34.304  0.00  0.00    -0.043 A 
ATOM     11  C   UNL A   1      42.215 -17.962 -34.084  0.00  0.00    -0.055 A 
ATOM     12  C   UNL A   1      43.416 -18.675 -33.938  0.00  0.00    -0.028 A 
ATOM     13  C   UNL A   1      43.382 -20.079 -33.997  0.00  0.00    -0.055 A 
ATOM     14  C   UNL A   1      42.176 -20.751 -34.216  0.00  0.00    -0.043 A 
ENDBRANCH   7  12
ENDBRANCH   1   7
BRANCH   5  15
ATOM     15  C   UNL A   1      45.248 -17.841 -38.684  0.00  0.00    +0.050 C 
BRANCH  15  16
ATOM     16  N   UNL A   1      44.901 -19.146 -39.237  0.00  0.00    -0.339 N 
ATOM     17  C   UNL A   1      45.634 -19.829 -40.177  0.00  0.00    +0.023 A 
ATOM     18  C   UNL A   1      44.939 -20.973 -40.515  0.00  0.00    -0.019 A 
ATOM     19  C   UNL A   1      43.734 -20.985 -39.764  0.00  0.00    +0.003 A 
ATOM     20  C   UNL A   1      42.639 -21.870 -39.694  0.00  0.00    -0.052 A 
ATOM     21  C   UNL A   1      41.584 -21.597 -38.818  0.00  0.00    -0.061 A 
ATOM     22  C   UNL A   1      41.610 -20.464 -38.013  0.00  0.00    -0.060 A 
ATOM     23  C   UNL A   1      42.684 -19.570 -38.062  0.00  0.00    -0.038 A 
ATOM     24  C   UNL A   1      43.738 -19.845 -38.951  0.00  0.00    +0.050 A 
ATOM     25  C   UNL A   1      45.448 -21.963 -41.512  0.00  0.00    -0.025 C 
ATOM     26  C   UNL A   1      46.954 -21.771 -41.766  0.00  0.00    -0.049 C 
ATOM     27  C   UNL A   1      47.321 -20.288 -41.948  0.00  0.00    -0.047 C 
ATOM     28  C   UNL A   1      46.980 -19.448 -40.703  0.00  0.00    -0.012 C 
ENDBRANCH  15  16
ENDBRANCH   5  15
TORSDOF 4
ENDMDL
