MODEL 1
REMARK VINA RESULT:    -8.173      0.000      0.000
REMARK INTER + INTRA:         -12.076
REMARK INTER:                 -10.084
REMARK INTRA:                  -1.992
REMARK UNBOUND:                -1.992
REMARK  Name = cpd343.pdb
REMARK  5 active torsions:
REMARK  status: ('A' for Active; 'I' for Inactive)
REMARK    1  A    between atoms: C_1  and  C_2
REMARK    2  A    between atoms: C_5  and  C_6
REMARK    3  A    between atoms: C_6  and  N_7
REMARK    4  A    between atoms: C_11  and  C_12
REMARK    5  A    between atoms: C_12  and  N_13
REMARK                            x       y       z     vdW  Elec       q    Type
REMARK                         _______ _______ _______ _____ _____    ______ ____
ROOT
ATOM      1  N   UNL A   1      33.202 -37.541 -32.736  0.00  0.00    -0.349 N 
ATOM      2  C   UNL A   1      32.173 -36.856 -33.285  0.00  0.00    +0.005 A 
ATOM      3  C   UNL A   1      32.100 -35.474 -33.164  0.00  0.00    -0.045 A 
ATOM      4  C   UNL A   1      33.100 -34.795 -32.477  0.00  0.00    -0.054 A 
ATOM      5  C   UNL A   1      34.173 -35.502 -31.927  0.00  0.00    -0.012 A 
ATOM      6  C   UNL A   1      34.185 -36.894 -32.068  0.00  0.00    +0.010 A 
ENDROOT
BRANCH   1   7
ATOM      7  C   UNL A   1      33.256 -39.018 -32.874  0.00  0.00    +0.048 C 
BRANCH   7  12
ATOM      8  C   UNL A   1      35.770 -41.408 -28.192  0.00  0.00    -0.040 C 
ATOM      9  C   UNL A   1      35.115 -40.819 -29.408  0.00  0.00    -0.050 A 
ATOM     10  C   UNL A   1      35.797 -40.766 -30.628  0.00  0.00    -0.059 A 
ATOM     11  C   UNL A   1      35.197 -40.196 -31.752  0.00  0.00    -0.057 A 
ATOM     12  C   UNL A   1      33.906 -39.650 -31.670  0.00  0.00    -0.028 A 
ATOM     13  C   UNL A   1      33.226 -39.702 -30.444  0.00  0.00    -0.057 A 
ATOM     14  C   UNL A   1      33.830 -40.275 -29.323  0.00  0.00    -0.059 A 
ENDBRANCH   7  12
ENDBRANCH   1   7
BRANCH   5  15
ATOM     15  C   UNL A   1      35.245 -34.759 -31.156  0.00  0.00    +0.050 C 
BRANCH  15  16
ATOM     16  N   UNL A   1      36.075 -35.658 -30.361  0.00  0.00    -0.339 N 
ATOM     17  C   UNL A   1      37.362 -36.027 -30.667  0.00  0.00    +0.023 A 
ATOM     18  C   UNL A   1      37.777 -36.951 -29.730  0.00  0.00    -0.019 A 
ATOM     19  C   UNL A   1      36.703 -37.164 -28.825  0.00  0.00    +0.003 A 
ATOM     20  C   UNL A   1      36.531 -37.987 -27.694  0.00  0.00    -0.052 A 
ATOM     21  C   UNL A   1      35.324 -37.952 -26.991  0.00  0.00    -0.061 A 
ATOM     22  C   UNL A   1      34.295 -37.108 -27.395  0.00  0.00    -0.060 A 
ATOM     23  C   UNL A   1      34.439 -36.282 -28.514  0.00  0.00    -0.038 A 
ATOM     24  C   UNL A   1      35.654 -36.326 -29.221  0.00  0.00    +0.050 A 
ATOM     25  C   UNL A   1      39.139 -37.568 -29.751  0.00  0.00    -0.025 C 
ATOM     26  C   UNL A   1      40.101 -36.758 -30.639  0.00  0.00    -0.049 C 
ATOM     27  C   UNL A   1      39.451 -36.361 -31.975  0.00  0.00    -0.047 C 
ATOM     28  C   UNL A   1      38.202 -35.484 -31.777  0.00  0.00    -0.012 C 
ENDBRANCH  15  16
ENDBRANCH   5  15
TORSDOF 4
ENDMDL
MODEL 2
REMARK VINA RESULT:    -7.785      1.429      4.513
REMARK INTER + INTRA:         -11.597
REMARK INTER:                  -9.695
REMARK INTRA:                  -1.902
REMARK UNBOUND:                -1.992
REMARK  Name = cpd343.pdb
REMARK  5 active torsions:
REMARK  status: ('A' for Active; 'I' for Inactive)
REMARK    1  A    between atoms: C_1  and  C_2
REMARK    2  A    between atoms: C_5  and  C_6
REMARK    3  A    between atoms: C_6  and  N_7
REMARK    4  A    between atoms: C_11  and  C_12
REMARK    5  A    between atoms: C_12  and  N_13
REMARK                            x       y       z     vdW  Elec       q    Type
REMARK                         _______ _______ _______ _____ _____    ______ ____
ROOT
ATOM      1  N   UNL A   1      34.225 -39.419 -31.547  0.00  0.00    -0.349 N 
ATOM      2  C   UNL A   1      34.419 -40.719 -31.230  0.00  0.00    +0.005 A 
ATOM      3  C   UNL A   1      35.270 -41.073 -30.190  0.00  0.00    -0.045 A 
ATOM      4  C   UNL A   1      35.917 -40.076 -29.469  0.00  0.00    -0.054 A 
ATOM      5  C   UNL A   1      35.699 -38.733 -29.784  0.00  0.00    -0.012 A 
ATOM      6  C   UNL A   1      34.844 -38.437 -30.852  0.00  0.00    +0.010 A 
ENDROOT
BRANCH   1   7
ATOM      7  C   UNL A   1      33.315 -39.065 -32.666  0.00  0.00    +0.048 C 
BRANCH   7  12
ATOM      8  C   UNL A   1      31.400 -33.592 -32.085  0.00  0.00    -0.040 C 
ATOM      9  C   UNL A   1      31.873 -35.007 -32.255  0.00  0.00    -0.050 A 
ATOM     10  C   UNL A   1      31.200 -36.062 -31.631  0.00  0.00    -0.059 A 
ATOM     11  C   UNL A   1      31.656 -37.375 -31.770  0.00  0.00    -0.057 A 
ATOM     12  C   UNL A   1      32.807 -37.653 -32.523  0.00  0.00    -0.028 A 
ATOM     13  C   UNL A   1      33.482 -36.592 -33.145  0.00  0.00    -0.057 A 
ATOM     14  C   UNL A   1      33.021 -35.281 -33.005  0.00  0.00    -0.059 A 
ENDBRANCH   7  12
ENDBRANCH   1   7
BRANCH   5  15
ATOM     15  C   UNL A   1      36.430 -37.652 -29.011  0.00  0.00    +0.050 C 
BRANCH  15  16
ATOM     16  N   UNL A   1      36.677 -36.465 -29.824  0.00  0.00    -0.339 N 
ATOM     17  C   UNL A   1      37.811 -36.233 -30.562  0.00  0.00    +0.023 A 
ATOM     18  C   UNL A   1      37.710 -34.973 -31.117  0.00  0.00    -0.019 A 
ATOM     19  C   UNL A   1      36.476 -34.410 -30.695  0.00  0.00    +0.003 A 
ATOM     20  C   UNL A   1      35.842 -33.173 -30.921  0.00  0.00    -0.052 A 
ATOM     21  C   UNL A   1      34.586 -32.926 -30.358  0.00  0.00    -0.061 A 
ATOM     22  C   UNL A   1      33.957 -33.894 -29.582  0.00  0.00    -0.060 A 
ATOM     23  C   UNL A   1      34.565 -35.130 -29.342  0.00  0.00    -0.038 A 
ATOM     24  C   UNL A   1      35.831 -35.370 -29.905  0.00  0.00    +0.050 A 
ATOM     25  C   UNL A   1      38.770 -34.389 -31.994  0.00  0.00    -0.025 C 
ATOM     26  C   UNL A   1      39.721 -35.480 -32.517  0.00  0.00    -0.049 C 
ATOM     27  C   UNL A   1      40.140 -36.456 -31.405  0.00  0.00    -0.047 C 
ATOM     28  C   UNL A   1      38.935 -37.190 -30.790  0.00  0.00    -0.012 C 
ENDBRANCH  15  16
ENDBRANCH   5  15
TORSDOF 4
ENDMDL
MODEL 3
REMARK VINA RESULT:    -7.728      0.877      3.371
REMARK INTER + INTRA:         -11.527
REMARK INTER:                  -9.684
REMARK INTRA:                  -1.843
REMARK UNBOUND:                -1.992
REMARK  Name = cpd343.pdb
REMARK  5 active torsions:
REMARK  status: ('A' for Active; 'I' for Inactive)
REMARK    1  A    between atoms: C_1  and  C_2
REMARK    2  A    between atoms: C_5  and  C_6
REMARK    3  A    between atoms: C_6  and  N_7
REMARK    4  A    between atoms: C_11  and  C_12
REMARK    5  A    between atoms: C_12  and  N_13
REMARK                            x       y       z     vdW  Elec       q    Type
REMARK                         _______ _______ _______ _____ _____    ______ ____
ROOT
ATOM      1  N   UNL A   1      33.168 -37.918 -32.629  0.00  0.00    -0.349 N 
ATOM      2  C   UNL A   1      32.496 -37.240 -33.587  0.00  0.00    +0.005 A 
ATOM      3  C   UNL A   1      32.503 -35.851 -33.606  0.00  0.00    -0.045 A 
ATOM      4  C   UNL A   1      33.214 -35.159 -32.633  0.00  0.00    -0.054 A 
ATOM      5  C   UNL A   1      33.924 -35.860 -31.655  0.00  0.00    -0.012 A 
ATOM      6  C   UNL A   1      33.868 -37.258 -31.677  0.00  0.00    +0.010 A 
ENDROOT
BRANCH   1   7
ATOM      7  C   UNL A   1      33.142 -39.403 -32.626  0.00  0.00    +0.048 C 
BRANCH   7  12
ATOM      8  C   UNL A   1      36.455 -41.589 -28.359  0.00  0.00    -0.040 C 
ATOM      9  C   UNL A   1      35.607 -40.999 -29.448  0.00  0.00    -0.050 A 
ATOM     10  C   UNL A   1      34.290 -40.604 -29.190  0.00  0.00    -0.059 A 
ATOM     11  C   UNL A   1      33.495 -40.077 -30.211  0.00  0.00    -0.057 A 
ATOM     12  C   UNL A   1      33.998 -39.955 -31.515  0.00  0.00    -0.028 A 
ATOM     13  C   UNL A   1      35.318 -40.356 -31.771  0.00  0.00    -0.057 A 
ATOM     14  C   UNL A   1      36.111 -40.879 -30.747  0.00  0.00    -0.059 A 
ENDBRANCH   7  12
ENDBRANCH   1   7
BRANCH   5  15
ATOM     15  C   UNL A   1      34.674 -35.098 -30.581  0.00  0.00    +0.050 C 
BRANCH  15  16
ATOM     16  N   UNL A   1      35.213 -35.983 -29.553  0.00  0.00    -0.339 N 
ATOM     17  C   UNL A   1      34.580 -36.309 -28.379  0.00  0.00    +0.023 A 
ATOM     18  C   UNL A   1      35.438 -37.093 -27.633  0.00  0.00    -0.019 A 
ATOM     19  C   UNL A   1      36.642 -37.242 -28.372  0.00  0.00    +0.003 A 
ATOM     20  C   UNL A   1      37.860 -37.905 -28.126  0.00  0.00    -0.052 A 
ATOM     21  C   UNL A   1      38.873 -37.874 -29.089  0.00  0.00    -0.061 A 
ATOM     22  C   UNL A   1      38.684 -37.197 -30.290  0.00  0.00    -0.060 A 
ATOM     23  C   UNL A   1      37.485 -36.530 -30.559  0.00  0.00    -0.038 A 
ATOM     24  C   UNL A   1      36.473 -36.560 -29.583  0.00  0.00    +0.050 A 
ATOM     25  C   UNL A   1      35.073 -37.639 -26.290  0.00  0.00    -0.025 C 
ATOM     26  C   UNL A   1      33.552 -37.580 -26.062  0.00  0.00    -0.049 C 
ATOM     27  C   UNL A   1      32.960 -36.228 -26.493  0.00  0.00    -0.047 C 
ATOM     28  C   UNL A   1      33.184 -35.945 -27.989  0.00  0.00    -0.012 C 
ENDBRANCH  15  16
ENDBRANCH   5  15
TORSDOF 4
ENDMDL
MODEL 4
REMARK VINA RESULT:    -7.713      2.607      4.011
REMARK INTER + INTRA:         -11.509
REMARK INTER:                 -10.282
REMARK INTRA:                  -1.227
REMARK UNBOUND:                -1.992
REMARK  Name = cpd343.pdb
REMARK  5 active torsions:
REMARK  status: ('A' for Active; 'I' for Inactive)
REMARK    1  A    between atoms: C_1  and  C_2
REMARK    2  A    between atoms: C_5  and  C_6
REMARK    3  A    between atoms: C_6  and  N_7
REMARK    4  A    between atoms: C_11  and  C_12
REMARK    5  A    between atoms: C_12  and  N_13
REMARK                            x       y       z     vdW  Elec       q    Type
REMARK                         _______ _______ _______ _____ _____    ______ ____
ROOT
ATOM      1  N   UNL A   1      32.604 -33.595 -30.074  0.00  0.00    -0.349 N 
ATOM      2  C   UNL A   1      33.155 -32.389 -29.809  0.00  0.00    +0.005 A 
ATOM      3  C   UNL A   1      34.463 -32.112 -30.185  0.00  0.00    -0.045 A 
ATOM      4  C   UNL A   1      35.204 -33.086 -30.845  0.00  0.00    -0.054 A 
ATOM      5  C   UNL A   1      34.627 -34.325 -31.135  0.00  0.00    -0.012 A 
ATOM      6  C   UNL A   1      33.311 -34.553 -30.719  0.00  0.00    +0.010 A 
ENDROOT
BRANCH   1   7
ATOM      7  C   UNL A   1      31.205 -33.869 -29.658  0.00  0.00    +0.048 C 
BRANCH   7  12
ATOM      8  C   UNL A   1      30.975 -37.865 -25.421  0.00  0.00    -0.040 C 
ATOM      9  C   UNL A   1      31.061 -36.844 -26.520  0.00  0.00    -0.050 A 
ATOM     10  C   UNL A   1      31.759 -35.648 -26.328  0.00  0.00    -0.059 A 
ATOM     11  C   UNL A   1      31.817 -34.690 -27.342  0.00  0.00    -0.057 A 
ATOM     12  C   UNL A   1      31.160 -34.905 -28.564  0.00  0.00    -0.028 A 
ATOM     13  C   UNL A   1      30.458 -36.105 -28.751  0.00  0.00    -0.057 A 
ATOM     14  C   UNL A   1      30.405 -37.061 -27.736  0.00  0.00    -0.059 A 
ENDBRANCH   7  12
ENDBRANCH   1   7
BRANCH   5  15
ATOM     15  C   UNL A   1      35.450 -35.392 -31.830  0.00  0.00    +0.050 C 
BRANCH  15  16
ATOM     16  N   UNL A   1      36.503 -35.922 -30.969  0.00  0.00    -0.339 N 
ATOM     17  C   UNL A   1      37.833 -36.002 -31.303  0.00  0.00    +0.023 A 
ATOM     18  C   UNL A   1      38.496 -36.637 -30.273  0.00  0.00    -0.019 A 
ATOM     19  C   UNL A   1      37.537 -36.968 -29.278  0.00  0.00    +0.003 A 
ATOM     20  C   UNL A   1      37.611 -37.622 -28.033  0.00  0.00    -0.052 A 
ATOM     21  C   UNL A   1      36.454 -37.781 -27.264  0.00  0.00    -0.061 A 
ATOM     22  C   UNL A   1      35.233 -37.294 -27.718  0.00  0.00    -0.060 A 
ATOM     23  C   UNL A   1      35.131 -36.640 -28.950  0.00  0.00    -0.038 A 
ATOM     24  C   UNL A   1      36.298 -36.490 -29.721  0.00  0.00    +0.050 A 
ATOM     25  C   UNL A   1      39.969 -36.891 -30.294  0.00  0.00    -0.025 C 
ATOM     26  C   UNL A   1      40.668 -36.014 -31.349  0.00  0.00    -0.049 C 
ATOM     27  C   UNL A   1      39.903 -36.003 -32.683  0.00  0.00    -0.047 C 
ATOM     28  C   UNL A   1      38.476 -35.445 -32.531  0.00  0.00    -0.012 C 
ENDBRANCH  15  16
ENDBRANCH   5  15
TORSDOF 4
ENDMDL
MODEL 5
REMARK VINA RESULT:    -7.531     17.192     20.852
REMARK INTER + INTRA:         -11.284
REMARK INTER:                  -9.552
REMARK INTRA:                  -1.731
REMARK UNBOUND:                -1.992
REMARK  Name = cpd343.pdb
REMARK  5 active torsions:
REMARK  status: ('A' for Active; 'I' for Inactive)
REMARK    1  A    between atoms: C_1  and  C_2
REMARK    2  A    between atoms: C_5  and  C_6
REMARK    3  A    between atoms: C_6  and  N_7
REMARK    4  A    between atoms: C_11  and  C_12
REMARK    5  A    between atoms: C_12  and  N_13
REMARK                            x       y       z     vdW  Elec       q    Type
REMARK                         _______ _______ _______ _____ _____    ______ ____
ROOT
ATOM      1  N   UNL A   1      46.167 -19.610 -36.944  0.00  0.00    -0.349 N 
ATOM      2  C   UNL A   1      46.530 -20.056 -35.720  0.00  0.00    +0.005 A 
ATOM      3  C   UNL A   1      45.588 -20.190 -34.709  0.00  0.00    -0.045 A 
ATOM      4  C   UNL A   1      44.260 -19.867 -34.966  0.00  0.00    -0.054 A 
ATOM      5  C   UNL A   1      43.883 -19.425 -36.236  0.00  0.00    -0.012 A 
ATOM      6  C   UNL A   1      44.878 -19.295 -37.211  0.00  0.00    +0.010 A 
ENDROOT
BRANCH   1   7
ATOM      7  C   UNL A   1      47.193 -19.470 -38.009  0.00  0.00    +0.048 C 
BRANCH   7  12
ATOM      8  C   UNL A   1      45.646 -22.350 -42.833  0.00  0.00    -0.040 C 
ATOM      9  C   UNL A   1      46.017 -21.599 -41.586  0.00  0.00    -0.050 A 
ATOM     10  C   UNL A   1      46.251 -20.221 -41.630  0.00  0.00    -0.059 A 
ATOM     11  C   UNL A   1      46.621 -19.528 -40.475  0.00  0.00    -0.057 A 
ATOM     12  C   UNL A   1      46.780 -20.207 -39.257  0.00  0.00    -0.028 A 
ATOM     13  C   UNL A   1      46.547 -21.590 -39.218  0.00  0.00    -0.057 A 
ATOM     14  C   UNL A   1      46.176 -22.278 -40.375  0.00  0.00    -0.059 A 
ENDBRANCH   7  12
ENDBRANCH   1   7
BRANCH   5  15
ATOM     15  C   UNL A   1      42.438 -19.048 -36.501  0.00  0.00    +0.050 C 
BRANCH  15  16
ATOM     16  N   UNL A   1      41.641 -20.192 -36.930  0.00  0.00    -0.339 N 
ATOM     17  C   UNL A   1      40.803 -20.921 -36.122  0.00  0.00    +0.023 A 
ATOM     18  C   UNL A   1      40.298 -21.970 -36.863  0.00  0.00    -0.019 A 
ATOM     19  C   UNL A   1      40.854 -21.886 -38.168  0.00  0.00    +0.003 A 
ATOM     20  C   UNL A   1      40.726 -22.668 -39.333  0.00  0.00    -0.052 A 
ATOM     21  C   UNL A   1      41.414 -22.300 -40.492  0.00  0.00    -0.061 A 
ATOM     22  C   UNL A   1      42.219 -21.165 -40.506  0.00  0.00    -0.060 A 
ATOM     23  C   UNL A   1      42.363 -20.372 -39.363  0.00  0.00    -0.038 A 
ATOM     24  C   UNL A   1      41.674 -20.752 -38.198  0.00  0.00    +0.050 A 
ATOM     25  C   UNL A   1      39.340 -22.970 -36.301  0.00  0.00    -0.025 C 
ATOM     26  C   UNL A   1      38.695 -22.452 -35.002  0.00  0.00    -0.049 C 
ATOM     27  C   UNL A   1      39.733 -21.816 -34.062  0.00  0.00    -0.047 C 
ATOM     28  C   UNL A   1      40.440 -20.610 -34.706  0.00  0.00    -0.012 C 
ENDBRANCH  15  16
ENDBRANCH   5  15
TORSDOF 4
ENDMDL
MODEL 6
REMARK VINA RESULT:    -7.492      1.778      5.240
REMARK INTER + INTRA:         -11.237
REMARK INTER:                 -10.366
REMARK INTRA:                  -0.871
REMARK UNBOUND:                -1.992
REMARK  Name = cpd343.pdb
REMARK  5 active torsions:
REMARK  status: ('A' for Active; 'I' for Inactive)
REMARK    1  A    between atoms: C_1  and  C_2
REMARK    2  A    between atoms: C_5  and  C_6
REMARK    3  A    between atoms: C_6  and  N_7
REMARK    4  A    between atoms: C_11  and  C_12
REMARK    5  A    between atoms: C_12  and  N_13
REMARK                            x       y       z     vdW  Elec       q    Type
REMARK                         _______ _______ _______ _____ _____    ______ ____
ROOT
ATOM      1  N   UNL A   1      36.401 -34.905 -31.251  0.00  0.00    -0.349 N 
ATOM      2  C   UNL A   1      36.163 -33.614 -30.928  0.00  0.00    +0.005 A 
ATOM      3  C   UNL A   1      34.951 -33.239 -30.362  0.00  0.00    -0.045 A 
ATOM      4  C   UNL A   1      33.981 -34.207 -30.123  0.00  0.00    -0.054 A 
ATOM      5  C   UNL A   1      34.236 -35.543 -30.439  0.00  0.00    -0.012 A 
ATOM      6  C   UNL A   1      35.469 -35.859 -31.021  0.00  0.00    +0.010 A 
ENDROOT
BRANCH   1   7
ATOM      7  C   UNL A   1      37.703 -35.281 -31.860  0.00  0.00    +0.048 C 
BRANCH   7  12
ATOM      8  C   UNL A   1      40.758 -38.664 -28.229  0.00  0.00    -0.040 C 
ATOM      9  C   UNL A   1      39.973 -37.812 -29.185  0.00  0.00    -0.050 A 
ATOM     10  C   UNL A   1      40.625 -37.047 -30.157  0.00  0.00    -0.059 A 
ATOM     11  C   UNL A   1      39.896 -36.237 -31.030  0.00  0.00    -0.057 A 
ATOM     12  C   UNL A   1      38.497 -36.164 -30.933  0.00  0.00    -0.028 A 
ATOM     13  C   UNL A   1      37.846 -36.931 -29.954  0.00  0.00    -0.057 A 
ATOM     14  C   UNL A   1      38.580 -37.741 -29.086  0.00  0.00    -0.059 A 
ENDBRANCH   7  12
ENDBRANCH   1   7
BRANCH   5  15
ATOM     15  C   UNL A   1      33.164 -36.589 -30.201  0.00  0.00    +0.050 C 
BRANCH  15  16
ATOM     16  N   UNL A   1      33.601 -37.622 -29.268  0.00  0.00    -0.339 N 
ATOM     17  C   UNL A   1      33.382 -37.609 -27.912  0.00  0.00    +0.023 A 
ATOM     18  C   UNL A   1      34.017 -38.704 -27.365  0.00  0.00    -0.019 A 
ATOM     19  C   UNL A   1      34.658 -39.407 -28.420  0.00  0.00    +0.003 A 
ATOM     20  C   UNL A   1      35.454 -40.569 -28.475  0.00  0.00    -0.052 A 
ATOM     21  C   UNL A   1      35.933 -41.021 -29.708  0.00  0.00    -0.061 A 
ATOM     22  C   UNL A   1      35.625 -40.337 -30.879  0.00  0.00    -0.060 A 
ATOM     23  C   UNL A   1      34.838 -39.182 -30.853  0.00  0.00    -0.038 A 
ATOM     24  C   UNL A   1      34.365 -38.727 -29.609  0.00  0.00    +0.050 A 
ATOM     25  C   UNL A   1      33.984 -39.011 -25.902  0.00  0.00    -0.025 C 
ATOM     26  C   UNL A   1      32.853 -38.239 -25.199  0.00  0.00    -0.049 C 
ATOM     27  C   UNL A   1      32.802 -36.768 -25.644  0.00  0.00    -0.047 C 
ATOM     28  C   UNL A   1      32.548 -36.626 -27.156  0.00  0.00    -0.012 C 
ENDBRANCH  15  16
ENDBRANCH   5  15
TORSDOF 4
ENDMDL
MODEL 7
REMARK VINA RESULT:    -7.421      2.502      6.334
REMARK INTER + INTRA:         -11.148
REMARK INTER:                 -10.091
REMARK INTRA:                  -1.057
REMARK UNBOUND:                -1.992
REMARK  Name = cpd343.pdb
REMARK  5 active torsions:
REMARK  status: ('A' for Active; 'I' for Inactive)
REMARK    1  A    between atoms: C_1  and  C_2
REMARK    2  A    between atoms: C_5  and  C_6
REMARK    3  A    between atoms: C_6  and  N_7
REMARK    4  A    between atoms: C_11  and  C_12
REMARK    5  A    between atoms: C_12  and  N_13
REMARK                            x       y       z     vdW  Elec       q    Type
REMARK                         _______ _______ _______ _____ _____    ______ ____
ROOT
ATOM      1  N   UNL A   1      36.408 -37.631 -29.973  0.00  0.00    -0.349 N 
ATOM      2  C   UNL A   1      36.401 -38.960 -30.225  0.00  0.00    +0.005 A 
ATOM      3  C   UNL A   1      35.404 -39.524 -31.011  0.00  0.00    -0.045 A 
ATOM      4  C   UNL A   1      34.414 -38.709 -31.547  0.00  0.00    -0.054 A 
ATOM      5  C   UNL A   1      34.434 -37.333 -31.302  0.00  0.00    -0.012 A 
ATOM      6  C   UNL A   1      35.453 -36.823 -30.490  0.00  0.00    +0.010 A 
ENDROOT
BRANCH   1   7
ATOM      7  C   UNL A   1      37.480 -37.051 -29.125  0.00  0.00    +0.048 C 
BRANCH   7  12
ATOM      8  C   UNL A   1      42.720 -37.627 -31.610  0.00  0.00    -0.040 C 
ATOM      9  C   UNL A   1      41.360 -37.501 -30.986  0.00  0.00    -0.050 A 
ATOM     10  C   UNL A   1      40.334 -36.820 -31.648  0.00  0.00    -0.059 A 
ATOM     11  C   UNL A   1      39.076 -36.682 -31.056  0.00  0.00    -0.057 A 
ATOM     12  C   UNL A   1      38.829 -37.208 -29.778  0.00  0.00    -0.028 A 
ATOM     13  C   UNL A   1      39.863 -37.888 -29.115  0.00  0.00    -0.057 A 
ATOM     14  C   UNL A   1      41.117 -38.025 -29.712  0.00  0.00    -0.059 A 
ENDBRANCH   7  12
ENDBRANCH   1   7
BRANCH   5  15
ATOM     15  C   UNL A   1      33.335 -36.454 -31.866  0.00  0.00    +0.050 C 
BRANCH  15  16
ATOM     16  N   UNL A   1      32.899 -35.438 -30.914  0.00  0.00    -0.339 N 
ATOM     17  C   UNL A   1      31.975 -35.632 -29.917  0.00  0.00    +0.023 A 
ATOM     18  C   UNL A   1      31.764 -34.422 -29.287  0.00  0.00    -0.019 A 
ATOM     19  C   UNL A   1      32.579 -33.451 -29.928  0.00  0.00    +0.003 A 
ATOM     20  C   UNL A   1      32.777 -32.069 -29.741  0.00  0.00    -0.052 A 
ATOM     21  C   UNL A   1      33.687 -31.384 -30.552  0.00  0.00    -0.061 A 
ATOM     22  C   UNL A   1      34.402 -32.059 -31.537  0.00  0.00    -0.060 A 
ATOM     23  C   UNL A   1      34.224 -33.430 -31.743  0.00  0.00    -0.038 A 
ATOM     24  C   UNL A   1      33.302 -34.112 -30.929  0.00  0.00    +0.050 A 
ATOM     25  C   UNL A   1      30.818 -34.261 -28.141  0.00  0.00    -0.025 C 
ATOM     26  C   UNL A   1      30.468 -35.623 -27.515  0.00  0.00    -0.049 C 
ATOM     27  C   UNL A   1      30.154 -36.682 -28.586  0.00  0.00    -0.047 C 
ATOM     28  C   UNL A   1      31.348 -36.930 -29.526  0.00  0.00    -0.012 C 
ENDBRANCH  15  16
ENDBRANCH   5  15
TORSDOF 4
ENDMDL
MODEL 8
REMARK VINA RESULT:    -7.376      2.766      5.595
REMARK INTER + INTRA:         -11.092
REMARK INTER:                 -10.617
REMARK INTRA:                  -0.475
REMARK UNBOUND:                -1.992
REMARK  Name = cpd343.pdb
REMARK  5 active torsions:
REMARK  status: ('A' for Active; 'I' for Inactive)
REMARK    1  A    between atoms: C_1  and  C_2
REMARK    2  A    between atoms: C_5  and  C_6
REMARK    3  A    between atoms: C_6  and  N_7
REMARK    4  A    between atoms: C_11  and  C_12
REMARK    5  A    between atoms: C_12  and  N_13
REMARK                            x       y       z     vdW  Elec       q    Type
REMARK                         _______ _______ _______ _____ _____    ______ ____
ROOT
ATOM      1  N   UNL A   1      33.293 -34.406 -30.535  0.00  0.00    -0.349 N 
ATOM      2  C   UNL A   1      33.743 -33.253 -29.991  0.00  0.00    +0.005 A 
ATOM      3  C   UNL A   1      35.075 -32.881 -30.125  0.00  0.00    -0.045 A 
ATOM      4  C   UNL A   1      35.945 -33.703 -30.832  0.00  0.00    -0.054 A 
ATOM      5  C   UNL A   1      35.474 -34.884 -31.410  0.00  0.00    -0.012 A 
ATOM      6  C   UNL A   1      34.127 -35.215 -31.230  0.00  0.00    +0.010 A 
ENDROOT
BRANCH   1   7
ATOM      7  C   UNL A   1      31.866 -34.785 -30.374  0.00  0.00    +0.048 C 
BRANCH   7  12
ATOM      8  C   UNL A   1      28.446 -30.096 -30.901  0.00  0.00    -0.040 C 
ATOM      9  C   UNL A   1      29.303 -31.322 -30.767  0.00  0.00    -0.050 A 
ATOM     10  C   UNL A   1      29.426 -31.974 -29.536  0.00  0.00    -0.059 A 
ATOM     11  C   UNL A   1      30.243 -33.099 -29.407  0.00  0.00    -0.057 A 
ATOM     12  C   UNL A   1      30.969 -33.581 -30.508  0.00  0.00    -0.028 A 
ATOM     13  C   UNL A   1      30.847 -32.922 -31.740  0.00  0.00    -0.057 A 
ATOM     14  C   UNL A   1      30.026 -31.799 -31.865  0.00  0.00    -0.059 A 
ENDBRANCH   7  12
ENDBRANCH   1   7
BRANCH   5  15
ATOM     15  C   UNL A   1      36.435 -35.789 -32.156  0.00  0.00    +0.050 C 
BRANCH  15  16
ATOM     16  N   UNL A   1      37.536 -36.240 -31.310  0.00  0.00    -0.339 N 
ATOM     17  C   UNL A   1      38.863 -36.216 -31.660  0.00  0.00    +0.023 A 
ATOM     18  C   UNL A   1      39.585 -36.802 -30.639  0.00  0.00    -0.019 A 
ATOM     19  C   UNL A   1      38.666 -37.209 -29.635  0.00  0.00    +0.003 A 
ATOM     20  C   UNL A   1      38.805 -37.860 -28.394  0.00  0.00    -0.052 A 
ATOM     21  C   UNL A   1      37.673 -38.109 -27.613  0.00  0.00    -0.061 A 
ATOM     22  C   UNL A   1      36.413 -37.715 -28.050  0.00  0.00    -0.060 A 
ATOM     23  C   UNL A   1      36.247 -37.068 -29.278  0.00  0.00    -0.038 A 
ATOM     24  C   UNL A   1      37.389 -36.826 -30.062  0.00  0.00    +0.050 A 
ATOM     25  C   UNL A   1      41.073 -36.942 -30.679  0.00  0.00    -0.025 C 
ATOM     26  C   UNL A   1      41.690 -36.011 -31.738  0.00  0.00    -0.049 C 
ATOM     27  C   UNL A   1      40.911 -36.055 -33.063  0.00  0.00    -0.047 C 
ATOM     28  C   UNL A   1      39.448 -35.608 -32.893  0.00  0.00    -0.012 C 
ENDBRANCH  15  16
ENDBRANCH   5  15
TORSDOF 4
ENDMDL
MODEL 9
REMARK VINA RESULT:    -7.333      2.173      5.475
REMARK INTER + INTRA:         -11.040
REMARK INTER:                 -10.062
REMARK INTRA:                  -0.978
REMARK UNBOUND:                -1.992
REMARK  Name = cpd343.pdb
REMARK  5 active torsions:
REMARK  status: ('A' for Active; 'I' for Inactive)
REMARK    1  A    between atoms: C_1  and  C_2
REMARK    2  A    between atoms: C_5  and  C_6
REMARK    3  A    between atoms: C_6  and  N_7
REMARK    4  A    between atoms: C_11  and  C_12
REMARK    5  A    between atoms: C_12  and  N_13
REMARK                            x       y       z     vdW  Elec       q    Type
REMARK                         _______ _______ _______ _____ _____    ______ ____
ROOT
ATOM      1  N   UNL A   1      36.417 -38.660 -29.167  0.00  0.00    -0.349 N 
ATOM      2  C   UNL A   1      36.408 -39.983 -29.448  0.00  0.00    +0.005 A 
ATOM      3  C   UNL A   1      35.421 -40.526 -30.260  0.00  0.00    -0.045 A 
ATOM      4  C   UNL A   1      34.441 -39.695 -30.792  0.00  0.00    -0.054 A 
ATOM      5  C   UNL A   1      34.463 -38.326 -30.517  0.00  0.00    -0.012 A 
ATOM      6  C   UNL A   1      35.472 -37.837 -29.680  0.00  0.00    +0.010 A 
ENDROOT
BRANCH   1   7
ATOM      7  C   UNL A   1      37.479 -38.102 -28.292  0.00  0.00    +0.048 C 
BRANCH   7  12
ATOM      8  C   UNL A   1      42.500 -37.440 -31.176  0.00  0.00    -0.040 C 
ATOM      9  C   UNL A   1      41.198 -37.631 -30.452  0.00  0.00    -0.050 A 
ATOM     10  C   UNL A   1      40.026 -37.034 -30.925  0.00  0.00    -0.059 A 
ATOM     11  C   UNL A   1      38.821 -37.193 -30.237  0.00  0.00    -0.057 A 
ATOM     12  C   UNL A   1      38.772 -37.939 -29.049  0.00  0.00    -0.028 A 
ATOM     13  C   UNL A   1      39.951 -38.533 -28.575  0.00  0.00    -0.057 A 
ATOM     14  C   UNL A   1      41.153 -38.374 -29.268  0.00  0.00    -0.059 A 
ENDBRANCH   7  12
ENDBRANCH   1   7
BRANCH   5  15
ATOM     15  C   UNL A   1      33.375 -37.431 -31.078  0.00  0.00    +0.050 C 
BRANCH  15  16
ATOM     16  N   UNL A   1      33.121 -36.273 -30.226  0.00  0.00    -0.339 N 
ATOM     17  C   UNL A   1      33.643 -35.018 -30.420  0.00  0.00    +0.023 A 
ATOM     18  C   UNL A   1      33.247 -34.221 -29.364  0.00  0.00    -0.019 A 
ATOM     19  C   UNL A   1      32.465 -35.020 -28.488  0.00  0.00    +0.003 A 
ATOM     20  C   UNL A   1      31.812 -34.770 -27.264  0.00  0.00    -0.052 A 
ATOM     21  C   UNL A   1      31.091 -35.794 -26.644  0.00  0.00    -0.061 A 
ATOM     22  C   UNL A   1      31.007 -37.054 -27.227  0.00  0.00    -0.060 A 
ATOM     23  C   UNL A   1      31.645 -37.328 -28.441  0.00  0.00    -0.038 A 
ATOM     24  C   UNL A   1      32.376 -36.296 -29.057  0.00  0.00    +0.050 A 
ATOM     25  C   UNL A   1      33.631 -32.781 -29.250  0.00  0.00    -0.025 C 
ATOM     26  C   UNL A   1      34.123 -32.229 -30.600  0.00  0.00    -0.049 C 
ATOM     27  C   UNL A   1      35.096 -33.197 -31.294  0.00  0.00    -0.047 C 
ATOM     28  C   UNL A   1      34.446 -34.560 -31.594  0.00  0.00    -0.012 C 
ENDBRANCH  15  16
ENDBRANCH   5  15
TORSDOF 4
ENDMDL
MODEL 10
REMARK VINA RESULT:    -7.169     16.313     19.402
REMARK INTER + INTRA:         -10.837
REMARK INTER:                  -9.878
REMARK INTRA:                  -0.959
REMARK UNBOUND:                -1.992
REMARK  Name = cpd343.pdb
REMARK  5 active torsions:
REMARK  status: ('A' for Active; 'I' for Inactive)
REMARK    1  A    between atoms: C_1  and  C_2
REMARK    2  A    between atoms: C_5  and  C_6
REMARK    3  A    between atoms: C_6  and  N_7
REMARK    4  A    between atoms: C_11  and  C_12
REMARK    5  A    between atoms: C_12  and  N_13
REMARK                            x       y       z     vdW  Elec       q    Type
REMARK                         _______ _______ _______ _____ _____    ______ ____
ROOT
ATOM      1  N   UNL A   1      42.140 -20.889 -39.228  0.00  0.00    -0.349 N 
ATOM      2  C   UNL A   1      41.017 -21.186 -39.920  0.00  0.00    +0.005 A 
ATOM      3  C   UNL A   1      40.024 -21.973 -39.351  0.00  0.00    -0.045 A 
ATOM      4  C   UNL A   1      40.190 -22.451 -38.056  0.00  0.00    -0.054 A 
ATOM      5  C   UNL A   1      41.342 -22.128 -37.335  0.00  0.00    -0.012 A 
ATOM      6  C   UNL A   1      42.315 -21.344 -37.965  0.00  0.00    +0.010 A 
ENDROOT
BRANCH   1   7
ATOM      7  C   UNL A   1      43.190 -20.049 -39.858  0.00  0.00    +0.048 C 
BRANCH   7  12
ATOM      8  C   UNL A   1      47.213 -23.397 -42.423  0.00  0.00    -0.040 C 
ATOM      9  C   UNL A   1      46.194 -22.512 -41.763  0.00  0.00    -0.050 A 
ATOM     10  C   UNL A   1      46.266 -22.244 -40.393  0.00  0.00    -0.059 A 
ATOM     11  C   UNL A   1      45.305 -21.440 -39.776  0.00  0.00    -0.057 A 
ATOM     12  C   UNL A   1      44.241 -20.905 -40.519  0.00  0.00    -0.028 A 
ATOM     13  C   UNL A   1      44.171 -21.179 -41.893  0.00  0.00    -0.057 A 
ATOM     14  C   UNL A   1      45.136 -21.981 -42.506  0.00  0.00    -0.059 A 
ENDBRANCH   7  12
ENDBRANCH   1   7
BRANCH   5  15
ATOM     15  C   UNL A   1      41.529 -22.676 -35.934  0.00  0.00    +0.050 C 
BRANCH  15  16
ATOM     16  N   UNL A   1      41.143 -21.711 -34.910  0.00  0.00    -0.339 N 
ATOM     17  C   UNL A   1      41.972 -20.762 -34.364  0.00  0.00    +0.023 A 
ATOM     18  C   UNL A   1      41.273 -20.102 -33.372  0.00  0.00    -0.019 A 
ATOM     19  C   UNL A   1      39.975 -20.676 -33.301  0.00  0.00    +0.003 A 
ATOM     20  C   UNL A   1      38.847 -20.435 -32.492  0.00  0.00    -0.052 A 
ATOM     21  C   UNL A   1      37.683 -21.183 -32.689  0.00  0.00    -0.061 A 
ATOM     22  C   UNL A   1      37.628 -22.157 -33.680  0.00  0.00    -0.060 A 
ATOM     23  C   UNL A   1      38.733 -22.416 -34.497  0.00  0.00    -0.038 A 
ATOM     24  C   UNL A   1      39.904 -21.665 -34.289  0.00  0.00    +0.050 A 
ATOM     25  C   UNL A   1      41.867 -18.993 -32.565  0.00  0.00    -0.025 C 
ATOM     26  C   UNL A   1      43.129 -18.428 -33.243  0.00  0.00    -0.049 C 
ATOM     27  C   UNL A   1      44.054 -19.546 -33.753  0.00  0.00    -0.047 C 
ATOM     28  C   UNL A   1      43.364 -20.440 -34.799  0.00  0.00    -0.012 C 
ENDBRANCH  15  16
ENDBRANCH   5  15
TORSDOF 4
ENDMDL
MODEL 11
REMARK VINA RESULT:    -7.136      1.608      6.169
REMARK INTER + INTRA:         -10.797
REMARK INTER:                  -9.577
REMARK INTRA:                  -1.220
REMARK UNBOUND:                -1.992
REMARK  Name = cpd343.pdb
REMARK  5 active torsions:
REMARK  status: ('A' for Active; 'I' for Inactive)
REMARK    1  A    between atoms: C_1  and  C_2
REMARK    2  A    between atoms: C_5  and  C_6
REMARK    3  A    between atoms: C_6  and  N_7
REMARK    4  A    between atoms: C_11  and  C_12
REMARK    5  A    between atoms: C_12  and  N_13
REMARK                            x       y       z     vdW  Elec       q    Type
REMARK                         _______ _______ _______ _____ _____    ______ ____
ROOT
ATOM      1  N   UNL A   1      36.159 -38.850 -28.906  0.00  0.00    -0.349 N 
ATOM      2  C   UNL A   1      36.394 -40.020 -29.542  0.00  0.00    +0.005 A 
ATOM      3  C   UNL A   1      35.422 -40.590 -30.355  0.00  0.00    -0.045 A 
ATOM      4  C   UNL A   1      34.203 -39.942 -30.517  0.00  0.00    -0.054 A 
ATOM      5  C   UNL A   1      33.969 -38.723 -29.876  0.00  0.00    -0.012 A 
ATOM      6  C   UNL A   1      34.979 -38.205 -29.057  0.00  0.00    +0.010 A 
ENDROOT
BRANCH   1   7
ATOM      7  C   UNL A   1      37.212 -38.263 -28.038  0.00  0.00    +0.048 C 
BRANCH   7  12
ATOM      8  C   UNL A   1      41.923 -36.906 -31.189  0.00  0.00    -0.040 C 
ATOM      9  C   UNL A   1      40.716 -37.235 -30.358  0.00  0.00    -0.050 A 
ATOM     10  C   UNL A   1      40.832 -38.049 -29.227  0.00  0.00    -0.059 A 
ATOM     11  C   UNL A   1      39.705 -38.375 -28.469  0.00  0.00    -0.057 A 
ATOM     12  C   UNL A   1      38.436 -37.904 -28.842  0.00  0.00    -0.028 A 
ATOM     13  C   UNL A   1      38.323 -37.091 -29.979  0.00  0.00    -0.057 A 
ATOM     14  C   UNL A   1      39.453 -36.766 -30.733  0.00  0.00    -0.059 A 
ENDBRANCH   7  12
ENDBRANCH   1   7
BRANCH   5  15
ATOM     15  C   UNL A   1      32.627 -38.036 -30.035  0.00  0.00    +0.050 C 
BRANCH  15  16
ATOM     16  N   UNL A   1      32.619 -37.096 -31.152  0.00  0.00    -0.339 N 
ATOM     17  C   UNL A   1      32.276 -37.405 -32.445  0.00  0.00    +0.023 A 
ATOM     18  C   UNL A   1      32.477 -36.282 -33.222  0.00  0.00    -0.019 A 
ATOM     19  C   UNL A   1      32.971 -35.252 -32.377  0.00  0.00    +0.003 A 
ATOM     20  C   UNL A   1      33.364 -33.917 -32.596  0.00  0.00    -0.052 A 
ATOM     21  C   UNL A   1      33.803 -33.140 -31.520  0.00  0.00    -0.061 A 
ATOM     22  C   UNL A   1      33.848 -33.672 -30.236  0.00  0.00    -0.060 A 
ATOM     23  C   UNL A   1      33.463 -34.994 -29.991  0.00  0.00    -0.038 A 
ATOM     24  C   UNL A   1      33.030 -35.774 -31.078  0.00  0.00    +0.050 A 
ATOM     25  C   UNL A   1      32.198 -36.254 -34.690  0.00  0.00    -0.025 C 
ATOM     26  C   UNL A   1      31.299 -37.433 -35.106  0.00  0.00    -0.049 C 
ATOM     27  C   UNL A   1      31.757 -38.755 -34.469  0.00  0.00    -0.047 C 
ATOM     28  C   UNL A   1      31.718 -38.703 -32.931  0.00  0.00    -0.012 C 
ENDBRANCH  15  16
ENDBRANCH   5  15
TORSDOF 4
ENDMDL
MODEL 12
REMARK VINA RESULT:    -7.105      2.907      6.509
REMARK INTER + INTRA:         -10.759
REMARK INTER:                  -9.695
REMARK INTRA:                  -1.064
REMARK UNBOUND:                -1.992
REMARK  Name = cpd343.pdb
REMARK  5 active torsions:
REMARK  status: ('A' for Active; 'I' for Inactive)
REMARK    1  A    between atoms: C_1  and  C_2
REMARK    2  A    between atoms: C_5  and  C_6
REMARK    3  A    between atoms: C_6  and  N_7
REMARK    4  A    between atoms: C_11  and  C_12
REMARK    5  A    between atoms: C_12  and  N_13
REMARK                            x       y       z     vdW  Elec       q    Type
REMARK                         _______ _______ _______ _____ _____    ______ ____
ROOT
ATOM      1  N   UNL A   1      35.194 -38.259 -28.191  0.00  0.00    -0.349 N 
ATOM      2  C   UNL A   1      35.266 -37.959 -26.874  0.00  0.00    +0.005 A 
ATOM      3  C   UNL A   1      34.330 -37.115 -26.289  0.00  0.00    -0.045 A 
ATOM      4  C   UNL A   1      33.309 -36.584 -27.070  0.00  0.00    -0.054 A 
ATOM      5  C   UNL A   1      33.225 -36.911 -28.425  0.00  0.00    -0.012 A 
ATOM      6  C   UNL A   1      34.204 -37.753 -28.963  0.00  0.00    +0.010 A 
ENDROOT
BRANCH   1   7
ATOM      7  C   UNL A   1      36.209 -39.160 -28.794  0.00  0.00    +0.048 C 
BRANCH   7  12
ATOM      8  C   UNL A   1      40.742 -36.149 -30.880  0.00  0.00    -0.040 C 
ATOM      9  C   UNL A   1      39.572 -36.906 -30.320  0.00  0.00    -0.050 A 
ATOM     10  C   UNL A   1      39.747 -37.809 -29.267  0.00  0.00    -0.059 A 
ATOM     11  C   UNL A   1      38.662 -38.531 -28.764  0.00  0.00    -0.057 A 
ATOM     12  C   UNL A   1      37.383 -38.374 -29.320  0.00  0.00    -0.028 A 
ATOM     13  C   UNL A   1      37.212 -37.470 -30.379  0.00  0.00    -0.057 A 
ATOM     14  C   UNL A   1      38.300 -36.749 -30.878  0.00  0.00    -0.059 A 
ENDBRANCH   7  12
ENDBRANCH   1   7
BRANCH   5  15
ATOM     15  C   UNL A   1      32.125 -36.306 -29.276  0.00  0.00    +0.050 C 
BRANCH  15  16
ATOM     16  N   UNL A   1      32.282 -34.863 -29.433  0.00  0.00    -0.339 N 
ATOM     17  C   UNL A   1      31.340 -33.923 -29.093  0.00  0.00    +0.023 A 
ATOM     18  C   UNL A   1      31.817 -32.684 -29.471  0.00  0.00    -0.019 A 
ATOM     19  C   UNL A   1      33.089 -32.873 -30.073  0.00  0.00    +0.003 A 
ATOM     20  C   UNL A   1      34.032 -32.001 -30.653  0.00  0.00    -0.052 A 
ATOM     21  C   UNL A   1      35.230 -32.514 -31.158  0.00  0.00    -0.061 A 
ATOM     22  C   UNL A   1      35.500 -33.877 -31.088  0.00  0.00    -0.060 A 
ATOM     23  C   UNL A   1      34.581 -34.764 -30.519  0.00  0.00    -0.038 A 
ATOM     24  C   UNL A   1      33.375 -34.243 -30.018  0.00  0.00    +0.050 A 
ATOM     25  C   UNL A   1      31.050 -31.420 -29.246  0.00  0.00    -0.025 C 
ATOM     26  C   UNL A   1      29.932 -31.627 -28.209  0.00  0.00    -0.049 C 
ATOM     27  C   UNL A   1      29.150 -32.927 -28.460  0.00  0.00    -0.047 C 
ATOM     28  C   UNL A   1      30.052 -34.172 -28.379  0.00  0.00    -0.012 C 
ENDBRANCH  15  16
ENDBRANCH   5  15
TORSDOF 4
ENDMDL
MODEL 13
REMARK VINA RESULT:    -7.003     16.456     19.776
REMARK INTER + INTRA:         -10.633
REMARK INTER:                  -9.605
REMARK INTRA:                  -1.028
REMARK UNBOUND:                -1.992
REMARK  Name = cpd343.pdb
REMARK  5 active torsions:
REMARK  status: ('A' for Active; 'I' for Inactive)
REMARK    1  A    between atoms: C_1  and  C_2
REMARK    2  A    between atoms: C_5  and  C_6
REMARK    3  A    between atoms: C_6  and  N_7
REMARK    4  A    between atoms: C_11  and  C_12
REMARK    5  A    between atoms: C_12  and  N_13
REMARK                            x       y       z     vdW  Elec       q    Type
REMARK                         _______ _______ _______ _____ _____    ______ ____
ROOT
ATOM      1  N   UNL A   1      42.851 -20.909 -39.278  0.00  0.00    -0.349 N 
ATOM      2  C   UNL A   1      41.948 -21.704 -39.896  0.00  0.00    +0.005 A 
ATOM      3  C   UNL A   1      40.997 -22.399 -39.161  0.00  0.00    -0.045 A 
ATOM      4  C   UNL A   1      40.973 -22.265 -37.777  0.00  0.00    -0.054 A 
ATOM      5  C   UNL A   1      41.893 -21.428 -37.141  0.00  0.00    -0.012 A 
ATOM      6  C   UNL A   1      42.838 -20.765 -37.932  0.00  0.00    +0.010 A 
ENDROOT
BRANCH   1   7
ATOM      7  C   UNL A   1      43.862 -20.181 -40.085  0.00  0.00    +0.048 C 
BRANCH   7  12
ATOM      8  C   UNL A   1      47.733 -23.838 -42.452  0.00  0.00    -0.040 C 
ATOM      9  C   UNL A   1      46.716 -22.917 -41.840  0.00  0.00    -0.050 A 
ATOM     10  C   UNL A   1      45.708 -22.349 -42.625  0.00  0.00    -0.059 A 
ATOM     11  C   UNL A   1      44.778 -21.473 -42.060  0.00  0.00    -0.057 A 
ATOM     12  C   UNL A   1      44.852 -21.136 -40.700  0.00  0.00    -0.028 A 
ATOM     13  C   UNL A   1      45.867 -21.706 -39.916  0.00  0.00    -0.057 A 
ATOM     14  C   UNL A   1      46.794 -22.582 -40.485  0.00  0.00    -0.059 A 
ENDBRANCH   7  12
ENDBRANCH   1   7
BRANCH   5  15
ATOM     15  C   UNL A   1      41.879 -21.309 -35.629  0.00  0.00    +0.050 C 
BRANCH  15  16
ATOM     16  N   UNL A   1      40.580 -20.876 -35.124  0.00  0.00    -0.339 N 
ATOM     17  C   UNL A   1      39.584 -21.712 -34.683  0.00  0.00    +0.023 A 
ATOM     18  C   UNL A   1      38.483 -20.940 -34.370  0.00  0.00    -0.019 A 
ATOM     19  C   UNL A   1      38.814 -19.584 -34.639  0.00  0.00    +0.003 A 
ATOM     20  C   UNL A   1      38.108 -18.370 -34.531  0.00  0.00    -0.052 A 
ATOM     21  C   UNL A   1      38.740 -17.170 -34.870  0.00  0.00    -0.061 A 
ATOM     22  C   UNL A   1      40.061 -17.166 -35.306  0.00  0.00    -0.060 A 
ATOM     23  C   UNL A   1      40.784 -18.357 -35.422  0.00  0.00    -0.038 A 
ATOM     24  C   UNL A   1      40.140 -19.562 -35.087  0.00  0.00    +0.050 A 
ATOM     25  C   UNL A   1      37.208 -21.522 -33.849  0.00  0.00    -0.025 C 
ATOM     26  C   UNL A   1      37.425 -22.953 -33.327  0.00  0.00    -0.049 C 
ATOM     27  C   UNL A   1      38.277 -23.793 -34.293  0.00  0.00    -0.047 C 
ATOM     28  C   UNL A   1      39.679 -23.193 -34.505  0.00  0.00    -0.012 C 
ENDBRANCH  15  16
ENDBRANCH   5  15
TORSDOF 4
ENDMDL
MODEL 14
REMARK VINA RESULT:    -6.900     19.164     22.498
REMARK INTER + INTRA:         -10.506
REMARK INTER:                  -8.523
REMARK INTRA:                  -1.983
REMARK UNBOUND:                -1.992
REMARK  Name = cpd343.pdb
REMARK  5 active torsions:
REMARK  status: ('A' for Active; 'I' for Inactive)
REMARK    1  A    between atoms: C_1  and  C_2
REMARK    2  A    between atoms: C_5  and  C_6
REMARK    3  A    between atoms: C_6  and  N_7
REMARK    4  A    between atoms: C_11  and  C_12
REMARK    5  A    between atoms: C_12  and  N_13
REMARK                            x       y       z     vdW  Elec       q    Type
REMARK                         _______ _______ _______ _____ _____    ______ ____
ROOT
ATOM      1  N   UNL A   1      42.750 -21.011 -37.756  0.00  0.00    -0.349 N 
ATOM      2  C   UNL A   1      41.412 -21.187 -37.664  0.00  0.00    +0.005 A 
ATOM      3  C   UNL A   1      40.633 -21.295 -38.809  0.00  0.00    -0.045 A 
ATOM      4  C   UNL A   1      41.241 -21.228 -40.057  0.00  0.00    -0.054 A 
ATOM      5  C   UNL A   1      42.626 -21.066 -40.151  0.00  0.00    -0.012 A 
ATOM      6  C   UNL A   1      43.357 -20.948 -38.964  0.00  0.00    +0.010 A 
ENDROOT
BRANCH   1   7
ATOM      7  C   UNL A   1      43.561 -20.893 -36.518  0.00  0.00    +0.048 C 
BRANCH   7  12
ATOM      8  C   UNL A   1      47.275 -16.422 -36.938  0.00  0.00    -0.040 C 
ATOM      9  C   UNL A   1      46.329 -17.580 -36.803  0.00  0.00    -0.050 A 
ATOM     10  C   UNL A   1      46.762 -18.886 -37.052  0.00  0.00    -0.059 A 
ATOM     11  C   UNL A   1      45.875 -19.960 -36.950  0.00  0.00    -0.057 A 
ATOM     12  C   UNL A   1      44.529 -19.742 -36.615  0.00  0.00    -0.028 A 
ATOM     13  C   UNL A   1      44.097 -18.430 -36.370  0.00  0.00    -0.057 A 
ATOM     14  C   UNL A   1      44.989 -17.360 -36.470  0.00  0.00    -0.059 A 
ENDBRANCH   7  12
ENDBRANCH   1   7
BRANCH   5  15
ATOM     15  C   UNL A   1      43.279 -20.966 -41.515  0.00  0.00    +0.050 C 
BRANCH  15  16
ATOM     16  N   UNL A   1      44.649 -20.468 -41.435  0.00  0.00    -0.339 N 
ATOM     17  C   UNL A   1      45.778 -21.228 -41.615  0.00  0.00    +0.023 A 
ATOM     18  C   UNL A   1      46.876 -20.426 -41.374  0.00  0.00    -0.019 A 
ATOM     19  C   UNL A   1      46.401 -19.133 -41.024  0.00  0.00    +0.003 A 
ATOM     20  C   UNL A   1      47.035 -17.927 -40.665  0.00  0.00    -0.052 A 
ATOM     21  C   UNL A   1      46.262 -16.796 -40.386  0.00  0.00    -0.061 A 
ATOM     22  C   UNL A   1      44.874 -16.852 -40.466  0.00  0.00    -0.060 A 
ATOM     23  C   UNL A   1      44.220 -18.036 -40.819  0.00  0.00    -0.038 A 
ATOM     24  C   UNL A   1      45.003 -19.173 -41.092  0.00  0.00    +0.050 A 
ATOM     25  C   UNL A   1      48.281 -20.924 -41.484  0.00  0.00    -0.025 C 
ATOM     26  C   UNL A   1      48.342 -22.242 -42.278  0.00  0.00    -0.049 C 
ATOM     27  C   UNL A   1      47.243 -23.225 -41.841  0.00  0.00    -0.047 C 
ATOM     28  C   UNL A   1      45.831 -22.654 -42.057  0.00  0.00    -0.012 C 
ENDBRANCH  15  16
ENDBRANCH   5  15
TORSDOF 4
ENDMDL
MODEL 15
REMARK VINA RESULT:    -6.739     16.976     20.425
REMARK INTER + INTRA:         -10.308
REMARK INTER:                  -9.287
REMARK INTRA:                  -1.021
REMARK UNBOUND:                -1.992
REMARK  Name = cpd343.pdb
REMARK  5 active torsions:
REMARK  status: ('A' for Active; 'I' for Inactive)
REMARK    1  A    between atoms: C_1  and  C_2
REMARK    2  A    between atoms: C_5  and  C_6
REMARK    3  A    between atoms: C_6  and  N_7
REMARK    4  A    between atoms: C_11  and  C_12
REMARK    5  A    between atoms: C_12  and  N_13
REMARK                            x       y       z     vdW  Elec       q    Type
REMARK                         _______ _______ _______ _____ _____    ______ ____
ROOT
ATOM      1  N   UNL A   1      44.081 -20.152 -39.345  0.00  0.00    -0.349 N 
ATOM      2  C   UNL A   1      44.637 -19.768 -38.174  0.00  0.00    +0.005 A 
ATOM      3  C   UNL A   1      44.026 -20.079 -36.966  0.00  0.00    -0.045 A 
ATOM      4  C   UNL A   1      42.836 -20.799 -36.969  0.00  0.00    -0.054 A 
ATOM      5  C   UNL A   1      42.274 -21.213 -38.179  0.00  0.00    -0.012 A 
ATOM      6  C   UNL A   1      42.926 -20.857 -39.365  0.00  0.00    +0.010 A 
ENDROOT
BRANCH   1   7
ATOM      7  C   UNL A   1      44.751 -19.803 -40.624  0.00  0.00    +0.048 C 
BRANCH   7  12
ATOM      8  C   UNL A   1      48.090 -24.213 -42.458  0.00  0.00    -0.040 C 
ATOM      9  C   UNL A   1      47.248 -23.058 -41.999  0.00  0.00    -0.050 A 
ATOM     10  C   UNL A   1      47.605 -22.324 -40.863  0.00  0.00    -0.059 A 
ATOM     11  C   UNL A   1      46.808 -21.266 -40.422  0.00  0.00    -0.057 A 
ATOM     12  C   UNL A   1      45.625 -20.934 -41.102  0.00  0.00    -0.028 A 
ATOM     13  C   UNL A   1      45.268 -21.675 -42.238  0.00  0.00    -0.057 A 
ATOM     14  C   UNL A   1      46.070 -22.730 -42.677  0.00  0.00    -0.059 A 
ENDBRANCH   7  12
ENDBRANCH   1   7
BRANCH   5  15
ATOM     15  C   UNL A   1      40.962 -21.974 -38.175  0.00  0.00    +0.050 C 
BRANCH  15  16
ATOM     16  N   UNL A   1      39.942 -21.308 -37.371  0.00  0.00    -0.339 N 
ATOM     17  C   UNL A   1      39.470 -21.757 -36.162  0.00  0.00    +0.023 A 
ATOM     18  C   UNL A   1      38.457 -20.911 -35.758  0.00  0.00    -0.019 A 
ATOM     19  C   UNL A   1      38.295 -19.917 -36.760  0.00  0.00    +0.003 A 
ATOM     20  C   UNL A   1      37.428 -18.817 -36.910  0.00  0.00    -0.052 A 
ATOM     21  C   UNL A   1      37.537 -17.998 -38.037  0.00  0.00    -0.061 A 
ATOM     22  C   UNL A   1      38.498 -18.258 -39.009  0.00  0.00    -0.060 A 
ATOM     23  C   UNL A   1      39.371 -19.344 -38.885  0.00  0.00    -0.038 A 
ATOM     24  C   UNL A   1      39.252 -20.168 -37.751  0.00  0.00    +0.050 A 
ATOM     25  C   UNL A   1      37.714 -21.095 -34.474  0.00  0.00    -0.025 C 
ATOM     26  C   UNL A   1      38.479 -22.031 -33.520  0.00  0.00    -0.049 C 
ATOM     27  C   UNL A   1      39.014 -23.277 -34.247  0.00  0.00    -0.047 C 
ATOM     28  C   UNL A   1      39.994 -22.915 -35.377  0.00  0.00    -0.012 C 
ENDBRANCH  15  16
ENDBRANCH   5  15
TORSDOF 4
ENDMDL
MODEL 16
REMARK VINA RESULT:    -6.685     16.807     19.858
REMARK INTER + INTRA:         -10.240
REMARK INTER:                  -8.989
REMARK INTRA:                  -1.251
REMARK UNBOUND:                -1.992
REMARK  Name = cpd343.pdb
REMARK  5 active torsions:
REMARK  status: ('A' for Active; 'I' for Inactive)
REMARK    1  A    between atoms: C_1  and  C_2
REMARK    2  A    between atoms: C_5  and  C_6
REMARK    3  A    between atoms: C_6  and  N_7
REMARK    4  A    between atoms: C_11  and  C_12
REMARK    5  A    between atoms: C_12  and  N_13
REMARK                            x       y       z     vdW  Elec       q    Type
REMARK                         _______ _______ _______ _____ _____    ______ ____
ROOT
ATOM      1  N   UNL A   1      39.990 -20.888 -37.615  0.00  0.00    -0.349 N 
ATOM      2  C   UNL A   1      39.656 -21.985 -38.332  0.00  0.00    +0.005 A 
ATOM      3  C   UNL A   1      40.372 -22.328 -39.472  0.00  0.00    -0.045 A 
ATOM      4  C   UNL A   1      41.443 -21.537 -39.870  0.00  0.00    -0.054 A 
ATOM      5  C   UNL A   1      41.799 -20.415 -39.117  0.00  0.00    -0.012 A 
ATOM      6  C   UNL A   1      41.033 -20.109 -37.987  0.00  0.00    +0.010 A 
ENDROOT
BRANCH   1   7
ATOM      7  C   UNL A   1      39.207 -20.538 -36.402  0.00  0.00    +0.048 C 
BRANCH   7  12
ATOM      8  C   UNL A   1      41.289 -23.225 -31.668  0.00  0.00    -0.040 C 
ATOM      9  C   UNL A   1      40.775 -22.542 -32.903  0.00  0.00    -0.050 A 
ATOM     10  C   UNL A   1      41.273 -21.291 -33.283  0.00  0.00    -0.059 A 
ATOM     11  C   UNL A   1      40.777 -20.646 -34.418  0.00  0.00    -0.057 A 
ATOM     12  C   UNL A   1      39.759 -21.234 -35.185  0.00  0.00    -0.028 A 
ATOM     13  C   UNL A   1      39.260 -22.487 -34.798  0.00  0.00    -0.057 A 
ATOM     14  C   UNL A   1      39.760 -23.130 -33.664  0.00  0.00    -0.059 A 
ENDBRANCH   7  12
ENDBRANCH   1   7
BRANCH   5  15
ATOM     15  C   UNL A   1      42.951 -19.540 -39.572  0.00  0.00    +0.050 C 
BRANCH  15  16
ATOM     16  N   UNL A   1      44.231 -19.994 -39.037  0.00  0.00    -0.339 N 
ATOM     17  C   UNL A   1      44.791 -19.567 -37.858  0.00  0.00    +0.023 A 
ATOM     18  C   UNL A   1      46.036 -20.152 -37.739  0.00  0.00    -0.019 A 
ATOM     19  C   UNL A   1      46.249 -20.957 -38.891  0.00  0.00    +0.003 A 
ATOM     20  C   UNL A   1      47.315 -21.766 -39.330  0.00  0.00    -0.052 A 
ATOM     21  C   UNL A   1      47.206 -22.460 -40.538  0.00  0.00    -0.061 A 
ATOM     22  C   UNL A   1      46.050 -22.362 -41.306  0.00  0.00    -0.060 A 
ATOM     23  C   UNL A   1      44.977 -21.565 -40.894  0.00  0.00    -0.038 A 
ATOM     24  C   UNL A   1      45.096 -20.864 -39.681  0.00  0.00    +0.050 A 
ATOM     25  C   UNL A   1      46.932 -19.916 -36.566  0.00  0.00    -0.025 C 
ATOM     26  C   UNL A   1      46.149 -19.322 -35.381  0.00  0.00    -0.049 C 
ATOM     27  C   UNL A   1      45.205 -18.193 -35.826  0.00  0.00    -0.047 C 
ATOM     28  C   UNL A   1      44.154 -18.679 -36.840  0.00  0.00    -0.012 C 
ENDBRANCH  15  16
ENDBRANCH   5  15
TORSDOF 4
ENDMDL
MODEL 17
REMARK VINA RESULT:    -6.681     17.362     19.952
REMARK INTER + INTRA:         -10.236
REMARK INTER:                  -9.184
REMARK INTRA:                  -1.052
REMARK UNBOUND:                -1.992
REMARK  Name = cpd343.pdb
REMARK  5 active torsions:
REMARK  status: ('A' for Active; 'I' for Inactive)
REMARK    1  A    between atoms: C_1  and  C_2
REMARK    2  A    between atoms: C_5  and  C_6
REMARK    3  A    between atoms: C_6  and  N_7
REMARK    4  A    between atoms: C_11  and  C_12
REMARK    5  A    between atoms: C_12  and  N_13
REMARK                            x       y       z     vdW  Elec       q    Type
REMARK                         _______ _______ _______ _____ _____    ______ ____
ROOT
ATOM      1  N   UNL A   1      42.180 -20.597 -38.892  0.00  0.00    -0.349 N 
ATOM      2  C   UNL A   1      41.134 -20.910 -39.691  0.00  0.00    +0.005 A 
ATOM      3  C   UNL A   1      40.049 -21.618 -39.189  0.00  0.00    -0.045 A 
ATOM      4  C   UNL A   1      40.043 -21.999 -37.852  0.00  0.00    -0.054 A 
ATOM      5  C   UNL A   1      41.115 -21.658 -37.024  0.00  0.00    -0.012 A 
ATOM      6  C   UNL A   1      42.186 -20.958 -37.587  0.00  0.00    +0.010 A 
ENDROOT
BRANCH   1   7
ATOM      7  C   UNL A   1      43.331 -19.844 -39.452  0.00  0.00    +0.048 C 
BRANCH   7  12
ATOM      8  C   UNL A   1      47.096 -23.385 -42.145  0.00  0.00    -0.040 C 
ATOM      9  C   UNL A   1      46.107 -22.494 -41.448  0.00  0.00    -0.050 A 
ATOM     10  C   UNL A   1      45.033 -21.938 -42.150  0.00  0.00    -0.059 A 
ATOM     11  C   UNL A   1      44.128 -21.090 -41.507  0.00  0.00    -0.057 A 
ATOM     12  C   UNL A   1      44.293 -20.769 -40.150  0.00  0.00    -0.028 A 
ATOM     13  C   UNL A   1      45.374 -21.327 -39.451  0.00  0.00    -0.057 A 
ATOM     14  C   UNL A   1      46.275 -22.176 -40.097  0.00  0.00    -0.059 A 
ENDBRANCH   7  12
ENDBRANCH   1   7
BRANCH   5  15
ATOM     15  C   UNL A   1      41.113 -22.101 -35.573  0.00  0.00    +0.050 C 
BRANCH  15  16
ATOM     16  N   UNL A   1      40.836 -20.997 -34.661  0.00  0.00    -0.339 N 
ATOM     17  C   UNL A   1      39.585 -20.585 -34.272  0.00  0.00    +0.023 A 
ATOM     18  C   UNL A   1      39.730 -19.464 -33.480  0.00  0.00    -0.019 A 
ATOM     19  C   UNL A   1      41.118 -19.173 -33.389  0.00  0.00    +0.003 A 
ATOM     20  C   UNL A   1      41.861 -18.164 -32.745  0.00  0.00    -0.052 A 
ATOM     21  C   UNL A   1      43.256 -18.165 -32.840  0.00  0.00    -0.061 A 
ATOM     22  C   UNL A   1      43.914 -19.157 -33.560  0.00  0.00    -0.060 A 
ATOM     23  C   UNL A   1      43.200 -20.170 -34.208  0.00  0.00    -0.038 A 
ATOM     24  C   UNL A   1      41.797 -20.159 -34.115  0.00  0.00    +0.050 A 
ATOM     25  C   UNL A   1      38.567 -18.748 -32.872  0.00  0.00    -0.025 C 
ATOM     26  C   UNL A   1      37.305 -19.628 -32.885  0.00  0.00    -0.049 C 
ATOM     27  C   UNL A   1      37.111 -20.331 -34.239  0.00  0.00    -0.047 C 
ATOM     28  C   UNL A   1      38.289 -21.258 -34.588  0.00  0.00    -0.012 C 
ENDBRANCH  15  16
ENDBRANCH   5  15
TORSDOF 4
ENDMDL
MODEL 18
REMARK VINA RESULT:    -6.656     16.482     19.640
REMARK INTER + INTRA:         -10.205
REMARK INTER:                  -9.318
REMARK INTRA:                  -0.888
REMARK UNBOUND:                -1.992
REMARK  Name = cpd343.pdb
REMARK  5 active torsions:
REMARK  status: ('A' for Active; 'I' for Inactive)
REMARK    1  A    between atoms: C_1  and  C_2
REMARK    2  A    between atoms: C_5  and  C_6
REMARK    3  A    between atoms: C_6  and  N_7
REMARK    4  A    between atoms: C_11  and  C_12
REMARK    5  A    between atoms: C_12  and  N_13
REMARK                            x       y       z     vdW  Elec       q    Type
REMARK                         _______ _______ _______ _____ _____    ______ ____
ROOT
ATOM      1  N   UNL A   1      42.389 -20.341 -38.829  0.00  0.00    -0.349 N 
ATOM      2  C   UNL A   1      41.340 -20.931 -39.447  0.00  0.00    +0.005 A 
ATOM      3  C   UNL A   1      40.393 -21.635 -38.713  0.00  0.00    -0.045 A 
ATOM      4  C   UNL A   1      40.527 -21.722 -37.332  0.00  0.00    -0.054 A 
ATOM      5  C   UNL A   1      41.600 -21.096 -36.694  0.00  0.00    -0.012 A 
ATOM      6  C   UNL A   1      42.531 -20.414 -37.485  0.00  0.00    +0.010 A 
ENDROOT
BRANCH   1   7
ATOM      7  C   UNL A   1      43.391 -19.599 -39.635  0.00  0.00    +0.048 C 
BRANCH   7  12
ATOM      8  C   UNL A   1      46.881 -23.235 -42.561  0.00  0.00    -0.040 C 
ATOM      9  C   UNL A   1      45.960 -22.318 -41.808  0.00  0.00    -0.050 A 
ATOM     10  C   UNL A   1      45.021 -21.536 -42.489  0.00  0.00    -0.059 A 
ATOM     11  C   UNL A   1      44.183 -20.665 -41.791  0.00  0.00    -0.057 A 
ATOM     12  C   UNL A   1      44.282 -20.547 -40.395  0.00  0.00    -0.028 A 
ATOM     13  C   UNL A   1      45.227 -21.330 -39.716  0.00  0.00    -0.057 A 
ATOM     14  C   UNL A   1      46.062 -22.202 -40.419  0.00  0.00    -0.059 A 
ENDBRANCH   7  12
ENDBRANCH   1   7
BRANCH   5  15
ATOM     15  C   UNL A   1      41.754 -21.219 -35.190  0.00  0.00    +0.050 C 
BRANCH  15  16
ATOM     16  N   UNL A   1      40.547 -20.812 -34.478  0.00  0.00    -0.339 N 
ATOM     17  C   UNL A   1      40.300 -19.550 -33.997  0.00  0.00    +0.023 A 
ATOM     18  C   UNL A   1      39.102 -19.580 -33.310  0.00  0.00    -0.019 A 
ATOM     19  C   UNL A   1      38.605 -20.910 -33.364  0.00  0.00    +0.003 A 
ATOM     20  C   UNL A   1      37.458 -21.543 -32.845  0.00  0.00    -0.052 A 
ATOM     21  C   UNL A   1      37.244 -22.901 -33.095  0.00  0.00    -0.061 A 
ATOM     22  C   UNL A   1      38.152 -23.631 -33.856  0.00  0.00    -0.060 A 
ATOM     23  C   UNL A   1      39.299 -23.027 -34.382  0.00  0.00    -0.038 A 
ATOM     24  C   UNL A   1      39.512 -21.662 -34.121  0.00  0.00    +0.050 A 
ATOM     25  C   UNL A   1      38.515 -18.372 -32.654  0.00  0.00    -0.025 C 
ATOM     26  C   UNL A   1      39.162 -17.081 -33.189  0.00  0.00    -0.049 C 
ATOM     27  C   UNL A   1      40.693 -17.201 -33.276  0.00  0.00    -0.047 C 
ATOM     28  C   UNL A   1      41.135 -18.332 -34.223  0.00  0.00    -0.012 C 
ENDBRANCH  15  16
ENDBRANCH   5  15
TORSDOF 4
ENDMDL
MODEL 19
REMARK VINA RESULT:    -6.622     17.202     20.648
REMARK INTER + INTRA:         -10.163
REMARK INTER:                  -8.686
REMARK INTRA:                  -1.477
REMARK UNBOUND:                -1.992
REMARK  Name = cpd343.pdb
REMARK  5 active torsions:
REMARK  status: ('A' for Active; 'I' for Inactive)
REMARK    1  A    between atoms: C_1  and  C_2
REMARK    2  A    between atoms: C_5  and  C_6
REMARK    3  A    between atoms: C_6  and  N_7
REMARK    4  A    between atoms: C_11  and  C_12
REMARK    5  A    between atoms: C_12  and  N_13
REMARK                            x       y       z     vdW  Elec       q    Type
REMARK                         _______ _______ _______ _____ _____    ______ ____
ROOT
ATOM      1  N   UNL A   1      46.150 -19.095 -37.043  0.00  0.00    -0.349 N 
ATOM      2  C   UNL A   1      46.831 -19.517 -35.953  0.00  0.00    +0.005 A 
ATOM      3  C   UNL A   1      46.164 -19.785 -34.764  0.00  0.00    -0.045 A 
ATOM      4  C   UNL A   1      44.785 -19.622 -34.704  0.00  0.00    -0.054 A 
ATOM      5  C   UNL A   1      44.081 -19.204 -35.836  0.00  0.00    -0.012 A 
ATOM      6  C   UNL A   1      44.807 -18.935 -37.001  0.00  0.00    +0.010 A 
ENDROOT
BRANCH   1   7
ATOM      7  C   UNL A   1      46.885 -18.810 -38.302  0.00  0.00    +0.048 C 
BRANCH   7  12
ATOM      8  C   UNL A   1      44.901 -22.077 -42.701  0.00  0.00    -0.040 C 
ATOM      9  C   UNL A   1      45.385 -21.232 -41.557  0.00  0.00    -0.050 A 
ATOM     10  C   UNL A   1      45.302 -19.837 -41.618  0.00  0.00    -0.059 A 
ATOM     11  C   UNL A   1      45.775 -19.052 -40.565  0.00  0.00    -0.057 A 
ATOM     12  C   UNL A   1      46.358 -19.650 -39.436  0.00  0.00    -0.028 A 
ATOM     13  C   UNL A   1      46.443 -21.049 -39.381  0.00  0.00    -0.057 A 
ATOM     14  C   UNL A   1      45.967 -21.831 -40.436  0.00  0.00    -0.059 A 
ENDBRANCH   7  12
ENDBRANCH   1   7
BRANCH   5  15
ATOM     15  C   UNL A   1      42.580 -19.001 -35.755  0.00  0.00    +0.050 C 
BRANCH  15  16
ATOM     16  N   UNL A   1      41.843 -20.225 -36.052  0.00  0.00    -0.339 N 
ATOM     17  C   UNL A   1      41.612 -20.724 -37.310  0.00  0.00    +0.023 A 
ATOM     18  C   UNL A   1      40.810 -21.840 -37.188  0.00  0.00    -0.019 A 
ATOM     19  C   UNL A   1      40.531 -22.025 -35.807  0.00  0.00    +0.003 A 
ATOM     20  C   UNL A   1      39.771 -22.966 -35.084  0.00  0.00    -0.052 A 
ATOM     21  C   UNL A   1      39.708 -22.880 -33.691  0.00  0.00    -0.061 A 
ATOM     22  C   UNL A   1      40.393 -21.877 -33.013  0.00  0.00    -0.060 A 
ATOM     23  C   UNL A   1      41.153 -20.930 -33.706  0.00  0.00    -0.038 A 
ATOM     24  C   UNL A   1      41.207 -21.018 -35.109  0.00  0.00    +0.050 A 
ATOM     25  C   UNL A   1      40.361 -22.647 -38.364  0.00  0.00    -0.025 C 
ATOM     26  C   UNL A   1      41.219 -22.342 -39.605  0.00  0.00    -0.049 C 
ATOM     27  C   UNL A   1      41.444 -20.832 -39.790  0.00  0.00    -0.047 C 
ATOM     28  C   UNL A   1      42.176 -20.202 -38.592  0.00  0.00    -0.012 C 
ENDBRANCH  15  16
ENDBRANCH   5  15
TORSDOF 4
ENDMDL
MODEL 20
REMARK VINA RESULT:    -6.130     18.439     21.604
REMARK INTER + INTRA:          -9.556
REMARK INTER:                  -7.757
REMARK INTRA:                  -1.799
REMARK UNBOUND:                -1.992
REMARK  Name = cpd343.pdb
REMARK  5 active torsions:
REMARK  status: ('A' for Active; 'I' for Inactive)
REMARK    1  A    between atoms: C_1  and  C_2
REMARK    2  A    between atoms: C_5  and  C_6
REMARK    3  A    between atoms: C_6  and  N_7
REMARK    4  A    between atoms: C_11  and  C_12
REMARK    5  A    between atoms: C_12  and  N_13
REMARK                            x       y       z     vdW  Elec       q    Type
REMARK                         _______ _______ _______ _____ _____    ______ ____
ROOT
ATOM      1  N   UNL A   1      45.101 -18.451 -35.029  0.00  0.00    -0.349 N 
ATOM      2  C   UNL A   1      46.419 -18.621 -34.778  0.00  0.00    +0.005 A 
ATOM      3  C   UNL A   1      47.347 -18.567 -35.810  0.00  0.00    -0.045 A 
ATOM      4  C   UNL A   1      46.911 -18.330 -37.109  0.00  0.00    -0.054 A 
ATOM      5  C   UNL A   1      45.551 -18.135 -37.364  0.00  0.00    -0.012 A 
ATOM      6  C   UNL A   1      44.661 -18.215 -36.287  0.00  0.00    +0.010 A 
ENDROOT
BRANCH   1   7
ATOM      7  C   UNL A   1      44.126 -18.518 -33.910  0.00  0.00    +0.048 C 
BRANCH   7  12
ATOM      8  C   UNL A   1      39.128 -20.916 -35.707  0.00  0.00    -0.040 C 
ATOM      9  C   UNL A   1      40.408 -20.302 -35.217  0.00  0.00    -0.050 A 
ATOM     10  C   UNL A   1      40.445 -18.965 -34.810  0.00  0.00    -0.059 A 
ATOM     11  C   UNL A   1      41.641 -18.388 -34.377  0.00  0.00    -0.057 A 
ATOM     12  C   UNL A   1      42.828 -19.136 -34.361  0.00  0.00    -0.028 A 
ATOM     13  C   UNL A   1      42.788 -20.476 -34.774  0.00  0.00    -0.057 A 
ATOM     14  C   UNL A   1      41.589 -21.050 -35.204  0.00  0.00    -0.059 A 
ENDBRANCH   7  12
ENDBRANCH   1   7
BRANCH   5  15
ATOM     15  C   UNL A   1      45.080 -17.904 -38.786  0.00  0.00    +0.050 C 
BRANCH  15  16
ATOM     16  N   UNL A   1      44.678 -19.144 -39.441  0.00  0.00    -0.339 N 
ATOM     17  C   UNL A   1      45.476 -19.900 -40.264  0.00  0.00    +0.023 A 
ATOM     18  C   UNL A   1      44.718 -20.943 -40.757  0.00  0.00    -0.019 A 
ATOM     19  C   UNL A   1      43.406 -20.814 -40.226  0.00  0.00    +0.003 A 
ATOM     20  C   UNL A   1      42.218 -21.556 -40.377  0.00  0.00    -0.052 A 
ATOM     21  C   UNL A   1      41.067 -21.166 -39.687  0.00  0.00    -0.061 A 
ATOM     22  C   UNL A   1      41.088 -20.056 -38.848  0.00  0.00    -0.060 A 
ATOM     23  C   UNL A   1      42.254 -19.302 -38.681  0.00  0.00    -0.038 A 
ATOM     24  C   UNL A   1      43.407 -19.696 -39.384  0.00  0.00    +0.050 A 
ATOM     25  C   UNL A   1      45.270 -21.975 -41.687  0.00  0.00    -0.025 C 
ATOM     26  C   UNL A   1      46.809 -21.970 -41.670  0.00  0.00    -0.049 C 
ATOM     27  C   UNL A   1      47.378 -20.543 -41.732  0.00  0.00    -0.047 C 
ATOM     28  C   UNL A   1      46.929 -19.685 -40.536  0.00  0.00    -0.012 C 
ENDBRANCH  15  16
ENDBRANCH   5  15
TORSDOF 4
ENDMDL
