REMARK  Name = cpd343.pdb
REMARK  5 active torsions:
REMARK  status: ('A' for Active; 'I' for Inactive)
REMARK    1  A    between atoms: C_1  and  C_2
REMARK    2  A    between atoms: C_5  and  C_6
REMARK    3  A    between atoms: C_6  and  N_7
REMARK    4  A    between atoms: C_11  and  C_12
REMARK    5  A    between atoms: C_12  and  N_13
REMARK                            x       y       z     vdW  Elec       q    Type
REMARK                         _______ _______ _______ _____ _____    ______ ____
ROOT
ATOM      1  N   UNL A   1      -4.186   2.425  -0.983  0.00  0.00    -0.349 N 
ATOM      2  C   UNL A   1      -3.879   3.721  -1.219  0.00  0.00    +0.005 A 
ATOM      3  C   UNL A   1      -2.820   4.328  -0.556  0.00  0.00    -0.045 A 
ATOM      4  C   UNL A   1      -2.069   3.589   0.351  0.00  0.00    -0.054 A 
ATOM      5  C   UNL A   1      -2.375   2.245   0.579  0.00  0.00    -0.012 A 
ATOM      6  C   UNL A   1      -3.462   1.691  -0.106  0.00  0.00    +0.010 A 
ENDROOT
BRANCH   1   7
ATOM      7  C   UNL A   1      -5.326   1.799  -1.700  0.00  0.00    +0.048 C 
BRANCH   7  12
ATOM      8  C   UNL A   1     -10.384   4.045   0.126  0.00  0.00    -0.040 C 
ATOM      9  C   UNL A   1      -9.093   3.440  -0.346  0.00  0.00    -0.050 A 
ATOM     10  C   UNL A   1      -8.253   2.769   0.548  0.00  0.00    -0.059 A 
ATOM     11  C   UNL A   1      -7.041   2.228   0.113  0.00  0.00    -0.057 A 
ATOM     12  C   UNL A   1      -6.639   2.366  -1.225  0.00  0.00    -0.028 A 
ATOM     13  C   UNL A   1      -7.483   3.043  -2.118  0.00  0.00    -0.057 A 
ATOM     14  C   UNL A   1      -8.695   3.580  -1.679  0.00  0.00    -0.059 A 
ENDBRANCH   7  12
ENDBRANCH   1   7
BRANCH   5  15
ATOM     15  C   UNL A   1      -1.569   1.453   1.590  0.00  0.00    +0.050 C 
BRANCH  15  16
ATOM     16  N   UNL A   1      -1.465   0.043   1.228  0.00  0.00    -0.339 N 
ATOM     17  C   UNL A   1      -0.569  -0.479   0.328  0.00  0.00    +0.023 A 
ATOM     18  C   UNL A   1      -0.837  -1.826   0.189  0.00  0.00    -0.019 A 
ATOM     19  C   UNL A   1      -1.943  -2.137   1.025  0.00  0.00    +0.003 A 
ATOM     20  C   UNL A   1      -2.663  -3.319   1.288  0.00  0.00    -0.052 A 
ATOM     21  C   UNL A   1      -3.721  -3.296   2.201  0.00  0.00    -0.061 A 
ATOM     22  C   UNL A   1      -4.064  -2.117   2.855  0.00  0.00    -0.060 A 
ATOM     23  C   UNL A   1      -3.366  -0.930   2.612  0.00  0.00    -0.038 A 
ATOM     24  C   UNL A   1      -2.307  -0.958   1.687  0.00  0.00    +0.050 A 
ATOM     25  C   UNL A   1      -0.047  -2.719  -0.713  0.00  0.00    -0.025 C 
ATOM     26  C   UNL A   1       1.293  -2.069  -1.102  0.00  0.00    -0.049 C 
ATOM     27  C   UNL A   1       1.121  -0.592  -1.494  0.00  0.00    -0.047 C 
ATOM     28  C   UNL A   1       0.548   0.253  -0.342  0.00  0.00    -0.012 C 
ENDBRANCH  15  16
ENDBRANCH   5  15
TORSDOF 4
