REMARK  Name = cpd36.pdb
REMARK  17 active torsions:
REMARK  status: ('A' for Active; 'I' for Inactive)
REMARK    1  A    between atoms: C_1  and  C_2
REMARK    2  A    between atoms: C_6  and  N_7
REMARK    3  A    between atoms: N_7  and  C_8
REMARK    4  A    between atoms: C_13  and  C_14
REMARK    5  A    between atoms: N_16  and  C_17
REMARK    6  A    between atoms: C_17  and  C_18
REMARK    7  A    between atoms: C_18  and  C_19
REMARK    8  A    between atoms: C_19  and  C_20
REMARK    9  A    between atoms: N_22  and  C_23
REMARK   10  A    between atoms: C_23  and  C_24
REMARK   11  A    between atoms: C_24  and  C_25
REMARK   12  A    between atoms: C_25  and  C_26
REMARK   13  A    between atoms: C_26  and  C_27
REMARK   14  A    between atoms: C_27  and  C_28
REMARK   15  A    between atoms: C_28  and  N_29
REMARK   16  A    between atoms: N_29  and  C_30
REMARK   17  A    between atoms: C_44  and  C_45
REMARK                            x       y       z     vdW  Elec       q    Type
REMARK                         _______ _______ _______ _____ _____    ______ ____
ROOT
ATOM      1  C   UNL A   1       5.287   5.505  -2.644  0.00  0.00    +0.213 C 
ATOM      2  O   UNL A   1       6.296   5.380  -3.329  0.00  0.00    -0.276 OA
ATOM      3  N   UNL A   1       5.146   6.456  -1.660  0.00  0.00    -0.315 N 
ATOM      4  H   UNL A   1       4.311   6.483  -1.139  0.00  0.00    +0.000 HD
ENDROOT
BRANCH   1   5
ATOM      5  C   UNL A   1       4.072   4.624  -2.838  0.00  0.00    +0.025 C 
BRANCH   5   6
ATOM      6  C   UNL A   1       3.750   3.802  -1.591  0.00  0.00    -0.029 C 
BRANCH   6   7
ATOM      7  C   UNL A   1       2.676   2.745  -1.846  0.00  0.00    +0.012 C 
BRANCH   7  10
ATOM      8  C   UNL A   1       0.486   4.016  -1.610  0.00  0.00    +0.246 C 
ATOM      9  O   UNL A   1      -0.355   4.693  -2.193  0.00  0.00    -0.270 OA
ATOM     10  N   UNL A   1       1.425   3.314  -2.324  0.00  0.00    -0.311 N 
ATOM     11  H   UNL A   1       1.227   3.179  -3.279  0.00  0.00    +0.000 HD
BRANCH   8  17
ATOM     12  C   UNL A   1       0.241   2.800   0.589  0.00  0.00    +0.044 A 
ATOM     13  C   UNL A   1       0.318   2.872   1.990  0.00  0.00    -0.040 A 
ATOM     14  C   UNL A   1       0.558   4.085   2.645  0.00  0.00    -0.060 A 
ATOM     15  C   UNL A   1       0.741   5.253   1.910  0.00  0.00    -0.061 A 
ATOM     16  C   UNL A   1       0.712   5.203   0.519  0.00  0.00    -0.048 A 
ATOM     17  C   UNL A   1       0.502   3.979  -0.135  0.00  0.00    +0.058 A 
BRANCH  12  18
ATOM     18  N   UNL A   1       0.017   1.554  -0.053  0.00  0.00    -0.314 N 
ATOM     19  H   UNL A   1       0.469   1.419  -0.917  0.00  0.00    +0.000 HD
BRANCH  18  25
ATOM     20  C   UNL A   1      -1.004  -3.342   0.098  0.00  0.00    -0.039 C 
ATOM     21  C   UNL A   1      -1.318  -1.908   0.430  0.00  0.00    -0.046 A 
ATOM     22  C   UNL A   1      -2.507  -1.622   1.119  0.00  0.00    -0.058 A 
ATOM     23  C   UNL A   1      -2.851  -0.311   1.430  0.00  0.00    -0.060 A 
ATOM     24  C   UNL A   1      -2.006   0.733   1.064  0.00  0.00    -0.040 A 
ATOM     25  C   UNL A   1      -0.788   0.480   0.414  0.00  0.00    +0.035 A 
ATOM     26  C   UNL A   1      -0.441  -0.852   0.085  0.00  0.00    -0.026 A 
ATOM     27  C   UNL A   1       0.837  -1.130  -0.669  0.00  0.00    -0.038 C 
ENDBRANCH  18  25
ENDBRANCH  12  18
ENDBRANCH   8  17
ENDBRANCH   7  10
ENDBRANCH   6   7
ENDBRANCH   5   6
ENDBRANCH   1   5
BRANCH   3  28
ATOM     28  C   UNL A   1       6.188   7.419  -1.366  0.00  0.00    +0.012 C 
BRANCH  28  29
ATOM     29  C   UNL A   1       7.341   6.802  -0.575  0.00  0.00    -0.037 C 
BRANCH  29  30
ATOM     30  C   UNL A   1       8.355   7.871  -0.161  0.00  0.00    -0.052 C 
BRANCH  30  31
ATOM     31  C   UNL A   1       9.562   7.303   0.591  0.00  0.00    -0.052 C 
BRANCH  31  32
ATOM     32  C   UNL A   1      10.526   6.538  -0.319  0.00  0.00    -0.037 C 
BRANCH  32  33
ATOM     33  C   UNL A   1      11.770   6.080   0.446  0.00  0.00    +0.009 C 
BRANCH  33  34
ATOM     34  N   UNL A   1      12.692   5.423  -0.491  0.00  0.00    -0.343 N 
ATOM     35  H   UNL A   1      12.524   5.330  -1.457  0.00  0.00    +0.000 HD
BRANCH  34  36
ATOM     36  C   UNL A   1      13.860   4.936   0.169  0.00  0.00    +0.041 A 
ATOM     37  C   UNL A   1      15.016   5.739   0.274  0.00  0.00    -0.005 A 
ATOM     38  C   UNL A   1      16.101   5.217   0.984  0.00  0.00    +0.047 A 
ATOM     39  N   UNL A   1      16.074   4.015   1.608  0.00  0.00    -0.251 NA
ATOM     40  C   UNL A   1      14.971   3.260   1.517  0.00  0.00    +0.073 A 
ATOM     41  C   UNL A   1      14.967   2.022   2.148  0.00  0.00    -0.036 A 
ATOM     42  C   UNL A   1      13.866   1.165   2.090  0.00  0.00    -0.060 A 
ATOM     43  C   UNL A   1      12.738   1.546   1.379  0.00  0.00    -0.061 A 
ATOM     44  C   UNL A   1      12.719   2.785   0.741  0.00  0.00    -0.051 A 
ATOM     45  C   UNL A   1      13.826   3.666   0.807  0.00  0.00    +0.021 A 
ATOM     46  C   UNL A   1      17.380   5.994   1.165  0.00  0.00    -0.010 C 
ATOM     47  C   UNL A   1      17.565   7.102   0.137  0.00  0.00    -0.047 C 
ATOM     48  C   UNL A   1      16.296   7.936   0.050  0.00  0.00    -0.049 C 
ATOM     49  C   UNL A   1      15.123   7.077  -0.419  0.00  0.00    -0.024 C 
ENDBRANCH  34  36
ENDBRANCH  33  34
ENDBRANCH  32  33
ENDBRANCH  31  32
ENDBRANCH  30  31
ENDBRANCH  29  30
ENDBRANCH  28  29
ENDBRANCH   3  28
TORSDOF 15
