MODEL 1
REMARK VINA RESULT:    -6.522      0.000      0.000
REMARK INTER + INTRA:         -18.079
REMARK INTER:                 -12.241
REMARK INTRA:                  -5.839
REMARK UNBOUND:                -5.839
REMARK  Name = cpd36.pdb
REMARK  17 active torsions:
REMARK  status: ('A' for Active; 'I' for Inactive)
REMARK    1  A    between atoms: C_1  and  C_2
REMARK    2  A    between atoms: C_6  and  N_7
REMARK    3  A    between atoms: N_7  and  C_8
REMARK    4  A    between atoms: C_13  and  C_14
REMARK    5  A    between atoms: N_16  and  C_17
REMARK    6  A    between atoms: C_17  and  C_18
REMARK    7  A    between atoms: C_18  and  C_19
REMARK    8  A    between atoms: C_19  and  C_20
REMARK    9  A    between atoms: N_22  and  C_23
REMARK   10  A    between atoms: C_23  and  C_24
REMARK   11  A    between atoms: C_24  and  C_25
REMARK   12  A    between atoms: C_25  and  C_26
REMARK   13  A    between atoms: C_26  and  C_27
REMARK   14  A    between atoms: C_27  and  C_28
REMARK   15  A    between atoms: C_28  and  N_29
REMARK   16  A    between atoms: N_29  and  C_30
REMARK   17  A    between atoms: C_44  and  C_45
REMARK                            x       y       z     vdW  Elec       q    Type
REMARK                         _______ _______ _______ _____ _____    ______ ____
ROOT
ATOM      1  C   UNL A   1      44.847 -13.577 -37.446  0.00  0.00    +0.213 C 
ATOM      2  O   UNL A   1      44.279 -13.122 -36.458  0.00  0.00    -0.276 OA
ATOM      3  N   UNL A   1      44.185 -14.069 -38.546  0.00  0.00    -0.315 N 
ATOM      4  H   UNL A   1      44.710 -14.435 -39.295  0.00  0.00    +0.000 HD
ENDROOT
BRANCH   1   5
ATOM      5  C   UNL A   1      46.355 -13.616 -37.556  0.00  0.00    +0.025 C 
BRANCH   5   6
ATOM      6  C   UNL A   1      46.877 -15.023 -37.844  0.00  0.00    -0.029 C 
BRANCH   6   7
ATOM      7  C   UNL A   1      46.405 -16.046 -36.811  0.00  0.00    +0.012 C 
BRANCH   7  10
ATOM      8  C   UNL A   1      47.385 -18.333 -36.284  0.00  0.00    +0.246 C 
ATOM      9  O   UNL A   1      48.411 -19.004 -36.238  0.00  0.00    -0.270 OA
ATOM     10  N   UNL A   1      47.456 -16.968 -36.408  0.00  0.00    -0.311 N 
ATOM     11  H   UNL A   1      48.328 -16.562 -36.197  0.00  0.00    +0.000 HD
BRANCH   8  17
ATOM     12  C   UNL A   1      45.468 -19.560 -37.377  0.00  0.00    +0.044 A 
ATOM     13  C   UNL A   1      44.230 -20.203 -37.206  0.00  0.00    -0.040 A 
ATOM     14  C   UNL A   1      43.580 -20.213 -35.968  0.00  0.00    -0.060 A 
ATOM     15  C   UNL A   1      44.161 -19.590 -34.867  0.00  0.00    -0.061 A 
ATOM     16  C   UNL A   1      45.406 -18.982 -34.997  0.00  0.00    -0.048 A 
ATOM     17  C   UNL A   1      46.070 -19.001 -36.234  0.00  0.00    +0.058 A 
BRANCH  12  18
ATOM     18  N   UNL A   1      46.118 -19.581 -38.639  0.00  0.00    -0.314 N 
ATOM     19  H   UNL A   1      47.102 -19.552 -38.625  0.00  0.00    +0.000 HD
BRANCH  18  25
ATOM     20  C   UNL A   1      45.119 -22.097 -42.847  0.00  0.00    -0.039 C 
ATOM     21  C   UNL A   1      45.076 -20.853 -42.000  0.00  0.00    -0.046 A 
ATOM     22  C   UNL A   1      44.519 -19.686 -42.546  0.00  0.00    -0.058 A 
ATOM     23  C   UNL A   1      44.476 -18.507 -41.810  0.00  0.00    -0.060 A 
ATOM     24  C   UNL A   1      44.982 -18.480 -40.513  0.00  0.00    -0.040 A 
ATOM     25  C   UNL A   1      45.505 -19.640 -39.920  0.00  0.00    +0.035 A 
ATOM     26  C   UNL A   1      45.562 -20.838 -40.671  0.00  0.00    -0.026 A 
ATOM     27  C   UNL A   1      46.179 -22.075 -40.064  0.00  0.00    -0.038 C 
ENDBRANCH  18  25
ENDBRANCH  12  18
ENDBRANCH   8  17
ENDBRANCH   7  10
ENDBRANCH   6   7
ENDBRANCH   5   6
ENDBRANCH   1   5
BRANCH   3  28
ATOM     28  C   UNL A   1      42.739 -14.068 -38.639  0.00  0.00    +0.012 C 
BRANCH  28  29
ATOM     29  C   UNL A   1      42.177 -15.453 -38.956  0.00  0.00    -0.037 C 
BRANCH  29  30
ATOM     30  C   UNL A   1      42.976 -16.545 -38.242  0.00  0.00    -0.052 C 
BRANCH  30  31
ATOM     31  C   UNL A   1      42.464 -16.848 -36.831  0.00  0.00    -0.052 C 
BRANCH  31  32
ATOM     32  C   UNL A   1      40.936 -16.828 -36.734  0.00  0.00    -0.037 C 
BRANCH  32  33
ATOM     33  C   UNL A   1      40.414 -18.014 -35.920  0.00  0.00    +0.009 C 
BRANCH  33  34
ATOM     34  N   UNL A   1      39.445 -18.762 -36.732  0.00  0.00    -0.343 N 
ATOM     35  H   UNL A   1      38.679 -18.351 -37.196  0.00  0.00    +0.000 HD
BRANCH  34  36
ATOM     36  C   UNL A   1      39.747 -20.156 -36.768  0.00  0.00    +0.041 A 
ATOM     37  C   UNL A   1      39.210 -21.035 -35.802  0.00  0.00    -0.005 A 
ATOM     38  C   UNL A   1      39.503 -22.395 -35.934  0.00  0.00    +0.047 A 
ATOM     39  N   UNL A   1      40.227 -22.905 -36.959  0.00  0.00    -0.251 NA
ATOM     40  C   UNL A   1      40.725 -22.070 -37.881  0.00  0.00    +0.073 A 
ATOM     41  C   UNL A   1      41.480 -22.608 -38.916  0.00  0.00    -0.036 A 
ATOM     42  C   UNL A   1      42.050 -21.809 -39.910  0.00  0.00    -0.060 A 
ATOM     43  C   UNL A   1      41.871 -20.435 -39.870  0.00  0.00    -0.061 A 
ATOM     44  C   UNL A   1      41.114 -19.874 -38.843  0.00  0.00    -0.051 A 
ATOM     45  C   UNL A   1      40.521 -20.679 -37.840  0.00  0.00    +0.021 A 
ATOM     46  C   UNL A   1      38.973 -23.420 -34.964  0.00  0.00    -0.010 C 
ATOM     47  C   UNL A   1      38.553 -22.826 -33.626  0.00  0.00    -0.047 C 
ATOM     48  C   UNL A   1      37.658 -21.619 -33.861  0.00  0.00    -0.049 C 
ATOM     49  C   UNL A   1      38.417 -20.531 -34.619  0.00  0.00    -0.024 C 
ENDBRANCH  34  36
ENDBRANCH  33  34
ENDBRANCH  32  33
ENDBRANCH  31  32
ENDBRANCH  30  31
ENDBRANCH  29  30
ENDBRANCH  28  29
ENDBRANCH   3  28
TORSDOF 15
ENDMDL
MODEL 2
REMARK VINA RESULT:    -6.459      2.017      4.077
REMARK INTER + INTRA:         -17.962
REMARK INTER:                 -13.328
REMARK INTRA:                  -4.634
REMARK UNBOUND:                -5.839
REMARK  Name = cpd36.pdb
REMARK  17 active torsions:
REMARK  status: ('A' for Active; 'I' for Inactive)
REMARK    1  A    between atoms: C_1  and  C_2
REMARK    2  A    between atoms: C_6  and  N_7
REMARK    3  A    between atoms: N_7  and  C_8
REMARK    4  A    between atoms: C_13  and  C_14
REMARK    5  A    between atoms: N_16  and  C_17
REMARK    6  A    between atoms: C_17  and  C_18
REMARK    7  A    between atoms: C_18  and  C_19
REMARK    8  A    between atoms: C_19  and  C_20
REMARK    9  A    between atoms: N_22  and  C_23
REMARK   10  A    between atoms: C_23  and  C_24
REMARK   11  A    between atoms: C_24  and  C_25
REMARK   12  A    between atoms: C_25  and  C_26
REMARK   13  A    between atoms: C_26  and  C_27
REMARK   14  A    between atoms: C_27  and  C_28
REMARK   15  A    between atoms: C_28  and  N_29
REMARK   16  A    between atoms: N_29  and  C_30
REMARK   17  A    between atoms: C_44  and  C_45
REMARK                            x       y       z     vdW  Elec       q    Type
REMARK                         _______ _______ _______ _____ _____    ______ ____
ROOT
ATOM      1  C   UNL A   1      45.532 -18.148 -33.997  0.00  0.00    +0.213 C 
ATOM      2  O   UNL A   1      45.047 -19.252 -33.777  0.00  0.00    -0.276 OA
ATOM      3  N   UNL A   1      44.824 -16.972 -33.904  0.00  0.00    -0.315 N 
ATOM      4  H   UNL A   1      45.278 -16.124 -34.114  0.00  0.00    +0.000 HD
ENDROOT
BRANCH   1   5
ATOM      5  C   UNL A   1      46.986 -17.971 -34.374  0.00  0.00    +0.025 C 
BRANCH   5   6
ATOM      6  C   UNL A   1      47.152 -17.336 -35.754  0.00  0.00    -0.029 C 
BRANCH   6   7
ATOM      7  C   UNL A   1      47.355 -18.374 -36.858  0.00  0.00    +0.012 C 
BRANCH   7  10
ATOM      8  C   UNL A   1      45.204 -19.611 -37.413  0.00  0.00    +0.246 C 
ATOM      9  O   UNL A   1      44.665 -20.710 -37.495  0.00  0.00    -0.270 OA
ATOM     10  N   UNL A   1      46.412 -19.479 -36.775  0.00  0.00    -0.311 N 
ATOM     11  H   UNL A   1      46.673 -20.226 -36.189  0.00  0.00    +0.000 HD
BRANCH   8  17
ATOM     12  C   UNL A   1      44.887 -17.986 -39.319  0.00  0.00    +0.044 A 
ATOM     13  C   UNL A   1      44.186 -16.874 -39.816  0.00  0.00    -0.040 A 
ATOM     14  C   UNL A   1      43.262 -16.183 -39.024  0.00  0.00    -0.060 A 
ATOM     15  C   UNL A   1      43.009 -16.598 -37.720  0.00  0.00    -0.061 A 
ATOM     16  C   UNL A   1      43.658 -17.723 -37.217  0.00  0.00    -0.048 A 
ATOM     17  C   UNL A   1      44.560 -18.432 -38.024  0.00  0.00    +0.058 A 
BRANCH  12  18
ATOM     18  N   UNL A   1      45.804 -18.684 -40.149  0.00  0.00    -0.314 N 
ATOM     19  H   UNL A   1      46.736 -18.366 -40.135  0.00  0.00    +0.000 HD
BRANCH  18  25
ATOM     20  C   UNL A   1      46.973 -23.246 -41.837  0.00  0.00    -0.039 C 
ATOM     21  C   UNL A   1      46.140 -21.993 -41.863  0.00  0.00    -0.046 A 
ATOM     22  C   UNL A   1      45.137 -21.872 -42.836  0.00  0.00    -0.058 A 
ATOM     23  C   UNL A   1      44.355 -20.724 -42.913  0.00  0.00    -0.060 A 
ATOM     24  C   UNL A   1      44.561 -19.684 -42.011  0.00  0.00    -0.040 A 
ATOM     25  C   UNL A   1      45.525 -19.790 -40.997  0.00  0.00    +0.035 A 
ATOM     26  C   UNL A   1      46.330 -20.951 -40.924  0.00  0.00    -0.026 A 
ATOM     27  C   UNL A   1      47.412 -21.049 -39.875  0.00  0.00    -0.038 C 
ENDBRANCH  18  25
ENDBRANCH  12  18
ENDBRANCH   8  17
ENDBRANCH   7  10
ENDBRANCH   6   7
ENDBRANCH   5   6
ENDBRANCH   1   5
BRANCH   3  28
ATOM     28  C   UNL A   1      43.430 -16.943 -33.508  0.00  0.00    +0.012 C 
BRANCH  28  29
ATOM     29  C   UNL A   1      42.690 -15.735 -34.082  0.00  0.00    -0.037 C 
BRANCH  29  30
ATOM     30  C   UNL A   1      41.349 -15.527 -33.373  0.00  0.00    -0.052 C 
BRANCH  30  31
ATOM     31  C   UNL A   1      40.471 -16.782 -33.357  0.00  0.00    -0.052 C 
BRANCH  31  32
ATOM     32  C   UNL A   1      39.862 -17.101 -34.725  0.00  0.00    -0.037 C 
BRANCH  32  33
ATOM     33  C   UNL A   1      40.353 -18.451 -35.252  0.00  0.00    +0.009 C 
BRANCH  33  34
ATOM     34  N   UNL A   1      39.410 -18.939 -36.268  0.00  0.00    -0.343 N 
ATOM     35  H   UNL A   1      38.727 -18.378 -36.702  0.00  0.00    +0.000 HD
BRANCH  34  36
ATOM     36  C   UNL A   1      39.605 -20.325 -36.550  0.00  0.00    +0.041 A 
ATOM     37  C   UNL A   1      40.366 -20.734 -37.665  0.00  0.00    -0.005 A 
ATOM     38  C   UNL A   1      40.561 -22.106 -37.844  0.00  0.00    +0.047 A 
ATOM     39  N   UNL A   1      40.102 -23.043 -36.980  0.00  0.00    -0.251 NA
ATOM     40  C   UNL A   1      39.390 -22.651 -35.915  0.00  0.00    +0.073 A 
ATOM     41  C   UNL A   1      38.910 -23.626 -35.049  0.00  0.00    -0.036 A 
ATOM     42  C   UNL A   1      38.146 -23.307 -33.925  0.00  0.00    -0.060 A 
ATOM     43  C   UNL A   1      37.843 -21.981 -33.656  0.00  0.00    -0.061 A 
ATOM     44  C   UNL A   1      38.317 -20.986 -34.510  0.00  0.00    -0.051 A 
ATOM     45  C   UNL A   1      39.104 -21.300 -35.644  0.00  0.00    +0.021 A 
ATOM     46  C   UNL A   1      41.366 -22.651 -38.997  0.00  0.00    -0.010 C 
ATOM     47  C   UNL A   1      41.498 -21.674 -40.157  0.00  0.00    -0.047 C 
ATOM     48  C   UNL A   1      41.936 -20.314 -39.634  0.00  0.00    -0.049 C 
ATOM     49  C   UNL A   1      40.886 -19.745 -38.682  0.00  0.00    -0.024 C 
ENDBRANCH  34  36
ENDBRANCH  33  34
ENDBRANCH  32  33
ENDBRANCH  31  32
ENDBRANCH  30  31
ENDBRANCH  29  30
ENDBRANCH  28  29
ENDBRANCH   3  28
TORSDOF 15
ENDMDL
MODEL 3
REMARK VINA RESULT:    -6.450      2.070      4.625
REMARK INTER + INTRA:         -17.944
REMARK INTER:                 -13.513
REMARK INTRA:                  -4.431
REMARK UNBOUND:                -5.839
REMARK  Name = cpd36.pdb
REMARK  17 active torsions:
REMARK  status: ('A' for Active; 'I' for Inactive)
REMARK    1  A    between atoms: C_1  and  C_2
REMARK    2  A    between atoms: C_6  and  N_7
REMARK    3  A    between atoms: N_7  and  C_8
REMARK    4  A    between atoms: C_13  and  C_14
REMARK    5  A    between atoms: N_16  and  C_17
REMARK    6  A    between atoms: C_17  and  C_18
REMARK    7  A    between atoms: C_18  and  C_19
REMARK    8  A    between atoms: C_19  and  C_20
REMARK    9  A    between atoms: N_22  and  C_23
REMARK   10  A    between atoms: C_23  and  C_24
REMARK   11  A    between atoms: C_24  and  C_25
REMARK   12  A    between atoms: C_25  and  C_26
REMARK   13  A    between atoms: C_26  and  C_27
REMARK   14  A    between atoms: C_27  and  C_28
REMARK   15  A    between atoms: C_28  and  N_29
REMARK   16  A    between atoms: N_29  and  C_30
REMARK   17  A    between atoms: C_44  and  C_45
REMARK                            x       y       z     vdW  Elec       q    Type
REMARK                         _______ _______ _______ _____ _____    ______ ____
ROOT
ATOM      1  C   UNL A   1      46.535 -18.873 -34.401  0.00  0.00    +0.213 C 
ATOM      2  O   UNL A   1      45.925 -19.928 -34.527  0.00  0.00    -0.276 OA
ATOM      3  N   UNL A   1      46.129 -17.851 -33.573  0.00  0.00    -0.315 N 
ATOM      4  H   UNL A   1      46.663 -17.025 -33.539  0.00  0.00    +0.000 HD
ENDROOT
BRANCH   1   5
ATOM      5  C   UNL A   1      47.828 -18.601 -35.139  0.00  0.00    +0.025 C 
BRANCH   5   6
ATOM      6  C   UNL A   1      47.670 -18.744 -36.651  0.00  0.00    -0.029 C 
BRANCH   6   7
ATOM      7  C   UNL A   1      46.683 -17.735 -37.237  0.00  0.00    +0.012 C 
BRANCH   7  10
ATOM      8  C   UNL A   1      46.549 -16.320 -39.346  0.00  0.00    +0.246 C 
ATOM      9  O   UNL A   1      47.130 -15.498 -40.047  0.00  0.00    -0.270 OA
ATOM     10  N   UNL A   1      47.230 -16.997 -38.365  0.00  0.00    -0.311 N 
ATOM     11  H   UNL A   1      48.212 -16.981 -38.434  0.00  0.00    +0.000 HD
BRANCH   8  17
ATOM     12  C   UNL A   1      44.618 -17.407 -40.557  0.00  0.00    +0.044 A 
ATOM     13  C   UNL A   1      43.228 -17.593 -40.630  0.00  0.00    -0.040 A 
ATOM     14  C   UNL A   1      42.355 -16.898 -39.785  0.00  0.00    -0.060 A 
ATOM     15  C   UNL A   1      42.857 -16.011 -38.837  0.00  0.00    -0.061 A 
ATOM     16  C   UNL A   1      44.233 -15.840 -38.714  0.00  0.00    -0.048 A 
ATOM     17  C   UNL A   1      45.107 -16.562 -39.542  0.00  0.00    +0.058 A 
BRANCH  12  18
ATOM     18  N   UNL A   1      45.484 -18.139 -41.411  0.00  0.00    -0.314 N 
ATOM     19  H   UNL A   1      46.246 -17.645 -41.790  0.00  0.00    +0.000 HD
BRANCH  18  25
ATOM     20  C   UNL A   1      47.118 -22.857 -41.081  0.00  0.00    -0.039 C 
ATOM     21  C   UNL A   1      46.218 -21.800 -41.662  0.00  0.00    -0.046 A 
ATOM     22  C   UNL A   1      45.326 -22.163 -42.683  0.00  0.00    -0.058 A 
ATOM     23  C   UNL A   1      44.489 -21.217 -43.265  0.00  0.00    -0.060 A 
ATOM     24  C   UNL A   1      44.525 -19.896 -42.828  0.00  0.00    -0.040 A 
ATOM     25  C   UNL A   1      45.372 -19.508 -41.779  0.00  0.00    +0.035 A 
ATOM     26  C   UNL A   1      46.235 -20.465 -41.193  0.00  0.00    -0.026 A 
ATOM     27  C   UNL A   1      47.194 -20.044 -40.106  0.00  0.00    -0.038 C 
ENDBRANCH  18  25
ENDBRANCH  12  18
ENDBRANCH   8  17
ENDBRANCH   7  10
ENDBRANCH   6   7
ENDBRANCH   5   6
ENDBRANCH   1   5
BRANCH   3  28
ATOM     28  C   UNL A   1      44.940 -17.953 -32.752  0.00  0.00    +0.012 C 
BRANCH  28  29
ATOM     29  C   UNL A   1      44.344 -16.585 -32.423  0.00  0.00    -0.037 C 
BRANCH  29  30
ATOM     30  C   UNL A   1      43.094 -16.315 -33.265  0.00  0.00    -0.052 C 
BRANCH  30  31
ATOM     31  C   UNL A   1      42.179 -17.535 -33.399  0.00  0.00    -0.052 C 
BRANCH  31  32
ATOM     32  C   UNL A   1      41.630 -17.716 -34.816  0.00  0.00    -0.037 C 
BRANCH  32  33
ATOM     33  C   UNL A   1      42.638 -18.434 -35.717  0.00  0.00    +0.009 C 
BRANCH  33  34
ATOM     34  N   UNL A   1      42.922 -19.761 -35.153  0.00  0.00    -0.343 N 
ATOM     35  H   UNL A   1      43.610 -19.934 -34.469  0.00  0.00    +0.000 HD
BRANCH  34  36
ATOM     36  C   UNL A   1      42.082 -20.767 -35.717  0.00  0.00    +0.041 A 
ATOM     37  C   UNL A   1      42.228 -21.155 -37.066  0.00  0.00    -0.005 A 
ATOM     38  C   UNL A   1      41.408 -22.187 -37.533  0.00  0.00    +0.047 A 
ATOM     39  N   UNL A   1      40.531 -22.854 -36.746  0.00  0.00    -0.251 NA
ATOM     40  C   UNL A   1      40.403 -22.492 -35.462  0.00  0.00    +0.073 A 
ATOM     41  C   UNL A   1      39.485 -23.176 -34.674  0.00  0.00    -0.036 A 
ATOM     42  C   UNL A   1      39.277 -22.853 -33.331  0.00  0.00    -0.060 A 
ATOM     43  C   UNL A   1      39.997 -21.817 -32.756  0.00  0.00    -0.061 A 
ATOM     44  C   UNL A   1      40.925 -21.120 -33.528  0.00  0.00    -0.051 A 
ATOM     45  C   UNL A   1      41.153 -21.451 -34.886  0.00  0.00    +0.021 A 
ATOM     46  C   UNL A   1      41.489 -22.685 -38.953  0.00  0.00    -0.010 C 
ATOM     47  C   UNL A   1      42.125 -21.686 -39.909  0.00  0.00    -0.047 C 
ATOM     48  C   UNL A   1      43.430 -21.172 -39.318  0.00  0.00    -0.049 C 
ATOM     49  C   UNL A   1      43.168 -20.436 -38.005  0.00  0.00    -0.024 C 
ENDBRANCH  34  36
ENDBRANCH  33  34
ENDBRANCH  32  33
ENDBRANCH  31  32
ENDBRANCH  30  31
ENDBRANCH  29  30
ENDBRANCH  28  29
ENDBRANCH   3  28
TORSDOF 15
ENDMDL
MODEL 4
REMARK VINA RESULT:    -6.214      2.046      4.621
REMARK INTER + INTRA:         -17.503
REMARK INTER:                 -12.036
REMARK INTRA:                  -5.467
REMARK UNBOUND:                -5.839
REMARK  Name = cpd36.pdb
REMARK  17 active torsions:
REMARK  status: ('A' for Active; 'I' for Inactive)
REMARK    1  A    between atoms: C_1  and  C_2
REMARK    2  A    between atoms: C_6  and  N_7
REMARK    3  A    between atoms: N_7  and  C_8
REMARK    4  A    between atoms: C_13  and  C_14
REMARK    5  A    between atoms: N_16  and  C_17
REMARK    6  A    between atoms: C_17  and  C_18
REMARK    7  A    between atoms: C_18  and  C_19
REMARK    8  A    between atoms: C_19  and  C_20
REMARK    9  A    between atoms: N_22  and  C_23
REMARK   10  A    between atoms: C_23  and  C_24
REMARK   11  A    between atoms: C_24  and  C_25
REMARK   12  A    between atoms: C_25  and  C_26
REMARK   13  A    between atoms: C_26  and  C_27
REMARK   14  A    between atoms: C_27  and  C_28
REMARK   15  A    between atoms: C_28  and  N_29
REMARK   16  A    between atoms: N_29  and  C_30
REMARK   17  A    between atoms: C_44  and  C_45
REMARK                            x       y       z     vdW  Elec       q    Type
REMARK                         _______ _______ _______ _____ _____    ______ ____
ROOT
ATOM      1  C   UNL A   1      41.146 -16.846 -38.737  0.00  0.00    +0.213 C 
ATOM      2  O   UNL A   1      40.505 -16.845 -39.782  0.00  0.00    -0.276 OA
ATOM      3  N   UNL A   1      40.635 -17.257 -37.528  0.00  0.00    -0.315 N 
ATOM      4  H   UNL A   1      41.207 -17.212 -36.728  0.00  0.00    +0.000 HD
ENDROOT
BRANCH   1   5
ATOM      5  C   UNL A   1      42.595 -16.410 -38.685  0.00  0.00    +0.025 C 
BRANCH   5   6
ATOM      6  C   UNL A   1      43.137 -16.044 -40.065  0.00  0.00    -0.029 C 
BRANCH   6   7
ATOM      7  C   UNL A   1      44.371 -15.144 -39.992  0.00  0.00    +0.012 C 
BRANCH   7  10
ATOM      8  C   UNL A   1      46.457 -16.550 -40.363  0.00  0.00    +0.246 C 
ATOM      9  O   UNL A   1      47.151 -17.125 -41.196  0.00  0.00    -0.270 OA
ATOM     10  N   UNL A   1      45.492 -15.659 -40.762  0.00  0.00    -0.311 N 
ATOM     11  H   UNL A   1      45.570 -15.327 -41.686  0.00  0.00    +0.000 HD
BRANCH   8  17
ATOM     12  C   UNL A   1      46.051 -17.953 -38.303  0.00  0.00    +0.044 A 
ATOM     13  C   UNL A   1      46.327 -18.152 -36.940  0.00  0.00    -0.040 A 
ATOM     14  C   UNL A   1      47.089 -17.233 -36.210  0.00  0.00    -0.060 A 
ATOM     15  C   UNL A   1      47.605 -16.100 -36.832  0.00  0.00    -0.061 A 
ATOM     16  C   UNL A   1      47.383 -15.900 -38.192  0.00  0.00    -0.048 A 
ATOM     17  C   UNL A   1      46.645 -16.840 -38.928  0.00  0.00    +0.058 A 
BRANCH  12  18
ATOM     18  N   UNL A   1      45.293 -18.910 -39.028  0.00  0.00    -0.314 N 
ATOM     19  H   UNL A   1      44.325 -18.745 -39.091  0.00  0.00    +0.000 HD
BRANCH  18  25
ATOM     20  C   UNL A   1      45.202 -22.069 -42.907  0.00  0.00    -0.039 C 
ATOM     21  C   UNL A   1      45.681 -21.654 -41.542  0.00  0.00    -0.046 A 
ATOM     22  C   UNL A   1      46.539 -22.515 -40.840  0.00  0.00    -0.058 A 
ATOM     23  C   UNL A   1      46.991 -22.186 -39.567  0.00  0.00    -0.060 A 
ATOM     24  C   UNL A   1      46.599 -20.985 -38.980  0.00  0.00    -0.040 A 
ATOM     25  C   UNL A   1      45.778 -20.081 -39.671  0.00  0.00    +0.035 A 
ATOM     26  C   UNL A   1      45.306 -20.419 -40.962  0.00  0.00    -0.026 A 
ATOM     27  C   UNL A   1      44.372 -19.481 -41.689  0.00  0.00    -0.038 C 
ENDBRANCH  18  25
ENDBRANCH  12  18
ENDBRANCH   8  17
ENDBRANCH   7  10
ENDBRANCH   6   7
ENDBRANCH   5   6
ENDBRANCH   1   5
BRANCH   3  28
ATOM     28  C   UNL A   1      39.280 -17.754 -37.395  0.00  0.00    +0.012 C 
BRANCH  28  29
ATOM     29  C   UNL A   1      39.068 -18.516 -36.088  0.00  0.00    -0.037 C 
BRANCH  29  30
ATOM     30  C   UNL A   1      37.917 -19.516 -36.217  0.00  0.00    -0.052 C 
BRANCH  30  31
ATOM     31  C   UNL A   1      37.438 -20.068 -34.871  0.00  0.00    -0.052 C 
BRANCH  31  32
ATOM     32  C   UNL A   1      38.542 -20.789 -34.095  0.00  0.00    -0.037 C 
BRANCH  32  33
ATOM     33  C   UNL A   1      39.020 -22.039 -34.836  0.00  0.00    +0.009 C 
BRANCH  33  34
ATOM     34  N   UNL A   1      40.454 -22.228 -34.580  0.00  0.00    -0.343 N 
ATOM     35  H   UNL A   1      40.820 -22.878 -33.936  0.00  0.00    +0.000 HD
BRANCH  34  36
ATOM     36  C   UNL A   1      41.254 -21.355 -35.378  0.00  0.00    +0.041 A 
ATOM     37  C   UNL A   1      41.264 -21.471 -36.784  0.00  0.00    -0.005 A 
ATOM     38  C   UNL A   1      42.026 -20.544 -37.502  0.00  0.00    +0.047 A 
ATOM     39  N   UNL A   1      42.704 -19.527 -36.919  0.00  0.00    -0.251 NA
ATOM     40  C   UNL A   1      42.683 -19.412 -35.584  0.00  0.00    +0.073 A 
ATOM     41  C   UNL A   1      43.398 -18.373 -35.002  0.00  0.00    -0.036 A 
ATOM     42  C   UNL A   1      43.444 -18.190 -33.618  0.00  0.00    -0.060 A 
ATOM     43  C   UNL A   1      42.764 -19.068 -32.788  0.00  0.00    -0.061 A 
ATOM     44  C   UNL A   1      42.037 -20.116 -33.351  0.00  0.00    -0.051 A 
ATOM     45  C   UNL A   1      41.974 -20.300 -34.754  0.00  0.00    +0.021 A 
ATOM     46  C   UNL A   1      42.099 -20.572 -39.007  0.00  0.00    -0.010 C 
ATOM     47  C   UNL A   1      41.719 -21.918 -39.607  0.00  0.00    -0.047 C 
ATOM     48  C   UNL A   1      40.406 -22.394 -39.004  0.00  0.00    -0.049 C 
ATOM     49  C   UNL A   1      40.552 -22.597 -37.497  0.00  0.00    -0.024 C 
ENDBRANCH  34  36
ENDBRANCH  33  34
ENDBRANCH  32  33
ENDBRANCH  31  32
ENDBRANCH  30  31
ENDBRANCH  29  30
ENDBRANCH  28  29
ENDBRANCH   3  28
TORSDOF 15
ENDMDL
MODEL 5
REMARK VINA RESULT:    -6.193      2.393      7.268
REMARK INTER + INTRA:         -17.462
REMARK INTER:                 -11.091
REMARK INTRA:                  -6.371
REMARK UNBOUND:                -5.839
REMARK  Name = cpd36.pdb
REMARK  17 active torsions:
REMARK  status: ('A' for Active; 'I' for Inactive)
REMARK    1  A    between atoms: C_1  and  C_2
REMARK    2  A    between atoms: C_6  and  N_7
REMARK    3  A    between atoms: N_7  and  C_8
REMARK    4  A    between atoms: C_13  and  C_14
REMARK    5  A    between atoms: N_16  and  C_17
REMARK    6  A    between atoms: C_17  and  C_18
REMARK    7  A    between atoms: C_18  and  C_19
REMARK    8  A    between atoms: C_19  and  C_20
REMARK    9  A    between atoms: N_22  and  C_23
REMARK   10  A    between atoms: C_23  and  C_24
REMARK   11  A    between atoms: C_24  and  C_25
REMARK   12  A    between atoms: C_25  and  C_26
REMARK   13  A    between atoms: C_26  and  C_27
REMARK   14  A    between atoms: C_27  and  C_28
REMARK   15  A    between atoms: C_28  and  N_29
REMARK   16  A    between atoms: N_29  and  C_30
REMARK   17  A    between atoms: C_44  and  C_45
REMARK                            x       y       z     vdW  Elec       q    Type
REMARK                         _______ _______ _______ _____ _____    ______ ____
ROOT
ATOM      1  C   UNL A   1      41.084 -18.145 -35.287  0.00  0.00    +0.213 C 
ATOM      2  O   UNL A   1      41.868 -17.203 -35.271  0.00  0.00    -0.276 OA
ATOM      3  N   UNL A   1      41.475 -19.464 -35.264  0.00  0.00    -0.315 N 
ATOM      4  H   UNL A   1      40.786 -20.166 -35.297  0.00  0.00    +0.000 HD
ENDROOT
BRANCH   1   5
ATOM      5  C   UNL A   1      39.584 -17.940 -35.309  0.00  0.00    +0.025 C 
BRANCH   5   6
ATOM      6  C   UNL A   1      38.824 -19.257 -35.454  0.00  0.00    -0.029 C 
BRANCH   6   7
ATOM      7  C   UNL A   1      38.187 -19.418 -36.834  0.00  0.00    +0.012 C 
BRANCH   7  10
ATOM      8  C   UNL A   1      39.471 -18.438 -38.799  0.00  0.00    +0.246 C 
ATOM      9  O   UNL A   1      39.470 -17.582 -39.677  0.00  0.00    -0.270 OA
ATOM     10  N   UNL A   1      38.574 -18.366 -37.762  0.00  0.00    -0.311 N 
ATOM     11  H   UNL A   1      38.138 -17.493 -37.630  0.00  0.00    +0.000 HD
BRANCH   8  17
ATOM     12  C   UNL A   1      41.814 -19.377 -38.778  0.00  0.00    +0.044 A 
ATOM     13  C   UNL A   1      42.625 -20.524 -38.826  0.00  0.00    -0.040 A 
ATOM     14  C   UNL A   1      42.079 -21.793 -39.048  0.00  0.00    -0.060 A 
ATOM     15  C   UNL A   1      40.705 -21.944 -39.213  0.00  0.00    -0.061 A 
ATOM     16  C   UNL A   1      39.874 -20.830 -39.127  0.00  0.00    -0.048 A 
ATOM     17  C   UNL A   1      40.422 -19.564 -38.873  0.00  0.00    +0.058 A 
BRANCH  12  18
ATOM     18  N   UNL A   1      42.390 -18.103 -38.531  0.00  0.00    -0.314 N 
ATOM     19  H   UNL A   1      42.345 -17.775 -37.604  0.00  0.00    +0.000 HD
BRANCH  18  25
ATOM     20  C   UNL A   1      43.837 -13.524 -39.936  0.00  0.00    -0.039 C 
ATOM     21  C   UNL A   1      43.669 -14.999 -40.183  0.00  0.00    -0.046 A 
ATOM     22  C   UNL A   1      44.043 -15.518 -41.432  0.00  0.00    -0.058 A 
ATOM     23  C   UNL A   1      43.888 -16.871 -41.715  0.00  0.00    -0.060 A 
ATOM     24  C   UNL A   1      43.365 -17.726 -40.749  0.00  0.00    -0.040 A 
ATOM     25  C   UNL A   1      43.023 -17.249 -39.474  0.00  0.00    +0.035 A 
ATOM     26  C   UNL A   1      43.168 -15.871 -39.187  0.00  0.00    -0.026 A 
ATOM     27  C   UNL A   1      42.745 -15.337 -37.840  0.00  0.00    -0.038 C 
ENDBRANCH  18  25
ENDBRANCH  12  18
ENDBRANCH   8  17
ENDBRANCH   7  10
ENDBRANCH   6   7
ENDBRANCH   5   6
ENDBRANCH   1   5
BRANCH   3  28
ATOM     28  C   UNL A   1      42.869 -19.851 -35.193  0.00  0.00    +0.012 C 
BRANCH  28  29
ATOM     29  C   UNL A   1      43.364 -19.974 -33.752  0.00  0.00    -0.037 C 
BRANCH  29  30
ATOM     30  C   UNL A   1      44.420 -18.910 -33.444  0.00  0.00    -0.052 C 
BRANCH  30  31
ATOM     31  C   UNL A   1      45.134 -18.384 -34.692  0.00  0.00    -0.052 C 
BRANCH  31  32
ATOM     32  C   UNL A   1      46.549 -18.947 -34.852  0.00  0.00    -0.037 C 
BRANCH  32  33
ATOM     33  C   UNL A   1      46.687 -19.750 -36.147  0.00  0.00    +0.009 C 
BRANCH  33  34
ATOM     34  N   UNL A   1      45.666 -19.296 -37.102  0.00  0.00    -0.343 N 
ATOM     35  H   UNL A   1      44.706 -19.228 -36.893  0.00  0.00    +0.000 HD
BRANCH  34  36
ATOM     36  C   UNL A   1      46.234 -18.966 -38.369  0.00  0.00    +0.041 A 
ATOM     37  C   UNL A   1      46.369 -19.946 -39.376  0.00  0.00    -0.005 A 
ATOM     38  C   UNL A   1      46.881 -19.536 -40.610  0.00  0.00    +0.047 A 
ATOM     39  N   UNL A   1      47.202 -18.250 -40.893  0.00  0.00    -0.251 NA
ATOM     40  C   UNL A   1      47.063 -17.320 -39.939  0.00  0.00    +0.073 A 
ATOM     41  C   UNL A   1      47.414 -16.010 -40.241  0.00  0.00    -0.036 A 
ATOM     42  C   UNL A   1      47.315 -14.982 -39.301  0.00  0.00    -0.060 A 
ATOM     43  C   UNL A   1      46.861 -15.264 -38.022  0.00  0.00    -0.061 A 
ATOM     44  C   UNL A   1      46.500 -16.571 -37.698  0.00  0.00    -0.051 A 
ATOM     45  C   UNL A   1      46.583 -17.617 -38.650  0.00  0.00    +0.021 A 
ATOM     46  C   UNL A   1      47.057 -20.498 -41.757  0.00  0.00    -0.010 C 
ATOM     47  C   UNL A   1      47.114 -21.955 -41.320  0.00  0.00    -0.047 C 
ATOM     48  C   UNL A   1      45.955 -22.254 -40.382  0.00  0.00    -0.049 C 
ATOM     49  C   UNL A   1      46.054 -21.401 -39.119  0.00  0.00    -0.024 C 
ENDBRANCH  34  36
ENDBRANCH  33  34
ENDBRANCH  32  33
ENDBRANCH  31  32
ENDBRANCH  30  31
ENDBRANCH  29  30
ENDBRANCH  28  29
ENDBRANCH   3  28
TORSDOF 15
ENDMDL
MODEL 6
REMARK VINA RESULT:    -6.154      2.860      7.378
REMARK INTER + INTRA:         -17.390
REMARK INTER:                 -13.092
REMARK INTRA:                  -4.298
REMARK UNBOUND:                -5.839
REMARK  Name = cpd36.pdb
REMARK  17 active torsions:
REMARK  status: ('A' for Active; 'I' for Inactive)
REMARK    1  A    between atoms: C_1  and  C_2
REMARK    2  A    between atoms: C_6  and  N_7
REMARK    3  A    between atoms: N_7  and  C_8
REMARK    4  A    between atoms: C_13  and  C_14
REMARK    5  A    between atoms: N_16  and  C_17
REMARK    6  A    between atoms: C_17  and  C_18
REMARK    7  A    between atoms: C_18  and  C_19
REMARK    8  A    between atoms: C_19  and  C_20
REMARK    9  A    between atoms: N_22  and  C_23
REMARK   10  A    between atoms: C_23  and  C_24
REMARK   11  A    between atoms: C_24  and  C_25
REMARK   12  A    between atoms: C_25  and  C_26
REMARK   13  A    between atoms: C_26  and  C_27
REMARK   14  A    between atoms: C_27  and  C_28
REMARK   15  A    between atoms: C_28  and  N_29
REMARK   16  A    between atoms: N_29  and  C_30
REMARK   17  A    between atoms: C_44  and  C_45
REMARK                            x       y       z     vdW  Elec       q    Type
REMARK                         _______ _______ _______ _____ _____    ______ ____
ROOT
ATOM      1  C   UNL A   1      39.724 -22.300 -34.349  0.00  0.00    +0.213 C 
ATOM      2  O   UNL A   1      38.606 -22.419 -34.838  0.00  0.00    -0.276 OA
ATOM      3  N   UNL A   1      40.889 -22.520 -35.048  0.00  0.00    -0.315 N 
ATOM      4  H   UNL A   1      41.751 -22.422 -34.581  0.00  0.00    +0.000 HD
ENDROOT
BRANCH   1   5
ATOM      5  C   UNL A   1      39.930 -21.869 -32.913  0.00  0.00    +0.025 C 
BRANCH   5   6
ATOM      6  C   UNL A   1      41.292 -21.211 -32.698  0.00  0.00    -0.029 C 
BRANCH   6   7
ATOM      7  C   UNL A   1      41.250 -19.696 -32.893  0.00  0.00    +0.012 C 
BRANCH   7  10
ATOM      8  C   UNL A   1      41.880 -18.190 -34.843  0.00  0.00    +0.246 C 
ATOM      9  O   UNL A   1      42.112 -18.142 -36.047  0.00  0.00    -0.270 OA
ATOM     10  N   UNL A   1      41.297 -19.305 -34.294  0.00  0.00    -0.311 N 
ATOM     11  H   UNL A   1      40.857 -19.916 -34.928  0.00  0.00    +0.000 HD
BRANCH   8  17
ATOM     12  C   UNL A   1      43.574 -16.854 -33.531  0.00  0.00    +0.044 A 
ATOM     13  C   UNL A   1      43.823 -15.718 -32.742  0.00  0.00    -0.040 A 
ATOM     14  C   UNL A   1      42.788 -14.865 -32.346  0.00  0.00    -0.060 A 
ATOM     15  C   UNL A   1      41.479 -15.122 -32.742  0.00  0.00    -0.061 A 
ATOM     16  C   UNL A   1      41.209 -16.217 -33.559  0.00  0.00    -0.048 A 
ATOM     17  C   UNL A   1      42.254 -17.053 -33.980  0.00  0.00    +0.058 A 
BRANCH  12  18
ATOM     18  N   UNL A   1      44.644 -17.693 -33.937  0.00  0.00    -0.314 N 
ATOM     19  H   UNL A   1      44.890 -18.419 -33.320  0.00  0.00    +0.000 HD
BRANCH  18  25
ATOM     20  C   UNL A   1      47.133 -19.914 -37.667  0.00  0.00    -0.039 C 
ATOM     21  C   UNL A   1      46.669 -18.691 -36.921  0.00  0.00    -0.046 A 
ATOM     22  C   UNL A   1      47.099 -17.430 -37.363  0.00  0.00    -0.058 A 
ATOM     23  C   UNL A   1      46.714 -16.273 -36.694  0.00  0.00    -0.060 A 
ATOM     24  C   UNL A   1      45.885 -16.360 -35.579  0.00  0.00    -0.040 A 
ATOM     25  C   UNL A   1      45.399 -17.601 -35.137  0.00  0.00    +0.035 A 
ATOM     26  C   UNL A   1      45.800 -18.781 -35.808  0.00  0.00    -0.026 A 
ATOM     27  C   UNL A   1      45.334 -20.125 -35.303  0.00  0.00    -0.038 C 
ENDBRANCH  18  25
ENDBRANCH  12  18
ENDBRANCH   8  17
ENDBRANCH   7  10
ENDBRANCH   6   7
ENDBRANCH   5   6
ENDBRANCH   1   5
BRANCH   3  28
ATOM     28  C   UNL A   1      40.888 -22.892 -36.448  0.00  0.00    +0.012 C 
BRANCH  28  29
ATOM     29  C   UNL A   1      41.560 -21.839 -37.328  0.00  0.00    -0.037 C 
BRANCH  29  30
ATOM     30  C   UNL A   1      40.526 -20.876 -37.916  0.00  0.00    -0.052 C 
BRANCH  30  31
ATOM     31  C   UNL A   1      40.665 -20.687 -39.429  0.00  0.00    -0.052 C 
BRANCH  31  32
ATOM     32  C   UNL A   1      41.425 -21.830 -40.106  0.00  0.00    -0.037 C 
BRANCH  32  33
ATOM     33  C   UNL A   1      42.667 -21.316 -40.839  0.00  0.00    +0.009 C 
BRANCH  33  34
ATOM     34  N   UNL A   1      43.790 -21.256 -39.893  0.00  0.00    -0.343 N 
ATOM     35  H   UNL A   1      43.778 -21.663 -38.996  0.00  0.00    +0.000 HD
BRANCH  34  36
ATOM     36  C   UNL A   1      44.899 -20.537 -40.431  0.00  0.00    +0.041 A 
ATOM     37  C   UNL A   1      44.943 -19.128 -40.367  0.00  0.00    -0.005 A 
ATOM     38  C   UNL A   1      46.087 -18.496 -40.863  0.00  0.00    +0.047 A 
ATOM     39  N   UNL A   1      47.158 -19.168 -41.349  0.00  0.00    -0.251 NA
ATOM     40  C   UNL A   1      47.118 -20.507 -41.397  0.00  0.00    +0.073 A 
ATOM     41  C   UNL A   1      48.218 -21.179 -41.915  0.00  0.00    -0.036 A 
ATOM     42  C   UNL A   1      48.253 -22.572 -42.017  0.00  0.00    -0.060 A 
ATOM     43  C   UNL A   1      47.162 -23.317 -41.599  0.00  0.00    -0.061 A 
ATOM     44  C   UNL A   1      46.049 -22.663 -41.074  0.00  0.00    -0.051 A 
ATOM     45  C   UNL A   1      46.011 -21.253 -40.953  0.00  0.00    +0.021 A 
ATOM     46  C   UNL A   1      46.242 -16.997 -40.835  0.00  0.00    -0.010 C 
ATOM     47  C   UNL A   1      44.919 -16.254 -40.707  0.00  0.00    -0.047 C 
ATOM     48  C   UNL A   1      44.104 -16.852 -39.571  0.00  0.00    -0.049 C 
ATOM     49  C   UNL A   1      43.774 -18.315 -39.862  0.00  0.00    -0.024 C 
ENDBRANCH  34  36
ENDBRANCH  33  34
ENDBRANCH  32  33
ENDBRANCH  31  32
ENDBRANCH  30  31
ENDBRANCH  29  30
ENDBRANCH  28  29
ENDBRANCH   3  28
TORSDOF 15
ENDMDL
MODEL 7
REMARK VINA RESULT:    -6.140      2.360      5.010
REMARK INTER + INTRA:         -17.363
REMARK INTER:                 -11.942
REMARK INTRA:                  -5.421
REMARK UNBOUND:                -5.839
REMARK  Name = cpd36.pdb
REMARK  17 active torsions:
REMARK  status: ('A' for Active; 'I' for Inactive)
REMARK    1  A    between atoms: C_1  and  C_2
REMARK    2  A    between atoms: C_6  and  N_7
REMARK    3  A    between atoms: N_7  and  C_8
REMARK    4  A    between atoms: C_13  and  C_14
REMARK    5  A    between atoms: N_16  and  C_17
REMARK    6  A    between atoms: C_17  and  C_18
REMARK    7  A    between atoms: C_18  and  C_19
REMARK    8  A    between atoms: C_19  and  C_20
REMARK    9  A    between atoms: N_22  and  C_23
REMARK   10  A    between atoms: C_23  and  C_24
REMARK   11  A    between atoms: C_24  and  C_25
REMARK   12  A    between atoms: C_25  and  C_26
REMARK   13  A    between atoms: C_26  and  C_27
REMARK   14  A    between atoms: C_27  and  C_28
REMARK   15  A    between atoms: C_28  and  N_29
REMARK   16  A    between atoms: N_29  and  C_30
REMARK   17  A    between atoms: C_44  and  C_45
REMARK                            x       y       z     vdW  Elec       q    Type
REMARK                         _______ _______ _______ _____ _____    ______ ____
ROOT
ATOM      1  C   UNL A   1      42.322 -17.028 -37.470  0.00  0.00    +0.213 C 
ATOM      2  O   UNL A   1      41.903 -15.887 -37.626  0.00  0.00    -0.276 OA
ATOM      3  N   UNL A   1      42.656 -17.558 -36.245  0.00  0.00    -0.315 N 
ATOM      4  H   UNL A   1      43.003 -18.478 -36.202  0.00  0.00    +0.000 HD
ENDROOT
BRANCH   1   5
ATOM      5  C   UNL A   1      42.492 -17.985 -38.630  0.00  0.00    +0.025 C 
BRANCH   5   6
ATOM      6  C   UNL A   1      43.316 -19.214 -38.249  0.00  0.00    -0.029 C 
BRANCH   6   7
ATOM      7  C   UNL A   1      43.688 -20.070 -39.459  0.00  0.00    +0.012 C 
BRANCH   7  10
ATOM      8  C   UNL A   1      44.410 -19.581 -41.848  0.00  0.00    +0.246 C 
ATOM      9  O   UNL A   1      44.095 -19.048 -42.908  0.00  0.00    -0.270 OA
ATOM     10  N   UNL A   1      43.701 -19.315 -40.703  0.00  0.00    -0.311 N 
ATOM     11  H   UNL A   1      43.131 -18.512 -40.727  0.00  0.00    +0.000 HD
BRANCH   8  17
ATOM     12  C   UNL A   1      46.810 -20.168 -41.332  0.00  0.00    +0.044 A 
ATOM     13  C   UNL A   1      47.801 -21.164 -41.312  0.00  0.00    -0.040 A 
ATOM     14  C   UNL A   1      47.561 -22.441 -41.829  0.00  0.00    -0.060 A 
ATOM     15  C   UNL A   1      46.316 -22.756 -42.367  0.00  0.00    -0.061 A 
ATOM     16  C   UNL A   1      45.303 -21.802 -42.362  0.00  0.00    -0.048 A 
ATOM     17  C   UNL A   1      45.538 -20.531 -41.813  0.00  0.00    +0.058 A 
BRANCH  12  18
ATOM     18  N   UNL A   1      47.072 -18.886 -40.782  0.00  0.00    -0.314 N 
ATOM     19  H   UNL A   1      47.480 -18.225 -41.386  0.00  0.00    +0.000 HD
BRANCH  18  25
ATOM     20  C   UNL A   1      45.537 -15.327 -37.618  0.00  0.00    -0.039 C 
ATOM     21  C   UNL A   1      46.118 -16.684 -37.911  0.00  0.00    -0.046 A 
ATOM     22  C   UNL A   1      46.520 -17.490 -36.835  0.00  0.00    -0.058 A 
ATOM     23  C   UNL A   1      47.082 -18.743 -37.056  0.00  0.00    -0.060 A 
ATOM     24  C   UNL A   1      47.241 -19.212 -38.357  0.00  0.00    -0.040 A 
ATOM     25  C   UNL A   1      46.808 -18.451 -39.455  0.00  0.00    +0.035 A 
ATOM     26  C   UNL A   1      46.248 -17.171 -39.234  0.00  0.00    -0.026 A 
ATOM     27  C   UNL A   1      45.837 -16.318 -40.410  0.00  0.00    -0.038 C 
ENDBRANCH  18  25
ENDBRANCH  12  18
ENDBRANCH   8  17
ENDBRANCH   7  10
ENDBRANCH   6   7
ENDBRANCH   5   6
ENDBRANCH   1   5
BRANCH   3  28
ATOM     28  C   UNL A   1      42.512 -16.803 -35.016  0.00  0.00    +0.012 C 
BRANCH  28  29
ATOM     29  C   UNL A   1      43.836 -16.663 -34.265  0.00  0.00    -0.037 C 
BRANCH  29  30
ATOM     30  C   UNL A   1      44.100 -17.889 -33.388  0.00  0.00    -0.052 C 
BRANCH  30  31
ATOM     31  C   UNL A   1      44.917 -18.975 -34.094  0.00  0.00    -0.052 C 
BRANCH  31  32
ATOM     32  C   UNL A   1      44.140 -20.280 -34.279  0.00  0.00    -0.037 C 
BRANCH  32  33
ATOM     33  C   UNL A   1      42.842 -20.276 -33.467  0.00  0.00    +0.009 C 
BRANCH  33  34
ATOM     34  N   UNL A   1      41.900 -21.231 -34.068  0.00  0.00    -0.343 N 
ATOM     35  H   UNL A   1      41.932 -22.205 -33.921  0.00  0.00    +0.000 HD
BRANCH  34  36
ATOM     36  C   UNL A   1      40.934 -20.577 -34.889  0.00  0.00    +0.041 A 
ATOM     37  C   UNL A   1      40.190 -19.484 -34.396  0.00  0.00    -0.005 A 
ATOM     38  C   UNL A   1      39.304 -18.857 -35.276  0.00  0.00    +0.047 A 
ATOM     39  N   UNL A   1      39.167 -19.215 -36.575  0.00  0.00    -0.251 NA
ATOM     40  C   UNL A   1      39.883 -20.245 -37.045  0.00  0.00    +0.073 A 
ATOM     41  C   UNL A   1      39.717 -20.610 -38.375  0.00  0.00    -0.036 A 
ATOM     42  C   UNL A   1      40.412 -21.681 -38.941  0.00  0.00    -0.060 A 
ATOM     43  C   UNL A   1      41.292 -22.415 -38.161  0.00  0.00    -0.061 A 
ATOM     44  C   UNL A   1      41.477 -22.065 -36.825  0.00  0.00    -0.051 A 
ATOM     45  C   UNL A   1      40.787 -20.971 -36.247  0.00  0.00    +0.021 A 
ATOM     46  C   UNL A   1      38.468 -17.675 -34.855  0.00  0.00    -0.010 C 
ATOM     47  C   UNL A   1      38.299 -17.561 -33.346  0.00  0.00    -0.047 C 
ATOM     48  C   UNL A   1      39.656 -17.681 -32.669  0.00  0.00    -0.049 C 
ATOM     49  C   UNL A   1      40.275 -19.049 -32.951  0.00  0.00    -0.024 C 
ENDBRANCH  34  36
ENDBRANCH  33  34
ENDBRANCH  32  33
ENDBRANCH  31  32
ENDBRANCH  30  31
ENDBRANCH  29  30
ENDBRANCH  28  29
ENDBRANCH   3  28
TORSDOF 15
ENDMDL
MODEL 8
REMARK VINA RESULT:    -6.040      2.075      3.665
REMARK INTER + INTRA:         -17.175
REMARK INTER:                 -12.524
REMARK INTRA:                  -4.650
REMARK UNBOUND:                -5.839
REMARK  Name = cpd36.pdb
REMARK  17 active torsions:
REMARK  status: ('A' for Active; 'I' for Inactive)
REMARK    1  A    between atoms: C_1  and  C_2
REMARK    2  A    between atoms: C_6  and  N_7
REMARK    3  A    between atoms: N_7  and  C_8
REMARK    4  A    between atoms: C_13  and  C_14
REMARK    5  A    between atoms: N_16  and  C_17
REMARK    6  A    between atoms: C_17  and  C_18
REMARK    7  A    between atoms: C_18  and  C_19
REMARK    8  A    between atoms: C_19  and  C_20
REMARK    9  A    between atoms: N_22  and  C_23
REMARK   10  A    between atoms: C_23  and  C_24
REMARK   11  A    between atoms: C_24  and  C_25
REMARK   12  A    between atoms: C_25  and  C_26
REMARK   13  A    between atoms: C_26  and  C_27
REMARK   14  A    between atoms: C_27  and  C_28
REMARK   15  A    between atoms: C_28  and  N_29
REMARK   16  A    between atoms: N_29  and  C_30
REMARK   17  A    between atoms: C_44  and  C_45
REMARK                            x       y       z     vdW  Elec       q    Type
REMARK                         _______ _______ _______ _____ _____    ______ ____
ROOT
ATOM      1  C   UNL A   1      43.202 -15.734 -35.224  0.00  0.00    +0.213 C 
ATOM      2  O   UNL A   1      42.059 -16.171 -35.286  0.00  0.00    -0.276 OA
ATOM      3  N   UNL A   1      44.039 -15.938 -34.151  0.00  0.00    -0.315 N 
ATOM      4  H   UNL A   1      44.939 -15.540 -34.166  0.00  0.00    +0.000 HD
ENDROOT
BRANCH   1   5
ATOM      5  C   UNL A   1      43.819 -14.936 -36.352  0.00  0.00    +0.025 C 
BRANCH   5   6
ATOM      6  C   UNL A   1      45.199 -15.462 -36.743  0.00  0.00    -0.029 C 
BRANCH   6   7
ATOM      7  C   UNL A   1      46.002 -14.451 -37.562  0.00  0.00    +0.012 C 
BRANCH   7  10
ATOM      8  C   UNL A   1      46.031 -15.465 -39.893  0.00  0.00    +0.246 C 
ATOM      9  O   UNL A   1      46.702 -15.654 -40.903  0.00  0.00    -0.270 OA
ATOM     10  N   UNL A   1      46.630 -15.043 -38.733  0.00  0.00    -0.311 N 
ATOM     11  H   UNL A   1      47.607 -15.154 -38.688  0.00  0.00    +0.000 HD
BRANCH   8  17
ATOM     12  C   UNL A   1      43.990 -16.952 -39.911  0.00  0.00    +0.044 A 
ATOM     13  C   UNL A   1      42.587 -17.027 -39.921  0.00  0.00    -0.040 A 
ATOM     14  C   UNL A   1      41.797 -15.878 -40.040  0.00  0.00    -0.060 A 
ATOM     15  C   UNL A   1      42.395 -14.625 -40.138  0.00  0.00    -0.061 A 
ATOM     16  C   UNL A   1      43.782 -14.518 -40.088  0.00  0.00    -0.048 A 
ATOM     17  C   UNL A   1      44.570 -15.669 -39.937  0.00  0.00    +0.058 A 
BRANCH  12  18
ATOM     18  N   UNL A   1      44.770 -18.130 -39.768  0.00  0.00    -0.314 N 
ATOM     19  H   UNL A   1      45.324 -18.192 -38.956  0.00  0.00    +0.000 HD
BRANCH  18  25
ATOM     20  C   UNL A   1      46.363 -22.749 -40.843  0.00  0.00    -0.039 C 
ATOM     21  C   UNL A   1      45.676 -21.462 -41.209  0.00  0.00    -0.046 A 
ATOM     22  C   UNL A   1      45.196 -21.304 -42.519  0.00  0.00    -0.058 A 
ATOM     23  C   UNL A   1      44.572 -20.125 -42.911  0.00  0.00    -0.060 A 
ATOM     24  C   UNL A   1      44.411 -19.088 -41.996  0.00  0.00    -0.040 A 
ATOM     25  C   UNL A   1      44.838 -19.228 -40.667  0.00  0.00    +0.035 A 
ATOM     26  C   UNL A   1      45.485 -20.422 -40.268  0.00  0.00    -0.026 A 
ATOM     27  C   UNL A   1      46.003 -20.559 -38.857  0.00  0.00    -0.038 C 
ENDBRANCH  18  25
ENDBRANCH  12  18
ENDBRANCH   8  17
ENDBRANCH   7  10
ENDBRANCH   6   7
ENDBRANCH   5   6
ENDBRANCH   1   5
BRANCH   3  28
ATOM     28  C   UNL A   1      43.636 -16.720 -32.999  0.00  0.00    +0.012 C 
BRANCH  28  29
ATOM     29  C   UNL A   1      44.445 -18.010 -32.863  0.00  0.00    -0.037 C 
BRANCH  29  30
ATOM     30  C   UNL A   1      45.754 -17.921 -33.651  0.00  0.00    -0.052 C 
BRANCH  30  31
ATOM     31  C   UNL A   1      45.893 -19.009 -34.720  0.00  0.00    -0.052 C 
BRANCH  31  32
ATOM     32  C   UNL A   1      44.599 -19.795 -34.944  0.00  0.00    -0.037 C 
BRANCH  32  33
ATOM     33  C   UNL A   1      43.831 -19.270 -36.158  0.00  0.00    +0.009 C 
BRANCH  33  34
ATOM     34  N   UNL A   1      42.397 -19.236 -35.838  0.00  0.00    -0.343 N 
ATOM     35  H   UNL A   1      41.918 -18.430 -35.538  0.00  0.00    +0.000 HD
BRANCH  34  36
ATOM     36  C   UNL A   1      41.784 -20.512 -36.016  0.00  0.00    +0.041 A 
ATOM     37  C   UNL A   1      41.293 -21.236 -34.908  0.00  0.00    -0.005 A 
ATOM     38  C   UNL A   1      40.654 -22.452 -35.165  0.00  0.00    +0.047 A 
ATOM     39  N   UNL A   1      40.444 -22.935 -36.414  0.00  0.00    -0.251 NA
ATOM     40  C   UNL A   1      40.901 -22.240 -37.464  0.00  0.00    +0.073 A 
ATOM     41  C   UNL A   1      40.693 -22.758 -38.737  0.00  0.00    -0.036 A 
ATOM     42  C   UNL A   1      41.150 -22.107 -39.885  0.00  0.00    -0.060 A 
ATOM     43  C   UNL A   1      41.840 -20.910 -39.765  0.00  0.00    -0.061 A 
ATOM     44  C   UNL A   1      42.056 -20.370 -38.498  0.00  0.00    -0.051 A 
ATOM     45  C   UNL A   1      41.583 -21.016 -37.330  0.00  0.00    +0.021 A 
ATOM     46  C   UNL A   1      40.084 -23.300 -34.057  0.00  0.00    -0.010 C 
ATOM     47  C   UNL A   1      40.684 -22.994 -32.692  0.00  0.00    -0.047 C 
ATOM     48  C   UNL A   1      40.661 -21.492 -32.449  0.00  0.00    -0.049 C 
ATOM     49  C   UNL A   1      41.515 -20.770 -33.489  0.00  0.00    -0.024 C 
ENDBRANCH  34  36
ENDBRANCH  33  34
ENDBRANCH  32  33
ENDBRANCH  31  32
ENDBRANCH  30  31
ENDBRANCH  29  30
ENDBRANCH  28  29
ENDBRANCH   3  28
TORSDOF 15
ENDMDL
MODEL 9
REMARK VINA RESULT:    -6.023      2.404      7.020
REMARK INTER + INTRA:         -17.143
REMARK INTER:                 -10.662
REMARK INTRA:                  -6.482
REMARK UNBOUND:                -5.839
REMARK  Name = cpd36.pdb
REMARK  17 active torsions:
REMARK  status: ('A' for Active; 'I' for Inactive)
REMARK    1  A    between atoms: C_1  and  C_2
REMARK    2  A    between atoms: C_6  and  N_7
REMARK    3  A    between atoms: N_7  and  C_8
REMARK    4  A    between atoms: C_13  and  C_14
REMARK    5  A    between atoms: N_16  and  C_17
REMARK    6  A    between atoms: C_17  and  C_18
REMARK    7  A    between atoms: C_18  and  C_19
REMARK    8  A    between atoms: C_19  and  C_20
REMARK    9  A    between atoms: N_22  and  C_23
REMARK   10  A    between atoms: C_23  and  C_24
REMARK   11  A    between atoms: C_24  and  C_25
REMARK   12  A    between atoms: C_25  and  C_26
REMARK   13  A    between atoms: C_26  and  C_27
REMARK   14  A    between atoms: C_27  and  C_28
REMARK   15  A    between atoms: C_28  and  N_29
REMARK   16  A    between atoms: N_29  and  C_30
REMARK   17  A    between atoms: C_44  and  C_45
REMARK                            x       y       z     vdW  Elec       q    Type
REMARK                         _______ _______ _______ _____ _____    ______ ____
ROOT
ATOM      1  C   UNL A   1      39.868 -17.318 -38.881  0.00  0.00    +0.213 C 
ATOM      2  O   UNL A   1      40.628 -18.062 -39.490  0.00  0.00    -0.276 OA
ATOM      3  N   UNL A   1      39.902 -15.946 -38.979  0.00  0.00    -0.315 N 
ATOM      4  H   UNL A   1      39.270 -15.414 -38.444  0.00  0.00    +0.000 HD
ENDROOT
BRANCH   1   5
ATOM      5  C   UNL A   1      38.787 -17.851 -37.966  0.00  0.00    +0.025 C 
BRANCH   5   6
ATOM      6  C   UNL A   1      39.362 -18.642 -36.792  0.00  0.00    -0.029 C 
BRANCH   6   7
ATOM      7  C   UNL A   1      38.679 -19.996 -36.606  0.00  0.00    +0.012 C 
BRANCH   7  10
ATOM      8  C   UNL A   1      40.677 -21.484 -36.097  0.00  0.00    +0.246 C 
ATOM      9  O   UNL A   1      41.358 -21.989 -35.210  0.00  0.00    -0.270 OA
ATOM     10  N   UNL A   1      39.462 -20.918 -35.799  0.00  0.00    -0.311 N 
ATOM     11  H   UNL A   1      39.073 -21.168 -34.929  0.00  0.00    +0.000 HD
BRANCH   8  17
ATOM     12  C   UNL A   1      42.442 -20.933 -37.816  0.00  0.00    +0.044 A 
ATOM     13  C   UNL A   1      42.834 -20.997 -39.164  0.00  0.00    -0.040 A 
ATOM     14  C   UNL A   1      41.971 -21.485 -40.151  0.00  0.00    -0.060 A 
ATOM     15  C   UNL A   1      40.699 -21.936 -39.809  0.00  0.00    -0.061 A 
ATOM     16  C   UNL A   1      40.300 -21.924 -38.475  0.00  0.00    -0.048 A 
ATOM     17  C   UNL A   1      41.180 -21.462 -37.484  0.00  0.00    +0.058 A 
BRANCH  12  18
ATOM     18  N   UNL A   1      43.343 -20.453 -36.830  0.00  0.00    -0.314 N 
ATOM     19  H   UNL A   1      43.965 -21.112 -36.447  0.00  0.00    +0.000 HD
BRANCH  18  25
ATOM     20  C   UNL A   1      44.224 -17.302 -33.044  0.00  0.00    -0.039 C 
ATOM     21  C   UNL A   1      43.813 -17.594 -34.462  0.00  0.00    -0.046 A 
ATOM     22  C   UNL A   1      43.405 -16.527 -35.278  0.00  0.00    -0.058 A 
ATOM     23  C   UNL A   1      42.998 -16.748 -36.588  0.00  0.00    -0.060 A 
ATOM     24  C   UNL A   1      43.000 -18.040 -37.106  0.00  0.00    -0.040 A 
ATOM     25  C   UNL A   1      43.445 -19.125 -36.334  0.00  0.00    +0.035 A 
ATOM     26  C   UNL A   1      43.848 -18.905 -34.996  0.00  0.00    -0.026 A 
ATOM     27  C   UNL A   1      44.269 -20.073 -34.137  0.00  0.00    -0.038 C 
ENDBRANCH  18  25
ENDBRANCH  12  18
ENDBRANCH   8  17
ENDBRANCH   7  10
ENDBRANCH   6   7
ENDBRANCH   5   6
ENDBRANCH   1   5
BRANCH   3  28
ATOM     28  C   UNL A   1      40.840 -15.260 -39.845  0.00  0.00    +0.012 C 
BRANCH  28  29
ATOM     29  C   UNL A   1      41.696 -14.247 -39.086  0.00  0.00    -0.037 C 
BRANCH  29  30
ATOM     30  C   UNL A   1      43.172 -14.386 -39.463  0.00  0.00    -0.052 C 
BRANCH  30  31
ATOM     31  C   UNL A   1      43.407 -14.479 -40.973  0.00  0.00    -0.052 C 
BRANCH  31  32
ATOM     32  C   UNL A   1      44.082 -15.787 -41.392  0.00  0.00    -0.037 C 
BRANCH  32  33
ATOM     33  C   UNL A   1      44.410 -16.659 -40.178  0.00  0.00    +0.009 C 
BRANCH  33  34
ATOM     34  N   UNL A   1      45.840 -16.997 -40.206  0.00  0.00    -0.343 N 
ATOM     35  H   UNL A   1      46.529 -16.450 -40.650  0.00  0.00    +0.000 HD
BRANCH  34  36
ATOM     36  C   UNL A   1      46.110 -18.214 -39.511  0.00  0.00    +0.041 A 
ATOM     37  C   UNL A   1      46.048 -19.455 -40.180  0.00  0.00    -0.005 A 
ATOM     38  C   UNL A   1      46.381 -20.599 -39.448  0.00  0.00    +0.047 A 
ATOM     39  N   UNL A   1      46.803 -20.564 -38.161  0.00  0.00    -0.251 NA
ATOM     40  C   UNL A   1      46.873 -19.383 -37.532  0.00  0.00    +0.073 A 
ATOM     41  C   UNL A   1      47.290 -19.367 -36.207  0.00  0.00    -0.036 A 
ATOM     42  C   UNL A   1      47.375 -18.182 -35.472  0.00  0.00    -0.060 A 
ATOM     43  C   UNL A   1      47.030 -16.979 -36.069  0.00  0.00    -0.061 A 
ATOM     44  C   UNL A   1      46.612 -16.972 -37.399  0.00  0.00    -0.051 A 
ATOM     45  C   UNL A   1      46.537 -18.167 -38.155  0.00  0.00    +0.021 A 
ATOM     46  C   UNL A   1      46.357 -21.973 -40.068  0.00  0.00    -0.010 C 
ATOM     47  C   UNL A   1      45.496 -22.057 -41.320  0.00  0.00    -0.047 C 
ATOM     48  C   UNL A   1      45.852 -20.917 -42.263  0.00  0.00    -0.049 C 
ATOM     49  C   UNL A   1      45.562 -19.569 -41.605  0.00  0.00    -0.024 C 
ENDBRANCH  34  36
ENDBRANCH  33  34
ENDBRANCH  32  33
ENDBRANCH  31  32
ENDBRANCH  30  31
ENDBRANCH  29  30
ENDBRANCH  28  29
ENDBRANCH   3  28
TORSDOF 15
ENDMDL
MODEL 10
REMARK VINA RESULT:    -6.013      2.344      5.543
REMARK INTER + INTRA:         -17.125
REMARK INTER:                 -12.676
REMARK INTRA:                  -4.449
REMARK UNBOUND:                -5.839
REMARK  Name = cpd36.pdb
REMARK  17 active torsions:
REMARK  status: ('A' for Active; 'I' for Inactive)
REMARK    1  A    between atoms: C_1  and  C_2
REMARK    2  A    between atoms: C_6  and  N_7
REMARK    3  A    between atoms: N_7  and  C_8
REMARK    4  A    between atoms: C_13  and  C_14
REMARK    5  A    between atoms: N_16  and  C_17
REMARK    6  A    between atoms: C_17  and  C_18
REMARK    7  A    between atoms: C_18  and  C_19
REMARK    8  A    between atoms: C_19  and  C_20
REMARK    9  A    between atoms: N_22  and  C_23
REMARK   10  A    between atoms: C_23  and  C_24
REMARK   11  A    between atoms: C_24  and  C_25
REMARK   12  A    between atoms: C_25  and  C_26
REMARK   13  A    between atoms: C_26  and  C_27
REMARK   14  A    between atoms: C_27  and  C_28
REMARK   15  A    between atoms: C_28  and  N_29
REMARK   16  A    between atoms: N_29  and  C_30
REMARK   17  A    between atoms: C_44  and  C_45
REMARK                            x       y       z     vdW  Elec       q    Type
REMARK                         _______ _______ _______ _____ _____    ______ ____
ROOT
ATOM      1  C   UNL A   1      40.434 -17.214 -37.226  0.00  0.00    +0.213 C 
ATOM      2  O   UNL A   1      39.488 -16.442 -37.327  0.00  0.00    -0.276 OA
ATOM      3  N   UNL A   1      40.900 -17.697 -36.025  0.00  0.00    -0.315 N 
ATOM      4  H   UNL A   1      41.678 -18.301 -36.023  0.00  0.00    +0.000 HD
ENDROOT
BRANCH   1   5
ATOM      5  C   UNL A   1      41.174 -17.738 -38.438  0.00  0.00    +0.025 C 
BRANCH   5   6
ATOM      6  C   UNL A   1      42.480 -18.435 -38.060  0.00  0.00    -0.029 C 
BRANCH   6   7
ATOM      7  C   UNL A   1      43.188 -19.049 -39.267  0.00  0.00    +0.012 C 
BRANCH   7  10
ATOM      8  C   UNL A   1      44.831 -18.312 -41.063  0.00  0.00    +0.246 C 
ATOM      9  O   UNL A   1      45.193 -17.384 -41.779  0.00  0.00    -0.270 OA
ATOM     10  N   UNL A   1      43.985 -18.082 -40.007  0.00  0.00    -0.311 N 
ATOM     11  H   UNL A   1      43.907 -17.145 -39.714  0.00  0.00    +0.000 HD
BRANCH   8  17
ATOM     12  C   UNL A   1      46.409 -20.253 -40.723  0.00  0.00    +0.044 A 
ATOM     13  C   UNL A   1      46.733 -21.580 -41.052  0.00  0.00    -0.040 A 
ATOM     14  C   UNL A   1      46.024 -22.280 -42.034  0.00  0.00    -0.060 A 
ATOM     15  C   UNL A   1      44.964 -21.672 -42.700  0.00  0.00    -0.061 A 
ATOM     16  C   UNL A   1      44.594 -20.373 -42.363  0.00  0.00    -0.048 A 
ATOM     17  C   UNL A   1      45.288 -19.684 -41.356  0.00  0.00    +0.058 A 
BRANCH  12  18
ATOM     18  N   UNL A   1      47.130 -19.570 -39.709  0.00  0.00    -0.314 N 
ATOM     19  H   UNL A   1      47.985 -19.162 -39.978  0.00  0.00    +0.000 HD
BRANCH  18  25
ATOM     20  C   UNL A   1      46.551 -16.642 -35.693  0.00  0.00    -0.039 C 
ATOM     21  C   UNL A   1      46.536 -17.985 -36.372  0.00  0.00    -0.046 A 
ATOM     22  C   UNL A   1      46.258 -19.125 -35.601  0.00  0.00    -0.058 A 
ATOM     23  C   UNL A   1      46.252 -20.390 -36.179  0.00  0.00    -0.060 A 
ATOM     24  C   UNL A   1      46.517 -20.532 -37.538  0.00  0.00    -0.040 A 
ATOM     25  C   UNL A   1      46.755 -19.411 -38.347  0.00  0.00    +0.035 A 
ATOM     26  C   UNL A   1      46.773 -18.123 -37.760  0.00  0.00    -0.026 A 
ATOM     27  C   UNL A   1      47.089 -16.916 -38.610  0.00  0.00    -0.038 C 
ENDBRANCH  18  25
ENDBRANCH  12  18
ENDBRANCH   8  17
ENDBRANCH   7  10
ENDBRANCH   6   7
ENDBRANCH   5   6
ENDBRANCH   1   5
BRANCH   3  28
ATOM     28  C   UNL A   1      40.284 -17.343 -34.762  0.00  0.00    +0.012 C 
BRANCH  28  29
ATOM     29  C   UNL A   1      41.316 -17.113 -33.658  0.00  0.00    -0.037 C 
BRANCH  29  30
ATOM     30  C   UNL A   1      41.772 -18.441 -33.050  0.00  0.00    -0.052 C 
BRANCH  30  31
ATOM     31  C   UNL A   1      43.072 -18.972 -33.661  0.00  0.00    -0.052 C 
BRANCH  31  32
ATOM     32  C   UNL A   1      42.966 -20.429 -34.118  0.00  0.00    -0.037 C 
BRANCH  32  33
ATOM     33  C   UNL A   1      41.889 -21.182 -33.332  0.00  0.00    +0.009 C 
BRANCH  33  34
ATOM     34  N   UNL A   1      41.227 -22.140 -34.228  0.00  0.00    -0.343 N 
ATOM     35  H   UNL A   1      41.422 -23.105 -34.247  0.00  0.00    +0.000 HD
BRANCH  34  36
ATOM     36  C   UNL A   1      40.266 -21.501 -35.069  0.00  0.00    +0.041 A 
ATOM     37  C   UNL A   1      40.377 -21.574 -36.474  0.00  0.00    -0.005 A 
ATOM     38  C   UNL A   1      39.368 -20.973 -37.232  0.00  0.00    +0.047 A 
ATOM     39  N   UNL A   1      38.280 -20.378 -36.686  0.00  0.00    -0.251 NA
ATOM     40  C   UNL A   1      38.171 -20.321 -35.352  0.00  0.00    +0.073 A 
ATOM     41  C   UNL A   1      37.058 -19.691 -34.809  0.00  0.00    -0.036 A 
ATOM     42  C   UNL A   1      36.874 -19.573 -33.430  0.00  0.00    -0.060 A 
ATOM     43  C   UNL A   1      37.827 -20.090 -32.565  0.00  0.00    -0.061 A 
ATOM     44  C   UNL A   1      38.949 -20.729 -33.088  0.00  0.00    -0.051 A 
ATOM     45  C   UNL A   1      39.136 -20.866 -34.485  0.00  0.00    +0.021 A 
ATOM     46  C   UNL A   1      39.383 -21.000 -38.739  0.00  0.00    -0.010 C 
ATOM     47  C   UNL A   1      40.763 -21.264 -39.325  0.00  0.00    -0.047 C 
ATOM     48  C   UNL A   1      41.388 -22.470 -38.640  0.00  0.00    -0.049 C 
ATOM     49  C   UNL A   1      41.575 -22.199 -37.148  0.00  0.00    -0.024 C 
ENDBRANCH  34  36
ENDBRANCH  33  34
ENDBRANCH  32  33
ENDBRANCH  31  32
ENDBRANCH  30  31
ENDBRANCH  29  30
ENDBRANCH  28  29
ENDBRANCH   3  28
TORSDOF 15
ENDMDL
MODEL 11
REMARK VINA RESULT:    -5.983      2.029      4.122
REMARK INTER + INTRA:         -17.069
REMARK INTER:                 -11.930
REMARK INTRA:                  -5.139
REMARK UNBOUND:                -5.839
REMARK  Name = cpd36.pdb
REMARK  17 active torsions:
REMARK  status: ('A' for Active; 'I' for Inactive)
REMARK    1  A    between atoms: C_1  and  C_2
REMARK    2  A    between atoms: C_6  and  N_7
REMARK    3  A    between atoms: N_7  and  C_8
REMARK    4  A    between atoms: C_13  and  C_14
REMARK    5  A    between atoms: N_16  and  C_17
REMARK    6  A    between atoms: C_17  and  C_18
REMARK    7  A    between atoms: C_18  and  C_19
REMARK    8  A    between atoms: C_19  and  C_20
REMARK    9  A    between atoms: N_22  and  C_23
REMARK   10  A    between atoms: C_23  and  C_24
REMARK   11  A    between atoms: C_24  and  C_25
REMARK   12  A    between atoms: C_25  and  C_26
REMARK   13  A    between atoms: C_26  and  C_27
REMARK   14  A    between atoms: C_27  and  C_28
REMARK   15  A    between atoms: C_28  and  N_29
REMARK   16  A    between atoms: N_29  and  C_30
REMARK   17  A    between atoms: C_44  and  C_45
REMARK                            x       y       z     vdW  Elec       q    Type
REMARK                         _______ _______ _______ _____ _____    ______ ____
ROOT
ATOM      1  C   UNL A   1      41.262 -16.444 -38.717  0.00  0.00    +0.213 C 
ATOM      2  O   UNL A   1      40.521 -15.844 -39.487  0.00  0.00    -0.276 OA
ATOM      3  N   UNL A   1      40.845 -16.985 -37.523  0.00  0.00    -0.315 N 
ATOM      4  H   UNL A   1      41.505 -17.437 -36.948  0.00  0.00    +0.000 HD
ENDROOT
BRANCH   1   5
ATOM      5  C   UNL A   1      42.727 -16.669 -39.026  0.00  0.00    +0.025 C 
BRANCH   5   6
ATOM      6  C   UNL A   1      43.149 -16.002 -40.334  0.00  0.00    -0.029 C 
BRANCH   6   7
ATOM      7  C   UNL A   1      44.454 -15.218 -40.198  0.00  0.00    +0.012 C 
BRANCH   7  10
ATOM      8  C   UNL A   1      46.497 -16.713 -40.446  0.00  0.00    +0.246 C 
ATOM      9  O   UNL A   1      47.172 -17.376 -41.227  0.00  0.00    -0.270 OA
ATOM     10  N   UNL A   1      45.559 -15.829 -40.921  0.00  0.00    -0.311 N 
ATOM     11  H   UNL A   1      45.645 -15.578 -41.869  0.00  0.00    +0.000 HD
BRANCH   8  17
ATOM     12  C   UNL A   1      46.093 -17.955 -38.286  0.00  0.00    +0.044 A 
ATOM     13  C   UNL A   1      46.361 -18.042 -36.909  0.00  0.00    -0.040 A 
ATOM     14  C   UNL A   1      47.105 -17.058 -36.248  0.00  0.00    -0.060 A 
ATOM     15  C   UNL A   1      47.611 -15.971 -36.955  0.00  0.00    -0.061 A 
ATOM     16  C   UNL A   1      47.397 -15.882 -38.327  0.00  0.00    -0.048 A 
ATOM     17  C   UNL A   1      46.677 -16.886 -38.992  0.00  0.00    +0.058 A 
BRANCH  12  18
ATOM     18  N   UNL A   1      45.353 -18.976 -38.938  0.00  0.00    -0.314 N 
ATOM     19  H   UNL A   1      44.373 -18.889 -38.914  0.00  0.00    +0.000 HD
BRANCH  18  25
ATOM     20  C   UNL A   1      45.245 -22.098 -42.846  0.00  0.00    -0.039 C 
ATOM     21  C   UNL A   1      45.769 -21.668 -41.503  0.00  0.00    -0.046 A 
ATOM     22  C   UNL A   1      46.713 -22.483 -40.857  0.00  0.00    -0.058 A 
ATOM     23  C   UNL A   1      47.211 -22.139 -39.605  0.00  0.00    -0.060 A 
ATOM     24  C   UNL A   1      46.780 -20.970 -38.985  0.00  0.00    -0.040 A 
ATOM     25  C   UNL A   1      45.872 -20.109 -39.620  0.00  0.00    +0.035 A 
ATOM     26  C   UNL A   1      45.353 -20.463 -40.889  0.00  0.00    -0.026 A 
ATOM     27  C   UNL A   1      44.329 -19.576 -41.554  0.00  0.00    -0.038 C 
ENDBRANCH  18  25
ENDBRANCH  12  18
ENDBRANCH   8  17
ENDBRANCH   7  10
ENDBRANCH   6   7
ENDBRANCH   5   6
ENDBRANCH   1   5
BRANCH   3  28
ATOM     28  C   UNL A   1      39.467 -16.910 -37.084  0.00  0.00    +0.012 C 
BRANCH  28  29
ATOM     29  C   UNL A   1      39.116 -18.012 -36.084  0.00  0.00    -0.037 C 
BRANCH  29  30
ATOM     30  C   UNL A   1      38.319 -19.130 -36.760  0.00  0.00    -0.052 C 
BRANCH  30  31
ATOM     31  C   UNL A   1      37.612 -20.057 -35.766  0.00  0.00    -0.052 C 
BRANCH  31  32
ATOM     32  C   UNL A   1      38.546 -20.582 -34.673  0.00  0.00    -0.037 C 
BRANCH  32  33
ATOM     33  C   UNL A   1      38.919 -22.046 -34.915  0.00  0.00    +0.009 C 
BRANCH  33  34
ATOM     34  N   UNL A   1      40.367 -22.209 -34.719  0.00  0.00    -0.343 N 
ATOM     35  H   UNL A   1      40.772 -22.891 -34.137  0.00  0.00    +0.000 HD
BRANCH  34  36
ATOM     36  C   UNL A   1      41.114 -21.256 -35.476  0.00  0.00    +0.041 A 
ATOM     37  C   UNL A   1      41.826 -20.222 -34.831  0.00  0.00    -0.005 A 
ATOM     38  C   UNL A   1      42.581 -19.362 -35.634  0.00  0.00    +0.047 A 
ATOM     39  N   UNL A   1      42.697 -19.506 -36.976  0.00  0.00    -0.251 NA
ATOM     40  C   UNL A   1      42.030 -20.495 -37.584  0.00  0.00    +0.073 A 
ATOM     41  C   UNL A   1      42.146 -20.617 -38.963  0.00  0.00    -0.036 A 
ATOM     42  C   UNL A   1      41.472 -21.609 -39.678  0.00  0.00    -0.060 A 
ATOM     43  C   UNL A   1      40.653 -22.503 -39.004  0.00  0.00    -0.061 A 
ATOM     44  C   UNL A   1      40.525 -22.401 -37.620  0.00  0.00    -0.051 A 
ATOM     45  C   UNL A   1      41.216 -21.407 -36.886  0.00  0.00    +0.021 A 
ATOM     46  C   UNL A   1      43.387 -18.231 -35.047  0.00  0.00    -0.010 C 
ATOM     47  C   UNL A   1      42.923 -17.816 -33.658  0.00  0.00    -0.047 C 
ATOM     48  C   UNL A   1      42.781 -19.047 -32.776  0.00  0.00    -0.049 C 
ATOM     49  C   UNL A   1      41.720 -19.990 -33.342  0.00  0.00    -0.024 C 
ENDBRANCH  34  36
ENDBRANCH  33  34
ENDBRANCH  32  33
ENDBRANCH  31  32
ENDBRANCH  30  31
ENDBRANCH  29  30
ENDBRANCH  28  29
ENDBRANCH   3  28
TORSDOF 15
ENDMDL
MODEL 12
REMARK VINA RESULT:    -5.895      2.211      4.566
REMARK INTER + INTRA:         -16.904
REMARK INTER:                 -12.246
REMARK INTRA:                  -4.657
REMARK UNBOUND:                -5.839
REMARK  Name = cpd36.pdb
REMARK  17 active torsions:
REMARK  status: ('A' for Active; 'I' for Inactive)
REMARK    1  A    between atoms: C_1  and  C_2
REMARK    2  A    between atoms: C_6  and  N_7
REMARK    3  A    between atoms: N_7  and  C_8
REMARK    4  A    between atoms: C_13  and  C_14
REMARK    5  A    between atoms: N_16  and  C_17
REMARK    6  A    between atoms: C_17  and  C_18
REMARK    7  A    between atoms: C_18  and  C_19
REMARK    8  A    between atoms: C_19  and  C_20
REMARK    9  A    between atoms: N_22  and  C_23
REMARK   10  A    between atoms: C_23  and  C_24
REMARK   11  A    between atoms: C_24  and  C_25
REMARK   12  A    between atoms: C_25  and  C_26
REMARK   13  A    between atoms: C_26  and  C_27
REMARK   14  A    between atoms: C_27  and  C_28
REMARK   15  A    between atoms: C_28  and  N_29
REMARK   16  A    between atoms: N_29  and  C_30
REMARK   17  A    between atoms: C_44  and  C_45
REMARK                            x       y       z     vdW  Elec       q    Type
REMARK                         _______ _______ _______ _____ _____    ______ ____
ROOT
ATOM      1  C   UNL A   1      42.128 -17.983 -37.848  0.00  0.00    +0.213 C 
ATOM      2  O   UNL A   1      42.747 -17.777 -38.887  0.00  0.00    -0.276 OA
ATOM      3  N   UNL A   1      41.199 -18.987 -37.701  0.00  0.00    -0.315 N 
ATOM      4  H   UNL A   1      40.730 -19.080 -36.840  0.00  0.00    +0.000 HD
ENDROOT
BRANCH   1   5
ATOM      5  C   UNL A   1      42.352 -17.153 -36.603  0.00  0.00    +0.025 C 
BRANCH   5   6
ATOM      6  C   UNL A   1      42.870 -15.753 -36.928  0.00  0.00    -0.029 C 
BRANCH   6   7
ATOM      7  C   UNL A   1      44.359 -15.593 -36.624  0.00  0.00    +0.012 C 
BRANCH   7  10
ATOM      8  C   UNL A   1      45.865 -17.057 -38.057  0.00  0.00    +0.246 C 
ATOM      9  O   UNL A   1      46.283 -17.269 -39.192  0.00  0.00    -0.270 OA
ATOM     10  N   UNL A   1      45.205 -15.888 -37.771  0.00  0.00    -0.311 N 
ATOM     11  H   UNL A   1      45.318 -15.159 -38.423  0.00  0.00    +0.000 HD
BRANCH   8  17
ATOM     12  C   UNL A   1      45.646 -19.413 -37.176  0.00  0.00    +0.044 A 
ATOM     13  C   UNL A   1      45.905 -20.305 -36.122  0.00  0.00    -0.040 A 
ATOM     14  C   UNL A   1      46.465 -19.867 -34.917  0.00  0.00    -0.060 A 
ATOM     15  C   UNL A   1      46.792 -18.525 -34.745  0.00  0.00    -0.061 A 
ATOM     16  C   UNL A   1      46.585 -17.626 -35.788  0.00  0.00    -0.048 A 
ATOM     17  C   UNL A   1      46.052 -18.076 -37.006  0.00  0.00    +0.058 A 
BRANCH  12  18
ATOM     18  N   UNL A   1      45.096 -19.886 -38.396  0.00  0.00    -0.314 N 
ATOM     19  H   UNL A   1      44.167 -19.623 -38.589  0.00  0.00    +0.000 HD
BRANCH  18  25
ATOM     20  C   UNL A   1      45.090 -22.062 -42.902  0.00  0.00    -0.039 C 
ATOM     21  C   UNL A   1      45.699 -21.808 -41.549  0.00  0.00    -0.046 A 
ATOM     22  C   UNL A   1      46.875 -22.491 -41.202  0.00  0.00    -0.058 A 
ATOM     23  C   UNL A   1      47.464 -22.307 -39.956  0.00  0.00    -0.060 A 
ATOM     24  C   UNL A   1      46.889 -21.429 -39.041  0.00  0.00    -0.040 A 
ATOM     25  C   UNL A   1      45.739 -20.696 -39.371  0.00  0.00    +0.035 A 
ATOM     26  C   UNL A   1      45.130 -20.891 -40.633  0.00  0.00    -0.026 A 
ATOM     27  C   UNL A   1      43.858 -20.154 -40.975  0.00  0.00    -0.038 C 
ENDBRANCH  18  25
ENDBRANCH  12  18
ENDBRANCH   8  17
ENDBRANCH   7  10
ENDBRANCH   6   7
ENDBRANCH   5   6
ENDBRANCH   1   5
BRANCH   3  28
ATOM     28  C   UNL A   1      40.890 -19.912 -38.772  0.00  0.00    +0.012 C 
BRANCH  28  29
ATOM     29  C   UNL A   1      39.646 -20.749 -38.474  0.00  0.00    -0.037 C 
BRANCH  29  30
ATOM     30  C   UNL A   1      39.433 -20.895 -36.966  0.00  0.00    -0.052 C 
BRANCH  30  31
ATOM     31  C   UNL A   1      39.283 -22.351 -36.513  0.00  0.00    -0.052 C 
BRANCH  31  32
ATOM     32  C   UNL A   1      40.390 -22.794 -35.554  0.00  0.00    -0.037 C 
BRANCH  32  33
ATOM     33  C   UNL A   1      41.232 -21.605 -35.086  0.00  0.00    +0.009 C 
BRANCH  33  34
ATOM     34  N   UNL A   1      41.014 -21.403 -33.647  0.00  0.00    -0.343 N 
ATOM     35  H   UNL A   1      41.215 -22.078 -32.958  0.00  0.00    +0.000 HD
BRANCH  34  36
ATOM     36  C   UNL A   1      40.476 -20.111 -33.369  0.00  0.00    +0.041 A 
ATOM     37  C   UNL A   1      39.093 -19.939 -33.145  0.00  0.00    -0.005 A 
ATOM     38  C   UNL A   1      38.647 -18.654 -32.821  0.00  0.00    +0.047 A 
ATOM     39  N   UNL A   1      39.477 -17.595 -32.667  0.00  0.00    -0.251 NA
ATOM     40  C   UNL A   1      40.791 -17.763 -32.869  0.00  0.00    +0.073 A 
ATOM     41  C   UNL A   1      41.625 -16.662 -32.724  0.00  0.00    -0.036 A 
ATOM     42  C   UNL A   1      43.004 -16.745 -32.931  0.00  0.00    -0.060 A 
ATOM     43  C   UNL A   1      43.569 -17.956 -33.299  0.00  0.00    -0.061 A 
ATOM     44  C   UNL A   1      42.751 -19.075 -33.447  0.00  0.00    -0.051 A 
ATOM     45  C   UNL A   1      41.354 -19.002 -33.225  0.00  0.00    +0.021 A 
ATOM     46  C   UNL A   1      37.193 -18.362 -32.553  0.00  0.00    -0.010 C 
ATOM     47  C   UNL A   1      36.249 -19.405 -33.136  0.00  0.00    -0.047 C 
ATOM     48  C   UNL A   1      36.722 -20.797 -32.747  0.00  0.00    -0.049 C 
ATOM     49  C   UNL A   1      38.109 -21.071 -33.325  0.00  0.00    -0.024 C 
ENDBRANCH  34  36
ENDBRANCH  33  34
ENDBRANCH  32  33
ENDBRANCH  31  32
ENDBRANCH  30  31
ENDBRANCH  29  30
ENDBRANCH  28  29
ENDBRANCH   3  28
TORSDOF 15
ENDMDL
MODEL 13
REMARK VINA RESULT:    -5.848      2.153      4.649
REMARK INTER + INTRA:         -16.815
REMARK INTER:                 -11.655
REMARK INTRA:                  -5.160
REMARK UNBOUND:                -5.839
REMARK  Name = cpd36.pdb
REMARK  17 active torsions:
REMARK  status: ('A' for Active; 'I' for Inactive)
REMARK    1  A    between atoms: C_1  and  C_2
REMARK    2  A    between atoms: C_6  and  N_7
REMARK    3  A    between atoms: N_7  and  C_8
REMARK    4  A    between atoms: C_13  and  C_14
REMARK    5  A    between atoms: N_16  and  C_17
REMARK    6  A    between atoms: C_17  and  C_18
REMARK    7  A    between atoms: C_18  and  C_19
REMARK    8  A    between atoms: C_19  and  C_20
REMARK    9  A    between atoms: N_22  and  C_23
REMARK   10  A    between atoms: C_23  and  C_24
REMARK   11  A    between atoms: C_24  and  C_25
REMARK   12  A    between atoms: C_25  and  C_26
REMARK   13  A    between atoms: C_26  and  C_27
REMARK   14  A    between atoms: C_27  and  C_28
REMARK   15  A    between atoms: C_28  and  N_29
REMARK   16  A    between atoms: N_29  and  C_30
REMARK   17  A    between atoms: C_44  and  C_45
REMARK                            x       y       z     vdW  Elec       q    Type
REMARK                         _______ _______ _______ _____ _____    ______ ____
ROOT
ATOM      1  C   UNL A   1      45.263 -16.323 -38.215  0.00  0.00    +0.213 C 
ATOM      2  O   UNL A   1      44.283 -15.600 -38.071  0.00  0.00    -0.276 OA
ATOM      3  N   UNL A   1      45.596 -17.338 -37.348  0.00  0.00    -0.315 N 
ATOM      4  H   UNL A   1      46.410 -17.864 -37.521  0.00  0.00    +0.000 HD
ENDROOT
BRANCH   1   5
ATOM      5  C   UNL A   1      46.200 -16.177 -39.395  0.00  0.00    +0.025 C 
BRANCH   5   6
ATOM      6  C   UNL A   1      45.890 -17.181 -40.505  0.00  0.00    -0.029 C 
BRANCH   6   7
ATOM      7  C   UNL A   1      47.045 -18.148 -40.760  0.00  0.00    +0.012 C 
BRANCH   7  10
ATOM      8  C   UNL A   1      46.715 -20.426 -39.679  0.00  0.00    +0.246 C 
ATOM      9  O   UNL A   1      47.170 -21.239 -38.881  0.00  0.00    -0.270 OA
ATOM     10  N   UNL A   1      47.196 -19.140 -39.707  0.00  0.00    -0.311 N 
ATOM     11  H   UNL A   1      47.706 -18.855 -38.915  0.00  0.00    +0.000 HD
BRANCH   8  17
ATOM     12  C   UNL A   1      44.294 -20.668 -40.355  0.00  0.00    +0.044 A 
ATOM     13  C   UNL A   1      43.382 -21.068 -41.346  0.00  0.00    -0.040 A 
ATOM     14  C   UNL A   1      43.812 -21.692 -42.522  0.00  0.00    -0.060 A 
ATOM     15  C   UNL A   1      45.168 -21.919 -42.739  0.00  0.00    -0.061 A 
ATOM     16  C   UNL A   1      46.097 -21.495 -41.793  0.00  0.00    -0.048 A 
ATOM     17  C   UNL A   1      45.664 -20.841 -40.629  0.00  0.00    +0.058 A 
BRANCH  12  18
ATOM     18  N   UNL A   1      43.836 -20.018 -39.179  0.00  0.00    -0.314 N 
ATOM     19  H   UNL A   1      44.505 -19.865 -38.474  0.00  0.00    +0.000 HD
BRANCH  18  25
ATOM     20  C   UNL A   1      39.124 -20.980 -37.797  0.00  0.00    -0.039 C 
ATOM     21  C   UNL A   1      40.200 -20.052 -38.295  0.00  0.00    -0.046 A 
ATOM     22  C   UNL A   1      39.854 -18.730 -38.613  0.00  0.00    -0.058 A 
ATOM     23  C   UNL A   1      40.809 -17.841 -39.095  0.00  0.00    -0.060 A 
ATOM     24  C   UNL A   1      42.126 -18.261 -39.259  0.00  0.00    -0.040 A 
ATOM     25  C   UNL A   1      42.517 -19.563 -38.909  0.00  0.00    +0.035 A 
ATOM     26  C   UNL A   1      41.545 -20.473 -38.429  0.00  0.00    -0.026 A 
ATOM     27  C   UNL A   1      41.941 -21.894 -38.108  0.00  0.00    -0.038 C 
ENDBRANCH  18  25
ENDBRANCH  12  18
ENDBRANCH   8  17
ENDBRANCH   7  10
ENDBRANCH   6   7
ENDBRANCH   5   6
ENDBRANCH   1   5
BRANCH   3  28
ATOM     28  C   UNL A   1      44.788 -17.655 -36.189  0.00  0.00    +0.012 C 
BRANCH  28  29
ATOM     29  C   UNL A   1      45.260 -16.921 -34.934  0.00  0.00    -0.037 C 
BRANCH  29  30
ATOM     30  C   UNL A   1      44.113 -16.133 -34.297  0.00  0.00    -0.052 C 
BRANCH  30  31
ATOM     31  C   UNL A   1      43.693 -16.674 -32.927  0.00  0.00    -0.052 C 
BRANCH  31  32
ATOM     32  C   UNL A   1      44.004 -18.163 -32.753  0.00  0.00    -0.037 C 
BRANCH  32  33
ATOM     33  C   UNL A   1      42.723 -19.001 -32.737  0.00  0.00    +0.009 C 
BRANCH  33  34
ATOM     34  N   UNL A   1      42.428 -19.448 -34.105  0.00  0.00    -0.343 N 
ATOM     35  H   UNL A   1      43.113 -19.609 -34.794  0.00  0.00    +0.000 HD
BRANCH  34  36
ATOM     36  C   UNL A   1      41.026 -19.619 -34.316  0.00  0.00    +0.041 A 
ATOM     37  C   UNL A   1      40.378 -20.808 -33.919  0.00  0.00    -0.005 A 
ATOM     38  C   UNL A   1      38.994 -20.881 -34.105  0.00  0.00    +0.047 A 
ATOM     39  N   UNL A   1      38.254 -19.857 -34.594  0.00  0.00    -0.251 NA
ATOM     40  C   UNL A   1      38.870 -18.725 -34.958  0.00  0.00    +0.073 A 
ATOM     41  C   UNL A   1      38.098 -17.692 -35.474  0.00  0.00    -0.036 A 
ATOM     42  C   UNL A   1      38.661 -16.484 -35.893  0.00  0.00    -0.060 A 
ATOM     43  C   UNL A   1      40.032 -16.300 -35.803  0.00  0.00    -0.061 A 
ATOM     44  C   UNL A   1      40.826 -17.322 -35.285  0.00  0.00    -0.051 A 
ATOM     45  C   UNL A   1      40.261 -18.544 -34.844  0.00  0.00    +0.021 A 
ATOM     46  C   UNL A   1      38.202 -22.100 -33.708  0.00  0.00    -0.010 C 
ATOM     47  C   UNL A   1      39.051 -23.358 -33.580  0.00  0.00    -0.047 C 
ATOM     48  C   UNL A   1      40.276 -23.063 -32.728  0.00  0.00    -0.049 C 
ATOM     49  C   UNL A   1      41.146 -21.997 -33.392  0.00  0.00    -0.024 C 
ENDBRANCH  34  36
ENDBRANCH  33  34
ENDBRANCH  32  33
ENDBRANCH  31  32
ENDBRANCH  30  31
ENDBRANCH  29  30
ENDBRANCH  28  29
ENDBRANCH   3  28
TORSDOF 15
ENDMDL
MODEL 14
REMARK VINA RESULT:    -5.813      2.207      4.730
REMARK INTER + INTRA:         -16.749
REMARK INTER:                 -12.602
REMARK INTRA:                  -4.147
REMARK UNBOUND:                -5.839
REMARK  Name = cpd36.pdb
REMARK  17 active torsions:
REMARK  status: ('A' for Active; 'I' for Inactive)
REMARK    1  A    between atoms: C_1  and  C_2
REMARK    2  A    between atoms: C_6  and  N_7
REMARK    3  A    between atoms: N_7  and  C_8
REMARK    4  A    between atoms: C_13  and  C_14
REMARK    5  A    between atoms: N_16  and  C_17
REMARK    6  A    between atoms: C_17  and  C_18
REMARK    7  A    between atoms: C_18  and  C_19
REMARK    8  A    between atoms: C_19  and  C_20
REMARK    9  A    between atoms: N_22  and  C_23
REMARK   10  A    between atoms: C_23  and  C_24
REMARK   11  A    between atoms: C_24  and  C_25
REMARK   12  A    between atoms: C_25  and  C_26
REMARK   13  A    between atoms: C_26  and  C_27
REMARK   14  A    between atoms: C_27  and  C_28
REMARK   15  A    between atoms: C_28  and  N_29
REMARK   16  A    between atoms: N_29  and  C_30
REMARK   17  A    between atoms: C_44  and  C_45
REMARK                            x       y       z     vdW  Elec       q    Type
REMARK                         _______ _______ _______ _____ _____    ______ ____
ROOT
ATOM      1  C   UNL A   1      44.609 -17.918 -33.479  0.00  0.00    +0.213 C 
ATOM      2  O   UNL A   1      45.301 -18.120 -32.488  0.00  0.00    -0.276 OA
ATOM      3  N   UNL A   1      43.723 -16.871 -33.590  0.00  0.00    -0.315 N 
ATOM      4  H   UNL A   1      43.188 -16.784 -34.412  0.00  0.00    +0.000 HD
ENDROOT
BRANCH   1   5
ATOM      5  C   UNL A   1      44.684 -18.803 -34.704  0.00  0.00    +0.025 C 
BRANCH   5   6
ATOM      6  C   UNL A   1      46.098 -18.871 -35.281  0.00  0.00    -0.029 C 
BRANCH   6   7
ATOM      7  C   UNL A   1      46.329 -17.845 -36.389  0.00  0.00    +0.012 C 
BRANCH   7  10
ATOM      8  C   UNL A   1      44.868 -16.539 -38.010  0.00  0.00    +0.246 C 
ATOM      9  O   UNL A   1      43.719 -16.321 -38.381  0.00  0.00    -0.270 OA
ATOM     10  N   UNL A   1      45.100 -17.204 -36.832  0.00  0.00    -0.311 N 
ATOM     11  H   UNL A   1      44.339 -17.253 -36.208  0.00  0.00    +0.000 HD
BRANCH   8  17
ATOM     12  C   UNL A   1      46.295 -16.712 -40.086  0.00  0.00    +0.044 A 
ATOM     13  C   UNL A   1      47.378 -16.196 -40.817  0.00  0.00    -0.040 A 
ATOM     14  C   UNL A   1      48.188 -15.180 -40.300  0.00  0.00    -0.060 A 
ATOM     15  C   UNL A   1      47.924 -14.646 -39.042  0.00  0.00    -0.061 A 
ATOM     16  C   UNL A   1      46.831 -15.109 -38.313  0.00  0.00    -0.048 A 
ATOM     17  C   UNL A   1      46.002 -16.107 -38.849  0.00  0.00    +0.058 A 
BRANCH  12  18
ATOM     18  N   UNL A   1      45.475 -17.729 -40.641  0.00  0.00    -0.314 N 
ATOM     19  H   UNL A   1      44.650 -17.431 -41.088  0.00  0.00    +0.000 HD
BRANCH  18  25
ATOM     20  C   UNL A   1      44.689 -22.280 -42.567  0.00  0.00    -0.039 C 
ATOM     21  C   UNL A   1      45.273 -21.358 -41.530  0.00  0.00    -0.046 A 
ATOM     22  C   UNL A   1      45.971 -21.918 -40.449  0.00  0.00    -0.058 A 
ATOM     23  C   UNL A   1      46.511 -21.109 -39.455  0.00  0.00    -0.060 A 
ATOM     24  C   UNL A   1      46.367 -19.727 -39.533  0.00  0.00    -0.040 A 
ATOM     25  C   UNL A   1      45.714 -19.130 -40.622  0.00  0.00    +0.035 A 
ATOM     26  C   UNL A   1      45.152 -19.951 -41.629  0.00  0.00    -0.026 A 
ATOM     27  C   UNL A   1      44.394 -19.323 -42.773  0.00  0.00    -0.038 C 
ENDBRANCH  18  25
ENDBRANCH  12  18
ENDBRANCH   8  17
ENDBRANCH   7  10
ENDBRANCH   6   7
ENDBRANCH   5   6
ENDBRANCH   1   5
BRANCH   3  28
ATOM     28  C   UNL A   1      43.552 -15.893 -32.535  0.00  0.00    +0.012 C 
BRANCH  28  29
ATOM     29  C   UNL A   1      42.126 -15.347 -32.476  0.00  0.00    -0.037 C 
BRANCH  29  30
ATOM     30  C   UNL A   1      41.163 -16.245 -33.255  0.00  0.00    -0.052 C 
BRANCH  30  31
ATOM     31  C   UNL A   1      40.243 -17.074 -32.354  0.00  0.00    -0.052 C 
BRANCH  31  32
ATOM     32  C   UNL A   1      40.373 -18.580 -32.593  0.00  0.00    -0.037 C 
BRANCH  32  33
ATOM     33  C   UNL A   1      41.031 -18.876 -33.943  0.00  0.00    +0.009 C 
BRANCH  33  34
ATOM     34  N   UNL A   1      39.982 -19.063 -34.955  0.00  0.00    -0.343 N 
ATOM     35  H   UNL A   1      39.281 -18.399 -35.153  0.00  0.00    +0.000 HD
BRANCH  34  36
ATOM     36  C   UNL A   1      40.101 -20.322 -35.616  0.00  0.00    +0.041 A 
ATOM     37  C   UNL A   1      40.980 -20.481 -36.709  0.00  0.00    -0.005 A 
ATOM     38  C   UNL A   1      41.086 -21.757 -37.270  0.00  0.00    +0.047 A 
ATOM     39  N   UNL A   1      40.433 -22.840 -36.786  0.00  0.00    -0.251 NA
ATOM     40  C   UNL A   1      39.609 -22.689 -35.740  0.00  0.00    +0.073 A 
ATOM     41  C   UNL A   1      38.932 -23.807 -35.268  0.00  0.00    -0.036 A 
ATOM     42  C   UNL A   1      38.043 -23.735 -34.194  0.00  0.00    -0.060 A 
ATOM     43  C   UNL A   1      37.813 -22.515 -33.575  0.00  0.00    -0.061 A 
ATOM     44  C   UNL A   1      38.484 -21.382 -34.030  0.00  0.00    -0.051 A 
ATOM     45  C   UNL A   1      39.398 -21.449 -35.109  0.00  0.00    +0.021 A 
ATOM     46  C   UNL A   1      42.002 -22.040 -38.434  0.00  0.00    -0.010 C 
ATOM     47  C   UNL A   1      42.378 -20.794 -39.223  0.00  0.00    -0.047 C 
ATOM     48  C   UNL A   1      42.845 -19.705 -38.269  0.00  0.00    -0.049 C 
ATOM     49  C   UNL A   1      41.719 -19.311 -37.315  0.00  0.00    -0.024 C 
ENDBRANCH  34  36
ENDBRANCH  33  34
ENDBRANCH  32  33
ENDBRANCH  31  32
ENDBRANCH  30  31
ENDBRANCH  29  30
ENDBRANCH  28  29
ENDBRANCH   3  28
TORSDOF 15
ENDMDL
MODEL 15
REMARK VINA RESULT:    -5.778      1.985      4.190
REMARK INTER + INTRA:         -16.684
REMARK INTER:                 -11.622
REMARK INTRA:                  -5.062
REMARK UNBOUND:                -5.839
REMARK  Name = cpd36.pdb
REMARK  17 active torsions:
REMARK  status: ('A' for Active; 'I' for Inactive)
REMARK    1  A    between atoms: C_1  and  C_2
REMARK    2  A    between atoms: C_6  and  N_7
REMARK    3  A    between atoms: N_7  and  C_8
REMARK    4  A    between atoms: C_13  and  C_14
REMARK    5  A    between atoms: N_16  and  C_17
REMARK    6  A    between atoms: C_17  and  C_18
REMARK    7  A    between atoms: C_18  and  C_19
REMARK    8  A    between atoms: C_19  and  C_20
REMARK    9  A    between atoms: N_22  and  C_23
REMARK   10  A    between atoms: C_23  and  C_24
REMARK   11  A    between atoms: C_24  and  C_25
REMARK   12  A    between atoms: C_25  and  C_26
REMARK   13  A    between atoms: C_26  and  C_27
REMARK   14  A    between atoms: C_27  and  C_28
REMARK   15  A    between atoms: C_28  and  N_29
REMARK   16  A    between atoms: N_29  and  C_30
REMARK   17  A    between atoms: C_44  and  C_45
REMARK                            x       y       z     vdW  Elec       q    Type
REMARK                         _______ _______ _______ _____ _____    ______ ____
ROOT
ATOM      1  C   UNL A   1      45.758 -17.387 -35.410  0.00  0.00    +0.213 C 
ATOM      2  O   UNL A   1      44.775 -17.050 -36.060  0.00  0.00    -0.276 OA
ATOM      3  N   UNL A   1      45.701 -17.801 -34.099  0.00  0.00    -0.315 N 
ATOM      4  H   UNL A   1      46.538 -18.040 -33.638  0.00  0.00    +0.000 HD
ENDROOT
BRANCH   1   5
ATOM      5  C   UNL A   1      47.148 -17.402 -36.009  0.00  0.00    +0.025 C 
BRANCH   5   6
ATOM      6  C   UNL A   1      47.135 -17.780 -37.489  0.00  0.00    -0.029 C 
BRANCH   6   7
ATOM      7  C   UNL A   1      46.968 -19.284 -37.709  0.00  0.00    +0.012 C 
BRANCH   7  10
ATOM      8  C   UNL A   1      44.652 -20.328 -37.822  0.00  0.00    +0.246 C 
ATOM      9  O   UNL A   1      43.819 -21.001 -37.224  0.00  0.00    -0.270 OA
ATOM     10  N   UNL A   1      45.728 -19.802 -37.152  0.00  0.00    -0.311 N 
ATOM     11  H   UNL A   1      45.651 -19.773 -36.170  0.00  0.00    +0.000 HD
BRANCH   8  17
ATOM     12  C   UNL A   1      44.047 -18.887 -39.805  0.00  0.00    +0.044 A 
ATOM     13  C   UNL A   1      43.983 -18.775 -41.204  0.00  0.00    -0.040 A 
ATOM     14  C   UNL A   1      44.283 -19.859 -42.037  0.00  0.00    -0.060 A 
ATOM     15  C   UNL A   1      44.667 -21.079 -41.486  0.00  0.00    -0.061 A 
ATOM     16  C   UNL A   1      44.780 -21.206 -40.104  0.00  0.00    -0.048 A 
ATOM     17  C   UNL A   1      44.509 -20.107 -39.274  0.00  0.00    +0.058 A 
BRANCH  12  18
ATOM     18  N   UNL A   1      43.758 -17.767 -38.983  0.00  0.00    -0.314 N 
ATOM     19  H   UNL A   1      43.578 -17.955 -38.034  0.00  0.00    +0.000 HD
BRANCH  18  25
ATOM     20  C   UNL A   1      41.153 -13.883 -40.762  0.00  0.00    -0.039 C 
ATOM     21  C   UNL A   1      42.436 -14.528 -40.309  0.00  0.00    -0.046 A 
ATOM     22  C   UNL A   1      43.627 -13.791 -40.398  0.00  0.00    -0.058 A 
ATOM     23  C   UNL A   1      44.840 -14.350 -40.011  0.00  0.00    -0.060 A 
ATOM     24  C   UNL A   1      44.878 -15.653 -39.523  0.00  0.00    -0.040 A 
ATOM     25  C   UNL A   1      43.701 -16.403 -39.379  0.00  0.00    +0.035 A 
ATOM     26  C   UNL A   1      42.466 -15.841 -39.783  0.00  0.00    -0.026 A 
ATOM     27  C   UNL A   1      41.202 -16.662 -39.690  0.00  0.00    -0.038 C 
ENDBRANCH  18  25
ENDBRANCH  12  18
ENDBRANCH   8  17
ENDBRANCH   7  10
ENDBRANCH   6   7
ENDBRANCH   5   6
ENDBRANCH   1   5
BRANCH   3  28
ATOM     28  C   UNL A   1      44.449 -17.897 -33.377  0.00  0.00    +0.012 C 
BRANCH  28  29
ATOM     29  C   UNL A   1      44.080 -16.587 -32.681  0.00  0.00    -0.037 C 
BRANCH  29  30
ATOM     30  C   UNL A   1      42.819 -15.976 -33.298  0.00  0.00    -0.052 C 
BRANCH  30  31
ATOM     31  C   UNL A   1      41.748 -17.015 -33.643  0.00  0.00    -0.052 C 
BRANCH  31  32
ATOM     32  C   UNL A   1      41.133 -16.801 -35.028  0.00  0.00    -0.037 C 
BRANCH  32  33
ATOM     33  C   UNL A   1      41.377 -18.006 -35.939  0.00  0.00    +0.009 C 
BRANCH  33  34
ATOM     34  N   UNL A   1      40.124 -18.759 -36.082  0.00  0.00    -0.343 N 
ATOM     35  H   UNL A   1      39.234 -18.342 -36.151  0.00  0.00    +0.000 HD
BRANCH  34  36
ATOM     36  C   UNL A   1      40.352 -20.168 -36.107  0.00  0.00    +0.041 A 
ATOM     37  C   UNL A   1      40.250 -20.936 -34.927  0.00  0.00    -0.005 A 
ATOM     38  C   UNL A   1      40.431 -22.317 -35.040  0.00  0.00    +0.047 A 
ATOM     39  N   UNL A   1      40.645 -22.947 -36.220  0.00  0.00    -0.251 NA
ATOM     40  C   UNL A   1      40.729 -22.217 -37.340  0.00  0.00    +0.073 A 
ATOM     41  C   UNL A   1      40.967 -22.877 -38.539  0.00  0.00    -0.036 A 
ATOM     42  C   UNL A   1      41.085 -22.192 -39.751  0.00  0.00    -0.060 A 
ATOM     43  C   UNL A   1      40.969 -20.810 -39.771  0.00  0.00    -0.061 A 
ATOM     44  C   UNL A   1      40.727 -20.128 -38.580  0.00  0.00    -0.051 A 
ATOM     45  C   UNL A   1      40.592 -20.816 -37.349  0.00  0.00    +0.021 A 
ATOM     46  C   UNL A   1      40.334 -23.231 -33.845  0.00  0.00    -0.010 C 
ATOM     47  C   UNL A   1      40.529 -22.512 -32.517  0.00  0.00    -0.047 C 
ATOM     48  C   UNL A   1      39.646 -21.275 -32.471  0.00  0.00    -0.049 C 
ATOM     49  C   UNL A   1      40.039 -20.296 -33.575  0.00  0.00    -0.024 C 
ENDBRANCH  34  36
ENDBRANCH  33  34
ENDBRANCH  32  33
ENDBRANCH  31  32
ENDBRANCH  30  31
ENDBRANCH  29  30
ENDBRANCH  28  29
ENDBRANCH   3  28
TORSDOF 15
ENDMDL
MODEL 16
REMARK VINA RESULT:    -5.775      2.476      7.511
REMARK INTER + INTRA:         -16.678
REMARK INTER:                 -11.612
REMARK INTRA:                  -5.066
REMARK UNBOUND:                -5.839
REMARK  Name = cpd36.pdb
REMARK  17 active torsions:
REMARK  status: ('A' for Active; 'I' for Inactive)
REMARK    1  A    between atoms: C_1  and  C_2
REMARK    2  A    between atoms: C_6  and  N_7
REMARK    3  A    between atoms: N_7  and  C_8
REMARK    4  A    between atoms: C_13  and  C_14
REMARK    5  A    between atoms: N_16  and  C_17
REMARK    6  A    between atoms: C_17  and  C_18
REMARK    7  A    between atoms: C_18  and  C_19
REMARK    8  A    between atoms: C_19  and  C_20
REMARK    9  A    between atoms: N_22  and  C_23
REMARK   10  A    between atoms: C_23  and  C_24
REMARK   11  A    between atoms: C_24  and  C_25
REMARK   12  A    between atoms: C_25  and  C_26
REMARK   13  A    between atoms: C_26  and  C_27
REMARK   14  A    between atoms: C_27  and  C_28
REMARK   15  A    between atoms: C_28  and  N_29
REMARK   16  A    between atoms: N_29  and  C_30
REMARK   17  A    between atoms: C_44  and  C_45
REMARK                            x       y       z     vdW  Elec       q    Type
REMARK                         _______ _______ _______ _____ _____    ______ ____
ROOT
ATOM      1  C   UNL A   1      39.326 -20.558 -34.494  0.00  0.00    +0.213 C 
ATOM      2  O   UNL A   1      40.033 -21.194 -33.721  0.00  0.00    -0.276 OA
ATOM      3  N   UNL A   1      39.051 -20.957 -35.782  0.00  0.00    -0.315 N 
ATOM      4  H   UNL A   1      38.488 -20.382 -36.349  0.00  0.00    +0.000 HD
ENDROOT
BRANCH   1   5
ATOM      5  C   UNL A   1      38.657 -19.262 -34.087  0.00  0.00    +0.025 C 
BRANCH   5   6
ATOM      6  C   UNL A   1      39.126 -18.777 -32.716  0.00  0.00    -0.029 C 
BRANCH   6   7
ATOM      7  C   UNL A   1      39.185 -17.253 -32.622  0.00  0.00    +0.012 C 
BRANCH   7  10
ATOM      8  C   UNL A   1      41.455 -16.425 -33.414  0.00  0.00    +0.246 C 
ATOM      9  O   UNL A   1      42.428 -15.732 -33.138  0.00  0.00    -0.270 OA
ATOM     10  N   UNL A   1      40.538 -16.749 -32.445  0.00  0.00    -0.311 N 
ATOM     11  H   UNL A   1      40.834 -16.624 -31.514  0.00  0.00    +0.000 HD
BRANCH   8  17
ATOM     12  C   UNL A   1      42.116 -17.827 -35.407  0.00  0.00    +0.044 A 
ATOM     13  C   UNL A   1      41.813 -18.226 -36.720  0.00  0.00    -0.040 A 
ATOM     14  C   UNL A   1      40.753 -17.651 -37.429  0.00  0.00    -0.060 A 
ATOM     15  C   UNL A   1      39.961 -16.673 -36.834  0.00  0.00    -0.061 A 
ATOM     16  C   UNL A   1      40.212 -16.290 -35.519  0.00  0.00    -0.048 A 
ATOM     17  C   UNL A   1      41.258 -16.891 -34.801  0.00  0.00    +0.058 A 
BRANCH  12  18
ATOM     18  N   UNL A   1      43.185 -18.439 -34.701  0.00  0.00    -0.314 N 
ATOM     19  H   UNL A   1      43.000 -18.704 -33.772  0.00  0.00    +0.000 HD
BRANCH  18  25
ATOM     20  C   UNL A   1      47.455 -16.843 -36.763  0.00  0.00    -0.039 C 
ATOM     21  C   UNL A   1      46.551 -17.933 -36.256  0.00  0.00    -0.046 A 
ATOM     22  C   UNL A   1      46.969 -19.267 -36.383  0.00  0.00    -0.058 A 
ATOM     23  C   UNL A   1      46.159 -20.311 -35.949  0.00  0.00    -0.060 A 
ATOM     24  C   UNL A   1      44.922 -20.035 -35.373  0.00  0.00    -0.040 A 
ATOM     25  C   UNL A   1      44.492 -18.712 -35.189  0.00  0.00    +0.035 A 
ATOM     26  C   UNL A   1      45.308 -17.648 -35.641  0.00  0.00    -0.026 A 
ATOM     27  C   UNL A   1      44.828 -16.223 -35.505  0.00  0.00    -0.038 C 
ENDBRANCH  18  25
ENDBRANCH  12  18
ENDBRANCH   8  17
ENDBRANCH   7  10
ENDBRANCH   6   7
ENDBRANCH   5   6
ENDBRANCH   1   5
BRANCH   3  28
ATOM     28  C   UNL A   1      39.565 -22.196 -36.329  0.00  0.00    +0.012 C 
BRANCH  28  29
ATOM     29  C   UNL A   1      41.027 -22.077 -36.759  0.00  0.00    -0.037 C 
BRANCH  29  30
ATOM     30  C   UNL A   1      41.180 -22.337 -38.259  0.00  0.00    -0.052 C 
BRANCH  30  31
ATOM     31  C   UNL A   1      40.732 -21.157 -39.127  0.00  0.00    -0.052 C 
BRANCH  31  32
ATOM     32  C   UNL A   1      41.900 -20.447 -39.817  0.00  0.00    -0.037 C 
BRANCH  32  33
ATOM     33  C   UNL A   1      43.149 -21.330 -39.847  0.00  0.00    +0.009 C 
BRANCH  33  34
ATOM     34  N   UNL A   1      44.164 -20.752 -38.955  0.00  0.00    -0.343 N 
ATOM     35  H   UNL A   1      44.111 -20.774 -37.971  0.00  0.00    +0.000 HD
BRANCH  34  36
ATOM     36  C   UNL A   1      45.235 -20.155 -39.686  0.00  0.00    +0.041 A 
ATOM     37  C   UNL A   1      46.208 -20.956 -40.321  0.00  0.00    -0.005 A 
ATOM     38  C   UNL A   1      47.194 -20.303 -41.066  0.00  0.00    +0.047 A 
ATOM     39  N   UNL A   1      47.226 -18.961 -41.244  0.00  0.00    -0.251 NA
ATOM     40  C   UNL A   1      46.294 -18.204 -40.650  0.00  0.00    +0.073 A 
ATOM     41  C   UNL A   1      46.352 -16.827 -40.828  0.00  0.00    -0.036 A 
ATOM     42  C   UNL A   1      45.431 -15.963 -40.232  0.00  0.00    -0.060 A 
ATOM     43  C   UNL A   1      44.425 -16.482 -39.430  0.00  0.00    -0.061 A 
ATOM     44  C   UNL A   1      44.346 -17.860 -39.240  0.00  0.00    -0.051 A 
ATOM     45  C   UNL A   1      45.268 -18.744 -39.853  0.00  0.00    +0.021 A 
ATOM     46  C   UNL A   1      48.275 -21.062 -41.792  0.00  0.00    -0.010 C 
ATOM     47  C   UNL A   1      48.491 -22.470 -41.253  0.00  0.00    -0.047 C 
ATOM     48  C   UNL A   1      47.154 -23.184 -41.133  0.00  0.00    -0.049 C 
ATOM     49  C   UNL A   1      46.246 -22.456 -40.143  0.00  0.00    -0.024 C 
ENDBRANCH  34  36
ENDBRANCH  33  34
ENDBRANCH  32  33
ENDBRANCH  31  32
ENDBRANCH  30  31
ENDBRANCH  29  30
ENDBRANCH  28  29
ENDBRANCH   3  28
TORSDOF 15
ENDMDL
MODEL 17
REMARK VINA RESULT:    -5.757      2.180      4.964
REMARK INTER + INTRA:         -16.645
REMARK INTER:                 -12.274
REMARK INTRA:                  -4.370
REMARK UNBOUND:                -5.839
REMARK  Name = cpd36.pdb
REMARK  17 active torsions:
REMARK  status: ('A' for Active; 'I' for Inactive)
REMARK    1  A    between atoms: C_1  and  C_2
REMARK    2  A    between atoms: C_6  and  N_7
REMARK    3  A    between atoms: N_7  and  C_8
REMARK    4  A    between atoms: C_13  and  C_14
REMARK    5  A    between atoms: N_16  and  C_17
REMARK    6  A    between atoms: C_17  and  C_18
REMARK    7  A    between atoms: C_18  and  C_19
REMARK    8  A    between atoms: C_19  and  C_20
REMARK    9  A    between atoms: N_22  and  C_23
REMARK   10  A    between atoms: C_23  and  C_24
REMARK   11  A    between atoms: C_24  and  C_25
REMARK   12  A    between atoms: C_25  and  C_26
REMARK   13  A    between atoms: C_26  and  C_27
REMARK   14  A    between atoms: C_27  and  C_28
REMARK   15  A    between atoms: C_28  and  N_29
REMARK   16  A    between atoms: N_29  and  C_30
REMARK   17  A    between atoms: C_44  and  C_45
REMARK                            x       y       z     vdW  Elec       q    Type
REMARK                         _______ _______ _______ _____ _____    ______ ____
ROOT
ATOM      1  C   UNL A   1      41.356 -16.278 -35.270  0.00  0.00    +0.213 C 
ATOM      2  O   UNL A   1      41.469 -15.103 -34.940  0.00  0.00    -0.276 OA
ATOM      3  N   UNL A   1      41.516 -17.333 -34.402  0.00  0.00    -0.315 N 
ATOM      4  H   UNL A   1      41.426 -18.251 -34.745  0.00  0.00    +0.000 HD
ENDROOT
BRANCH   1   5
ATOM      5  C   UNL A   1      40.997 -16.683 -36.684  0.00  0.00    +0.025 C 
BRANCH   5   6
ATOM      6  C   UNL A   1      42.235 -16.915 -37.549  0.00  0.00    -0.029 C 
BRANCH   6   7
ATOM      7  C   UNL A   1      42.752 -15.629 -38.191  0.00  0.00    +0.012 C 
BRANCH   7  10
ATOM      8  C   UNL A   1      43.509 -15.908 -40.603  0.00  0.00    +0.246 C 
ATOM      9  O   UNL A   1      43.150 -16.148 -41.751  0.00  0.00    -0.270 OA
ATOM     10  N   UNL A   1      42.581 -15.610 -39.636  0.00  0.00    -0.311 N 
ATOM     11  H   UNL A   1      41.689 -15.351 -39.961  0.00  0.00    +0.000 HD
BRANCH   8  17
ATOM     12  C   UNL A   1      45.558 -17.147 -39.804  0.00  0.00    +0.044 A 
ATOM     13  C   UNL A   1      46.937 -17.096 -39.537  0.00  0.00    -0.040 A 
ATOM     14  C   UNL A   1      47.653 -15.897 -39.633  0.00  0.00    -0.060 A 
ATOM     15  C   UNL A   1      47.007 -14.724 -40.013  0.00  0.00    -0.061 A 
ATOM     16  C   UNL A   1      45.651 -14.755 -40.324  0.00  0.00    -0.048 A 
ATOM     17  C   UNL A   1      44.942 -15.965 -40.257  0.00  0.00    +0.058 A 
BRANCH  12  18
ATOM     18  N   UNL A   1      44.858 -18.379 -39.720  0.00  0.00    -0.314 N 
ATOM     19  H   UNL A   1      44.273 -18.497 -38.937  0.00  0.00    +0.000 HD
BRANCH  18  25
ATOM     20  C   UNL A   1      46.591 -22.892 -41.007  0.00  0.00    -0.039 C 
ATOM     21  C   UNL A   1      45.811 -21.638 -41.292  0.00  0.00    -0.046 A 
ATOM     22  C   UNL A   1      45.216 -21.488 -42.555  0.00  0.00    -0.058 A 
ATOM     23  C   UNL A   1      44.503 -20.337 -42.873  0.00  0.00    -0.060 A 
ATOM     24  C   UNL A   1      44.365 -19.324 -41.929  0.00  0.00    -0.040 A 
ATOM     25  C   UNL A   1      44.908 -19.459 -40.641  0.00  0.00    +0.035 A 
ATOM     26  C   UNL A   1      45.645 -20.623 -40.319  0.00  0.00    -0.026 A 
ATOM     27  C   UNL A   1      46.286 -20.753 -38.958  0.00  0.00    -0.038 C 
ENDBRANCH  18  25
ENDBRANCH  12  18
ENDBRANCH   8  17
ENDBRANCH   7  10
ENDBRANCH   6   7
ENDBRANCH   5   6
ENDBRANCH   1   5
BRANCH   3  28
ATOM     28  C   UNL A   1      41.814 -17.135 -32.998  0.00  0.00    +0.012 C 
BRANCH  28  29
ATOM     29  C   UNL A   1      43.300 -16.877 -32.751  0.00  0.00    -0.037 C 
BRANCH  29  30
ATOM     30  C   UNL A   1      44.121 -18.148 -32.979  0.00  0.00    -0.052 C 
BRANCH  30  31
ATOM     31  C   UNL A   1      44.935 -18.119 -34.276  0.00  0.00    -0.052 C 
BRANCH  31  32
ATOM     32  C   UNL A   1      45.157 -19.511 -34.873  0.00  0.00    -0.037 C 
BRANCH  32  33
ATOM     33  C   UNL A   1      44.061 -19.866 -35.880  0.00  0.00    +0.009 C 
BRANCH  33  34
ATOM     34  N   UNL A   1      43.304 -21.020 -35.375  0.00  0.00    -0.343 N 
ATOM     35  H   UNL A   1      43.695 -21.740 -34.828  0.00  0.00    +0.000 HD
BRANCH  34  36
ATOM     36  C   UNL A   1      41.934 -20.971 -35.774  0.00  0.00    +0.041 A 
ATOM     37  C   UNL A   1      41.574 -21.100 -37.132  0.00  0.00    -0.005 A 
ATOM     38  C   UNL A   1      40.211 -21.100 -37.440  0.00  0.00    +0.047 A 
ATOM     39  N   UNL A   1      39.235 -21.033 -36.503  0.00  0.00    -0.251 NA
ATOM     40  C   UNL A   1      39.580 -20.923 -35.213  0.00  0.00    +0.073 A 
ATOM     41  C   UNL A   1      38.567 -20.837 -34.266  0.00  0.00    -0.036 A 
ATOM     42  C   UNL A   1      38.837 -20.704 -32.902  0.00  0.00    -0.060 A 
ATOM     43  C   UNL A   1      40.152 -20.648 -32.467  0.00  0.00    -0.061 A 
ATOM     44  C   UNL A   1      41.185 -20.735 -33.399  0.00  0.00    -0.051 A 
ATOM     45  C   UNL A   1      40.919 -20.885 -34.782  0.00  0.00    +0.021 A 
ATOM     46  C   UNL A   1      39.716 -21.241 -38.857  0.00  0.00    -0.010 C 
ATOM     47  C   UNL A   1      40.764 -20.884 -39.902  0.00  0.00    -0.047 C 
ATOM     48  C   UNL A   1      42.067 -21.602 -39.586  0.00  0.00    -0.049 C 
ATOM     49  C   UNL A   1      42.610 -21.153 -38.230  0.00  0.00    -0.024 C 
ENDBRANCH  34  36
ENDBRANCH  33  34
ENDBRANCH  32  33
ENDBRANCH  31  32
ENDBRANCH  30  31
ENDBRANCH  29  30
ENDBRANCH  28  29
ENDBRANCH   3  28
TORSDOF 15
ENDMDL
MODEL 18
REMARK VINA RESULT:    -5.725      2.285      6.942
REMARK INTER + INTRA:         -16.584
REMARK INTER:                 -10.181
REMARK INTRA:                  -6.402
REMARK UNBOUND:                -5.839
REMARK  Name = cpd36.pdb
REMARK  17 active torsions:
REMARK  status: ('A' for Active; 'I' for Inactive)
REMARK    1  A    between atoms: C_1  and  C_2
REMARK    2  A    between atoms: C_6  and  N_7
REMARK    3  A    between atoms: N_7  and  C_8
REMARK    4  A    between atoms: C_13  and  C_14
REMARK    5  A    between atoms: N_16  and  C_17
REMARK    6  A    between atoms: C_17  and  C_18
REMARK    7  A    between atoms: C_18  and  C_19
REMARK    8  A    between atoms: C_19  and  C_20
REMARK    9  A    between atoms: N_22  and  C_23
REMARK   10  A    between atoms: C_23  and  C_24
REMARK   11  A    between atoms: C_24  and  C_25
REMARK   12  A    between atoms: C_25  and  C_26
REMARK   13  A    between atoms: C_26  and  C_27
REMARK   14  A    between atoms: C_27  and  C_28
REMARK   15  A    between atoms: C_28  and  N_29
REMARK   16  A    between atoms: N_29  and  C_30
REMARK   17  A    between atoms: C_44  and  C_45
REMARK                            x       y       z     vdW  Elec       q    Type
REMARK                         _______ _______ _______ _____ _____    ______ ____
ROOT
ATOM      1  C   UNL A   1      39.706 -15.762 -35.260  0.00  0.00    +0.213 C 
ATOM      2  O   UNL A   1      39.350 -14.770 -35.886  0.00  0.00    -0.276 OA
ATOM      3  N   UNL A   1      40.999 -15.975 -34.840  0.00  0.00    -0.315 N 
ATOM      4  H   UNL A   1      41.213 -16.805 -34.356  0.00  0.00    +0.000 HD
ENDROOT
BRANCH   1   5
ATOM      5  C   UNL A   1      38.735 -16.852 -34.863  0.00  0.00    +0.025 C 
BRANCH   5   6
ATOM      6  C   UNL A   1      39.435 -18.188 -34.617  0.00  0.00    -0.029 C 
BRANCH   6   7
ATOM      7  C   UNL A   1      39.571 -19.023 -35.890  0.00  0.00    +0.012 C 
BRANCH   7  10
ATOM      8  C   UNL A   1      40.369 -21.419 -36.189  0.00  0.00    +0.246 C 
ATOM      9  O   UNL A   1      40.469 -22.522 -35.661  0.00  0.00    -0.270 OA
ATOM     10  N   UNL A   1      39.568 -20.454 -35.630  0.00  0.00    -0.311 N 
ATOM     11  H   UNL A   1      38.910 -20.771 -34.970  0.00  0.00    +0.000 HD
BRANCH   8  17
ATOM     12  C   UNL A   1      42.520 -20.883 -37.397  0.00  0.00    +0.044 A 
ATOM     13  C   UNL A   1      43.152 -20.645 -38.629  0.00  0.00    -0.040 A 
ATOM     14  C   UNL A   1      42.420 -20.563 -39.819  0.00  0.00    -0.060 A 
ATOM     15  C   UNL A   1      41.038 -20.731 -39.804  0.00  0.00    -0.061 A 
ATOM     16  C   UNL A   1      40.391 -21.010 -38.603  0.00  0.00    -0.048 A 
ATOM     17  C   UNL A   1      41.133 -21.122 -37.416  0.00  0.00    +0.058 A 
BRANCH  12  18
ATOM     18  N   UNL A   1      43.286 -20.982 -36.206  0.00  0.00    -0.314 N 
ATOM     19  H   UNL A   1      43.566 -21.888 -35.940  0.00  0.00    +0.000 HD
BRANCH  18  25
ATOM     20  C   UNL A   1      46.863 -17.912 -34.527  0.00  0.00    -0.039 C 
ATOM     21  C   UNL A   1      45.463 -18.466 -34.495  0.00  0.00    -0.046 A 
ATOM     22  C   UNL A   1      44.577 -17.996 -33.514  0.00  0.00    -0.058 A 
ATOM     23  C   UNL A   1      43.280 -18.493 -33.431  0.00  0.00    -0.060 A 
ATOM     24  C   UNL A   1      42.849 -19.460 -34.334  0.00  0.00    -0.040 A 
ATOM     25  C   UNL A   1      43.694 -19.919 -35.356  0.00  0.00    +0.035 A 
ATOM     26  C   UNL A   1      45.018 -19.425 -35.436  0.00  0.00    -0.026 A 
ATOM     27  C   UNL A   1      45.956 -19.958 -36.493  0.00  0.00    -0.038 C 
ENDBRANCH  18  25
ENDBRANCH  12  18
ENDBRANCH   8  17
ENDBRANCH   7  10
ENDBRANCH   6   7
ENDBRANCH   5   6
ENDBRANCH   1   5
BRANCH   3  28
ATOM     28  C   UNL A   1      42.056 -15.014 -35.087  0.00  0.00    +0.012 C 
BRANCH  28  29
ATOM     29  C   UNL A   1      42.723 -15.223 -36.446  0.00  0.00    -0.037 C 
BRANCH  29  30
ATOM     30  C   UNL A   1      42.859 -16.714 -36.766  0.00  0.00    -0.052 C 
BRANCH  30  31
ATOM     31  C   UNL A   1      42.059 -17.146 -37.998  0.00  0.00    -0.052 C 
BRANCH  31  32
ATOM     32  C   UNL A   1      42.001 -16.065 -39.080  0.00  0.00    -0.037 C 
BRANCH  32  33
ATOM     33  C   UNL A   1      42.414 -16.621 -40.446  0.00  0.00    +0.009 C 
BRANCH  33  34
ATOM     34  N   UNL A   1      43.670 -15.982 -40.862  0.00  0.00    -0.343 N 
ATOM     35  H   UNL A   1      43.719 -15.137 -41.365  0.00  0.00    +0.000 HD
BRANCH  34  36
ATOM     36  C   UNL A   1      44.810 -16.734 -40.447  0.00  0.00    +0.041 A 
ATOM     37  C   UNL A   1      45.620 -16.287 -39.382  0.00  0.00    -0.005 A 
ATOM     38  C   UNL A   1      46.685 -17.105 -38.994  0.00  0.00    +0.047 A 
ATOM     39  N   UNL A   1      46.939 -18.312 -39.554  0.00  0.00    -0.251 NA
ATOM     40  C   UNL A   1      46.161 -18.740 -40.558  0.00  0.00    +0.073 A 
ATOM     41  C   UNL A   1      46.446 -19.972 -41.133  0.00  0.00    -0.036 A 
ATOM     42  C   UNL A   1      45.697 -20.486 -42.193  0.00  0.00    -0.060 A 
ATOM     43  C   UNL A   1      44.636 -19.751 -42.702  0.00  0.00    -0.061 A 
ATOM     44  C   UNL A   1      44.330 -18.514 -42.138  0.00  0.00    -0.051 A 
ATOM     45  C   UNL A   1      45.076 -17.992 -41.053  0.00  0.00    +0.021 A 
ATOM     46  C   UNL A   1      47.606 -16.728 -37.862  0.00  0.00    -0.010 C 
ATOM     47  C   UNL A   1      47.595 -15.238 -37.545  0.00  0.00    -0.047 C 
ATOM     48  C   UNL A   1      46.159 -14.755 -37.412  0.00  0.00    -0.049 C 
ATOM     49  C   UNL A   1      45.409 -14.940 -38.730  0.00  0.00    -0.024 C 
ENDBRANCH  34  36
ENDBRANCH  33  34
ENDBRANCH  32  33
ENDBRANCH  31  32
ENDBRANCH  30  31
ENDBRANCH  29  30
ENDBRANCH  28  29
ENDBRANCH   3  28
TORSDOF 15
ENDMDL
MODEL 19
REMARK VINA RESULT:    -5.712      2.467      4.661
REMARK INTER + INTRA:         -16.560
REMARK INTER:                 -10.692
REMARK INTRA:                  -5.868
REMARK UNBOUND:                -5.839
REMARK  Name = cpd36.pdb
REMARK  17 active torsions:
REMARK  status: ('A' for Active; 'I' for Inactive)
REMARK    1  A    between atoms: C_1  and  C_2
REMARK    2  A    between atoms: C_6  and  N_7
REMARK    3  A    between atoms: N_7  and  C_8
REMARK    4  A    between atoms: C_13  and  C_14
REMARK    5  A    between atoms: N_16  and  C_17
REMARK    6  A    between atoms: C_17  and  C_18
REMARK    7  A    between atoms: C_18  and  C_19
REMARK    8  A    between atoms: C_19  and  C_20
REMARK    9  A    between atoms: N_22  and  C_23
REMARK   10  A    between atoms: C_23  and  C_24
REMARK   11  A    between atoms: C_24  and  C_25
REMARK   12  A    between atoms: C_25  and  C_26
REMARK   13  A    between atoms: C_26  and  C_27
REMARK   14  A    between atoms: C_27  and  C_28
REMARK   15  A    between atoms: C_28  and  N_29
REMARK   16  A    between atoms: N_29  and  C_30
REMARK   17  A    between atoms: C_44  and  C_45
REMARK                            x       y       z     vdW  Elec       q    Type
REMARK                         _______ _______ _______ _____ _____    ______ ____
ROOT
ATOM      1  C   UNL A   1      45.631 -18.535 -34.512  0.00  0.00    +0.213 C 
ATOM      2  O   UNL A   1      45.387 -19.568 -33.899  0.00  0.00    -0.276 OA
ATOM      3  N   UNL A   1      45.172 -17.295 -34.131  0.00  0.00    -0.315 N 
ATOM      4  H   UNL A   1      45.395 -16.513 -34.685  0.00  0.00    +0.000 HD
ENDROOT
BRANCH   1   5
ATOM      5  C   UNL A   1      46.495 -18.524 -35.755  0.00  0.00    +0.025 C 
BRANCH   5   6
ATOM      6  C   UNL A   1      46.606 -19.908 -36.392  0.00  0.00    -0.029 C 
BRANCH   6   7
ATOM      7  C   UNL A   1      47.086 -19.850 -37.842  0.00  0.00    +0.012 C 
BRANCH   7  10
ATOM      8  C   UNL A   1      45.669 -20.539 -39.838  0.00  0.00    +0.246 C 
ATOM      9  O   UNL A   1      45.409 -21.443 -40.626  0.00  0.00    -0.270 OA
ATOM     10  N   UNL A   1      46.398 -20.799 -38.704  0.00  0.00    -0.311 N 
ATOM     11  H   UNL A   1      46.463 -21.745 -38.442  0.00  0.00    +0.000 HD
BRANCH   8  17
ATOM     12  C   UNL A   1      43.855 -18.810 -40.147  0.00  0.00    +0.044 A 
ATOM     13  C   UNL A   1      43.541 -17.464 -40.397  0.00  0.00    -0.040 A 
ATOM     14  C   UNL A   1      44.536 -16.528 -40.700  0.00  0.00    -0.060 A 
ATOM     15  C   UNL A   1      45.872 -16.917 -40.745  0.00  0.00    -0.061 A 
ATOM     16  C   UNL A   1      46.215 -18.235 -40.459  0.00  0.00    -0.048 A 
ATOM     17  C   UNL A   1      45.217 -19.164 -40.126  0.00  0.00    +0.058 A 
BRANCH  12  18
ATOM     18  N   UNL A   1      42.829 -19.737 -39.822  0.00  0.00    -0.314 N 
ATOM     19  H   UNL A   1      42.241 -20.015 -40.560  0.00  0.00    +0.000 HD
BRANCH  18  25
ATOM     20  C   UNL A   1      40.143 -22.824 -36.944  0.00  0.00    -0.039 C 
ATOM     21  C   UNL A   1      41.199 -21.770 -37.137  0.00  0.00    -0.046 A 
ATOM     22  C   UNL A   1      41.848 -21.252 -36.005  0.00  0.00    -0.058 A 
ATOM     23  C   UNL A   1      42.816 -20.262 -36.131  0.00  0.00    -0.060 A 
ATOM     24  C   UNL A   1      43.156 -19.780 -37.392  0.00  0.00    -0.040 A 
ATOM     25  C   UNL A   1      42.559 -20.306 -38.548  0.00  0.00    +0.035 A 
ATOM     26  C   UNL A   1      41.565 -21.306 -38.423  0.00  0.00    -0.026 A 
ATOM     27  C   UNL A   1      40.873 -21.834 -39.656  0.00  0.00    -0.038 C 
ENDBRANCH  18  25
ENDBRANCH  12  18
ENDBRANCH   8  17
ENDBRANCH   7  10
ENDBRANCH   6   7
ENDBRANCH   5   6
ENDBRANCH   1   5
BRANCH   3  28
ATOM     28  C   UNL A   1      44.370 -17.105 -32.939  0.00  0.00    +0.012 C 
BRANCH  28  29
ATOM     29  C   UNL A   1      43.760 -15.705 -32.868  0.00  0.00    -0.037 C 
BRANCH  29  30
ATOM     30  C   UNL A   1      43.764 -15.036 -34.244  0.00  0.00    -0.052 C 
BRANCH  30  31
ATOM     31  C   UNL A   1      42.369 -14.924 -34.867  0.00  0.00    -0.052 C 
BRANCH  31  32
ATOM     32  C   UNL A   1      41.248 -14.936 -33.826  0.00  0.00    -0.037 C 
BRANCH  32  33
ATOM     33  C   UNL A   1      40.208 -16.016 -34.138  0.00  0.00    +0.009 C 
BRANCH  33  34
ATOM     34  N   UNL A   1      40.904 -17.268 -34.464  0.00  0.00    -0.343 N 
ATOM     35  H   UNL A   1      41.846 -17.451 -34.240  0.00  0.00    +0.000 HD
BRANCH  34  36
ATOM     36  C   UNL A   1      40.050 -18.186 -35.146  0.00  0.00    +0.041 A 
ATOM     37  C   UNL A   1      39.307 -19.148 -34.428  0.00  0.00    -0.005 A 
ATOM     38  C   UNL A   1      38.449 -19.975 -35.158  0.00  0.00    +0.047 A 
ATOM     39  N   UNL A   1      38.265 -19.863 -36.495  0.00  0.00    -0.251 NA
ATOM     40  C   UNL A   1      38.962 -18.941 -37.172  0.00  0.00    +0.073 A 
ATOM     41  C   UNL A   1      38.775 -18.851 -38.546  0.00  0.00    -0.036 A 
ATOM     42  C   UNL A   1      39.473 -17.931 -39.331  0.00  0.00    -0.060 A 
ATOM     43  C   UNL A   1      40.390 -17.078 -38.734  0.00  0.00    -0.061 A 
ATOM     44  C   UNL A   1      40.591 -17.149 -37.356  0.00  0.00    -0.051 A 
ATOM     45  C   UNL A   1      39.877 -18.070 -36.552  0.00  0.00    +0.021 A 
ATOM     46  C   UNL A   1      37.602 -21.029 -34.490  0.00  0.00    -0.010 C 
ATOM     47  C   UNL A   1      38.116 -21.436 -33.116  0.00  0.00    -0.047 C 
ATOM     48  C   UNL A   1      38.395 -20.192 -32.285  0.00  0.00    -0.049 C 
ATOM     49  C   UNL A   1      39.483 -19.344 -32.941  0.00  0.00    -0.024 C 
ENDBRANCH  34  36
ENDBRANCH  33  34
ENDBRANCH  32  33
ENDBRANCH  31  32
ENDBRANCH  30  31
ENDBRANCH  29  30
ENDBRANCH  28  29
ENDBRANCH   3  28
TORSDOF 15
ENDMDL
MODEL 20
REMARK VINA RESULT:    -5.656      2.252      5.374
REMARK INTER + INTRA:         -16.455
REMARK INTER:                 -10.064
REMARK INTRA:                  -6.391
REMARK UNBOUND:                -5.839
REMARK  Name = cpd36.pdb
REMARK  17 active torsions:
REMARK  status: ('A' for Active; 'I' for Inactive)
REMARK    1  A    between atoms: C_1  and  C_2
REMARK    2  A    between atoms: C_6  and  N_7
REMARK    3  A    between atoms: N_7  and  C_8
REMARK    4  A    between atoms: C_13  and  C_14
REMARK    5  A    between atoms: N_16  and  C_17
REMARK    6  A    between atoms: C_17  and  C_18
REMARK    7  A    between atoms: C_18  and  C_19
REMARK    8  A    between atoms: C_19  and  C_20
REMARK    9  A    between atoms: N_22  and  C_23
REMARK   10  A    between atoms: C_23  and  C_24
REMARK   11  A    between atoms: C_24  and  C_25
REMARK   12  A    between atoms: C_25  and  C_26
REMARK   13  A    between atoms: C_26  and  C_27
REMARK   14  A    between atoms: C_27  and  C_28
REMARK   15  A    between atoms: C_28  and  N_29
REMARK   16  A    between atoms: N_29  and  C_30
REMARK   17  A    between atoms: C_44  and  C_45
REMARK                            x       y       z     vdW  Elec       q    Type
REMARK                         _______ _______ _______ _____ _____    ______ ____
ROOT
ATOM      1  C   UNL A   1      40.317 -15.794 -39.140  0.00  0.00    +0.213 C 
ATOM      2  O   UNL A   1      40.333 -14.786 -38.443  0.00  0.00    -0.276 OA
ATOM      3  N   UNL A   1      39.382 -16.795 -39.012  0.00  0.00    -0.315 N 
ATOM      4  H   UNL A   1      39.445 -17.584 -39.598  0.00  0.00    +0.000 HD
ENDROOT
BRANCH   1   5
ATOM      5  C   UNL A   1      41.329 -16.023 -40.242  0.00  0.00    +0.025 C 
BRANCH   5   6
ATOM      6  C   UNL A   1      42.707 -15.470 -39.884  0.00  0.00    -0.029 C 
BRANCH   6   7
ATOM      7  C   UNL A   1      43.731 -15.679 -40.999  0.00  0.00    +0.012 C 
BRANCH   7  10
ATOM      8  C   UNL A   1      45.743 -17.121 -40.416  0.00  0.00    +0.246 C 
ATOM      9  O   UNL A   1      46.960 -17.139 -40.263  0.00  0.00    -0.270 OA
ATOM     10  N   UNL A   1      45.074 -15.925 -40.495  0.00  0.00    -0.311 N 
ATOM     11  H   UNL A   1      45.564 -15.135 -40.171  0.00  0.00    +0.000 HD
BRANCH   8  17
ATOM     12  C   UNL A   1      44.629 -19.155 -39.418  0.00  0.00    +0.044 A 
ATOM     13  C   UNL A   1      43.894 -20.330 -39.652  0.00  0.00    -0.040 A 
ATOM     14  C   UNL A   1      43.618 -20.770 -40.951  0.00  0.00    -0.060 A 
ATOM     15  C   UNL A   1      44.061 -20.035 -42.048  0.00  0.00    -0.061 A 
ATOM     16  C   UNL A   1      44.754 -18.845 -41.845  0.00  0.00    -0.048 A 
ATOM     17  C   UNL A   1      45.002 -18.391 -40.540  0.00  0.00    +0.058 A 
BRANCH  12  18
ATOM     18  N   UNL A   1      44.878 -18.718 -38.091  0.00  0.00    -0.314 N 
ATOM     19  H   UNL A   1      45.667 -19.101 -37.644  0.00  0.00    +0.000 HD
BRANCH  18  25
ATOM     20  C   UNL A   1      44.665 -14.804 -34.981  0.00  0.00    -0.039 C 
ATOM     21  C   UNL A   1      44.020 -15.916 -35.764  0.00  0.00    -0.046 A 
ATOM     22  C   UNL A   1      42.635 -16.108 -35.643  0.00  0.00    -0.058 A 
ATOM     23  C   UNL A   1      41.997 -17.135 -36.330  0.00  0.00    -0.060 A 
ATOM     24  C   UNL A   1      42.734 -17.980 -37.156  0.00  0.00    -0.040 A 
ATOM     25  C   UNL A   1      44.113 -17.789 -37.335  0.00  0.00    +0.035 A 
ATOM     26  C   UNL A   1      44.768 -16.753 -36.627  0.00  0.00    -0.026 A 
ATOM     27  C   UNL A   1      46.261 -16.577 -36.764  0.00  0.00    -0.038 C 
ENDBRANCH  18  25
ENDBRANCH  12  18
ENDBRANCH   8  17
ENDBRANCH   7  10
ENDBRANCH   6   7
ENDBRANCH   5   6
ENDBRANCH   1   5
BRANCH   3  28
ATOM     28  C   UNL A   1      38.307 -16.724 -38.043  0.00  0.00    +0.012 C 
BRANCH  28  29
ATOM     29  C   UNL A   1      38.525 -17.674 -36.866  0.00  0.00    -0.037 C 
BRANCH  29  30
ATOM     30  C   UNL A   1      38.455 -19.134 -37.320  0.00  0.00    -0.052 C 
BRANCH  30  31
ATOM     31  C   UNL A   1      39.829 -19.747 -37.606  0.00  0.00    -0.052 C 
BRANCH  31  32
ATOM     32  C   UNL A   1      39.976 -21.166 -37.050  0.00  0.00    -0.037 C 
BRANCH  32  33
ATOM     33  C   UNL A   1      41.386 -21.408 -36.506  0.00  0.00    +0.009 C 
BRANCH  33  34
ATOM     34  N   UNL A   1      41.297 -21.722 -35.073  0.00  0.00    -0.343 N 
ATOM     35  H   UNL A   1      41.160 -22.629 -34.715  0.00  0.00    +0.000 HD
BRANCH  34  36
ATOM     36  C   UNL A   1      41.435 -20.554 -34.265  0.00  0.00    +0.041 A 
ATOM     37  C   UNL A   1      40.321 -20.009 -33.591  0.00  0.00    -0.005 A 
ATOM     38  C   UNL A   1      40.543 -18.898 -32.772  0.00  0.00    +0.047 A 
ATOM     39  N   UNL A   1      41.769 -18.362 -32.561  0.00  0.00    -0.251 NA
ATOM     40  C   UNL A   1      42.827 -18.889 -33.192  0.00  0.00    +0.073 A 
ATOM     41  C   UNL A   1      44.074 -18.315 -32.979  0.00  0.00    -0.036 A 
ATOM     42  C   UNL A   1      45.226 -18.791 -33.609  0.00  0.00    -0.060 A 
ATOM     43  C   UNL A   1      45.135 -19.864 -34.482  0.00  0.00    -0.061 A 
ATOM     44  C   UNL A   1      43.894 -20.457 -34.709  0.00  0.00    -0.051 A 
ATOM     45  C   UNL A   1      42.724 -19.990 -34.063  0.00  0.00    +0.021 A 
ATOM     46  C   UNL A   1      39.426 -18.244 -32.000  0.00  0.00    -0.010 C 
ATOM     47  C   UNL A   1      38.044 -18.553 -32.558  0.00  0.00    -0.047 C 
ATOM     48  C   UNL A   1      37.903 -20.051 -32.775  0.00  0.00    -0.049 C 
ATOM     49  C   UNL A   1      38.923 -20.541 -33.802  0.00  0.00    -0.024 C 
ENDBRANCH  34  36
ENDBRANCH  33  34
ENDBRANCH  32  33
ENDBRANCH  31  32
ENDBRANCH  30  31
ENDBRANCH  29  30
ENDBRANCH  28  29
ENDBRANCH   3  28
TORSDOF 15
ENDMDL
