MODEL 1
REMARK VINA RESULT:    -8.332      0.000      0.000
REMARK INTER + INTRA:         -12.142
REMARK INTER:                 -10.768
REMARK INTRA:                  -1.375
REMARK UNBOUND:                -1.375
REMARK  Name = cpd283.pdb
REMARK  12 active torsions:
REMARK  status: ('A' for Active; 'I' for Inactive)
REMARK    1  A    between atoms: C_1  and  C_2
REMARK    2  A    between atoms: C_2  and  C_3
REMARK    3  A    between atoms: C_4  and  O_5
REMARK    4  A    between atoms: O_5  and  S_6
REMARK    5  A    between atoms: C_12  and  C_13
REMARK    6  A    between atoms: C_19  and  C_20
REMARK    7  A    between atoms: C_20  and  C_21
REMARK    8  A    between atoms: C_26  and  C_27
REMARK    9  A    between atoms: C_28  and  O_29
REMARK   10  A    between atoms: O_29  and  S_30
REMARK   11  A    between atoms: C_35  and  C_36
REMARK   12  A    between atoms: C_37  and  C_38
REMARK                            x       y       z     vdW  Elec       q    Type
REMARK                         _______ _______ _______ _____ _____    ______ ____
ROOT
ATOM      1  C   UNL     1      44.267 -18.917 -42.695  0.00  0.00    -0.057 C 
ATOM      2  C   UNL     1      44.970 -19.084 -41.316  0.00  0.00    -0.003 C 
ATOM      3  C   UNL     1      46.169 -20.019 -41.622  0.00  0.00    -0.057 C 
ATOM      4  C   UNL     1      44.110 -19.809 -40.178  0.00  0.00    +0.095 C 
ATOM      5  C   UNL     1      43.381 -18.748 -39.360  0.00  0.00    -0.023 C 
ATOM      6  C   UNL     1      43.040 -17.450 -40.036  0.00  0.00    -0.045 C 
ATOM      7  C   UNL     1      44.330 -16.651 -40.202  0.00  0.00    -0.025 C 
ATOM      8  C   UNL     1      44.014 -15.502 -41.196  0.00  0.00    -0.059 C 
ATOM      9  C   UNL     1      44.791 -15.973 -38.807  0.00  0.00    -0.029 C 
ATOM     10  C   UNL     1      43.754 -15.074 -38.048  0.00  0.00    -0.049 C 
ATOM     11  C   UNL     1      43.566 -15.162 -36.497  0.00  0.00    -0.049 C 
ATOM     12  C   UNL     1      44.437 -16.148 -35.687  0.00  0.00    -0.031 C 
ATOM     13  C   UNL     1      43.928 -16.522 -34.264  0.00  0.00    -0.024 C 
ATOM     14  C   UNL     1      43.789 -15.310 -33.286  0.00  0.00    -0.006 C 
ATOM     15  C   UNL     1      44.434 -15.786 -31.986  0.00  0.00    -0.047 C 
ATOM     16  C   UNL     1      45.536 -16.714 -32.447  0.00  0.00    -0.045 C 
ATOM     17  C   UNL     1      44.929 -17.560 -33.599  0.00  0.00    -0.000 C 
ATOM     18  C   UNL     1      44.122 -18.736 -32.998  0.00  0.00    -0.057 C 
ATOM     19  C   UNL     1      46.070 -18.111 -34.645  0.00  0.00    +0.096 C 
ATOM     20  C   UNL     1      45.442 -18.594 -35.891  0.00  0.00    -0.018 C 
ATOM     21  C   UNL     1      44.701 -17.416 -36.565  0.00  0.00    -0.021 C 
ATOM     22  C   UNL     1      43.254 -18.022 -36.710  0.00  0.00    -0.059 C 
ATOM     23  C   UNL     1      45.617 -16.864 -37.830  0.00  0.00    -0.023 C 
ATOM     24  C   UNL     1      46.777 -15.892 -37.330  0.00  0.00    -0.059 C 
ATOM     25  C   UNL     1      46.460 -17.950 -38.577  0.00  0.00    -0.047 C 
ATOM     26  C   UNL     1      46.734 -17.585 -40.022  0.00  0.00    -0.049 C 
ATOM     27  C   UNL     1      45.454 -17.598 -40.863  0.00  0.00    -0.028 C 
ENDROOT
BRANCH  14  28
ATOM     28  C   UNL     1      42.351 -14.822 -33.102  0.00  0.00    +0.093 C 
ATOM     29  C   UNL     1      41.264 -15.855 -33.035  0.00  0.00    -0.033 C 
ATOM     30  C   UNL     1      42.068 -13.447 -32.524  0.00  0.00    +0.077 C 
ATOM     31  O   UNL     1      41.973 -13.704 -33.929  0.00  0.00    -0.368 OA
ENDBRANCH  14  28
BRANCH   4  32
ATOM     32  O   UNL     1      43.144 -20.812 -40.502  0.00  0.00    -0.210 OA
BRANCH  32  33
ATOM     33  S   UNL     1      42.749 -21.387 -39.799  0.00  0.00    +0.239 S 
ATOM     34  O   UNL     1      41.884 -21.887 -40.900  0.00  0.00    -0.116 OA
ATOM     35  O   UNL     1      42.354 -21.962 -39.095  0.00  0.00    -0.116 OA
ATOM     36  O   UNL     1      44.120 -21.954 -39.691  0.00  0.00    -0.022 OA
ENDBRANCH  32  33
ENDBRANCH   4  32
BRANCH  19  37
ATOM     37  O   UNL     1      47.064 -19.086 -34.196  0.00  0.00    -0.210 OA
BRANCH  37  38
ATOM     38  S   UNL     1      47.806 -19.105 -34.798  0.00  0.00    +0.239 S 
ATOM     39  O   UNL     1      48.346 -18.037 -33.921  0.00  0.00    -0.116 OA
ATOM     40  O   UNL     1      48.549 -19.123 -35.400  0.00  0.00    -0.116 OA
ATOM     41  O   UNL     1      47.932 -20.524 -34.368  0.00  0.00    -0.022 OA
ENDBRANCH  37  38
ENDBRANCH  19  37
TORSDOF 5
ENDMDL
MODEL 2
REMARK VINA RESULT:    -8.297      4.527      6.854
REMARK INTER + INTRA:         -12.096
REMARK INTER:                 -11.096
REMARK INTRA:                  -1.000
REMARK UNBOUND:                -1.375
REMARK  Name = cpd283.pdb
REMARK  12 active torsions:
REMARK  status: ('A' for Active; 'I' for Inactive)
REMARK    1  A    between atoms: C_1  and  C_2
REMARK    2  A    between atoms: C_2  and  C_3
REMARK    3  A    between atoms: C_4  and  O_5
REMARK    4  A    between atoms: O_5  and  S_6
REMARK    5  A    between atoms: C_12  and  C_13
REMARK    6  A    between atoms: C_19  and  C_20
REMARK    7  A    between atoms: C_20  and  C_21
REMARK    8  A    between atoms: C_26  and  C_27
REMARK    9  A    between atoms: C_28  and  O_29
REMARK   10  A    between atoms: O_29  and  S_30
REMARK   11  A    between atoms: C_35  and  C_36
REMARK   12  A    between atoms: C_37  and  C_38
REMARK                            x       y       z     vdW  Elec       q    Type
REMARK                         _______ _______ _______ _____ _____    ______ ____
ROOT
ATOM      1  C   UNL     1      37.275 -22.960 -32.890  0.00  0.00    -0.057 C 
ATOM      2  C   UNL     1      38.518 -22.669 -33.780  0.00  0.00    -0.003 C 
ATOM      3  C   UNL     1      38.571 -23.879 -34.750  0.00  0.00    -0.057 C 
ATOM      4  C   UNL     1      39.927 -22.636 -33.021  0.00  0.00    +0.095 C 
ATOM      5  C   UNL     1      40.234 -21.199 -32.615  0.00  0.00    -0.023 C 
ATOM      6  C   UNL     1      39.076 -20.274 -32.372  0.00  0.00    -0.045 C 
ATOM      7  C   UNL     1      38.463 -19.919 -33.724  0.00  0.00    -0.025 C 
ATOM      8  C   UNL     1      37.087 -19.265 -33.429  0.00  0.00    -0.059 C 
ATOM      9  C   UNL     1      39.359 -18.828 -34.514  0.00  0.00    -0.029 C 
ATOM     10  C   UNL     1      39.713 -17.491 -33.772  0.00  0.00    -0.049 C 
ATOM     11  C   UNL     1      41.146 -16.866 -33.836  0.00  0.00    -0.049 C 
ATOM     12  C   UNL     1      42.240 -17.574 -34.667  0.00  0.00    -0.031 C 
ATOM     13  C   UNL     1      43.715 -17.187 -34.352  0.00  0.00    -0.024 C 
ATOM     14  C   UNL     1      44.048 -15.675 -34.571  0.00  0.00    -0.006 C 
ATOM     15  C   UNL     1      45.365 -15.677 -35.342  0.00  0.00    -0.047 C 
ATOM     16  C   UNL     1      45.285 -16.926 -36.192  0.00  0.00    -0.045 C 
ATOM     17  C   UNL     1      44.693 -18.030 -35.275  0.00  0.00    -0.000 C 
ATOM     18  C   UNL     1      45.823 -18.634 -34.408  0.00  0.00    -0.057 C 
ATOM     19  C   UNL     1      43.919 -19.206 -36.124  0.00  0.00    +0.096 C 
ATOM     20  C   UNL     1      43.080 -20.026 -35.228  0.00  0.00    -0.018 C 
ATOM     21  C   UNL     1      42.010 -19.120 -34.578  0.00  0.00    -0.021 C 
ATOM     22  C   UNL     1      42.272 -19.403 -33.050  0.00  0.00    -0.059 C 
ATOM     23  C   UNL     1      40.563 -19.372 -35.342  0.00  0.00    -0.023 C 
ATOM     24  C   UNL     1      40.475 -18.553 -36.708  0.00  0.00    -0.059 C 
ATOM     25  C   UNL     1      40.321 -20.825 -35.868  0.00  0.00    -0.047 C 
ATOM     26  C   UNL     1      38.849 -21.180 -35.949  0.00  0.00    -0.049 C 
ATOM     27  C   UNL     1      38.211 -21.274 -34.559  0.00  0.00    -0.028 C 
ENDROOT
BRANCH  14  28
ATOM     28  C   UNL     1      44.108 -14.859 -33.278  0.00  0.00    +0.093 C 
ATOM     29  C   UNL     1      44.598 -15.547 -32.037  0.00  0.00    -0.033 C 
ATOM     30  C   UNL     1      44.157 -13.342 -33.321  0.00  0.00    +0.077 C 
ATOM     31  O   UNL     1      42.948 -14.045 -33.013  0.00  0.00    -0.368 OA
ENDBRANCH  14  28
BRANCH   4  32
ATOM     32  O   UNL     1      40.170 -23.449 -31.870  0.00  0.00    -0.210 OA
BRANCH  32  33
ATOM     33  S   UNL     1      40.953 -24.053 -31.827  0.00  0.00    +0.239 S 
ATOM     34  O   UNL     1      41.211 -23.387 -30.524  0.00  0.00    -0.116 OA
ATOM     35  O   UNL     1      41.737 -24.658 -31.785  0.00  0.00    -0.116 OA
ATOM     36  O   UNL     1      39.938 -25.139 -31.855  0.00  0.00    -0.022 OA
ENDBRANCH  32  33
ENDBRANCH   4  32
BRANCH  19  37
ATOM     37  O   UNL     1      44.677 -20.085 -37.014  0.00  0.00    -0.210 OA
BRANCH  37  38
ATOM     38  S   UNL     1      44.647 -19.755 -37.911  0.00  0.00    +0.239 S 
ATOM     39  O   UNL     1      46.121 -19.914 -37.856  0.00  0.00    -0.116 OA
ATOM     40  O   UNL     1      44.617 -19.426 -38.808  0.00  0.00    -0.116 OA
ATOM     41  O   UNL     1      43.801 -20.953 -38.167  0.00  0.00    -0.022 OA
ENDBRANCH  37  38
ENDBRANCH  19  37
TORSDOF 5
ENDMDL
MODEL 3
REMARK VINA RESULT:    -8.239      4.529      7.264
REMARK INTER + INTRA:         -12.022
REMARK INTER:                 -10.535
REMARK INTRA:                  -1.487
REMARK UNBOUND:                -1.375
REMARK  Name = cpd283.pdb
REMARK  12 active torsions:
REMARK  status: ('A' for Active; 'I' for Inactive)
REMARK    1  A    between atoms: C_1  and  C_2
REMARK    2  A    between atoms: C_2  and  C_3
REMARK    3  A    between atoms: C_4  and  O_5
REMARK    4  A    between atoms: O_5  and  S_6
REMARK    5  A    between atoms: C_12  and  C_13
REMARK    6  A    between atoms: C_19  and  C_20
REMARK    7  A    between atoms: C_20  and  C_21
REMARK    8  A    between atoms: C_26  and  C_27
REMARK    9  A    between atoms: C_28  and  O_29
REMARK   10  A    between atoms: O_29  and  S_30
REMARK   11  A    between atoms: C_35  and  C_36
REMARK   12  A    between atoms: C_37  and  C_38
REMARK                            x       y       z     vdW  Elec       q    Type
REMARK                         _______ _______ _______ _____ _____    ______ ____
ROOT
ATOM      1  C   UNL     1      45.450 -18.697 -39.532  0.00  0.00    -0.057 C 
ATOM      2  C   UNL     1      44.320 -18.220 -38.574  0.00  0.00    -0.003 C 
ATOM      3  C   UNL     1      44.382 -16.673 -38.669  0.00  0.00    -0.057 C 
ATOM      4  C   UNL     1      44.515 -18.587 -37.029  0.00  0.00    +0.095 C 
ATOM      5  C   UNL     1      43.812 -19.909 -36.743  0.00  0.00    -0.023 C 
ATOM      6  C   UNL     1      43.669 -20.888 -37.873  0.00  0.00    -0.045 C 
ATOM      7  C   UNL     1      42.603 -20.355 -38.828  0.00  0.00    -0.025 C 
ATOM      8  C   UNL     1      42.724 -21.183 -40.134  0.00  0.00    -0.059 C 
ATOM      9  C   UNL     1      41.113 -20.588 -38.242  0.00  0.00    -0.029 C 
ATOM     10  C   UNL     1      40.707 -22.044 -37.821  0.00  0.00    -0.049 C 
ATOM     11  C   UNL     1      39.917 -22.331 -36.501  0.00  0.00    -0.049 C 
ATOM     12  C   UNL     1      39.509 -21.148 -35.595  0.00  0.00    -0.031 C 
ATOM     13  C   UNL     1      39.137 -21.492 -34.122  0.00  0.00    -0.024 C 
ATOM     14  C   UNL     1      37.925 -22.469 -33.972  0.00  0.00    -0.006 C 
ATOM     15  C   UNL     1      37.052 -21.837 -32.891  0.00  0.00    -0.047 C 
ATOM     16  C   UNL     1      37.257 -20.351 -33.081  0.00  0.00    -0.045 C 
ATOM     17  C   UNL     1      38.776 -20.158 -33.341  0.00  0.00    -0.000 C 
ATOM     18  C   UNL     1      39.526 -20.139 -31.988  0.00  0.00    -0.057 C 
ATOM     19  C   UNL     1      39.100 -18.800 -34.207  0.00  0.00    +0.096 C 
ATOM     20  C   UNL     1      40.480 -18.836 -34.732  0.00  0.00    -0.018 C 
ATOM     21  C   UNL     1      40.624 -20.052 -35.675  0.00  0.00    -0.021 C 
ATOM     22  C   UNL     1      41.854 -20.787 -35.022  0.00  0.00    -0.059 C 
ATOM     23  C   UNL     1      40.574 -19.520 -37.242  0.00  0.00    -0.023 C 
ATOM     24  C   UNL     1      39.075 -19.278 -37.729  0.00  0.00    -0.059 C 
ATOM     25  C   UNL     1      41.185 -18.102 -37.493  0.00  0.00    -0.047 C 
ATOM     26  C   UNL     1      41.705 -17.931 -38.907  0.00  0.00    -0.049 C 
ATOM     27  C   UNL     1      42.928 -18.814 -39.172  0.00  0.00    -0.028 C 
ENDROOT
BRANCH  14  28
ATOM     28  C   UNL     1      38.326 -23.912 -33.658  0.00  0.00    +0.093 C 
ATOM     29  C   UNL     1      39.615 -24.137 -32.923  0.00  0.00    -0.033 C 
ATOM     30  C   UNL     1      37.284 -25.015 -33.628  0.00  0.00    +0.077 C 
ATOM     31  O   UNL     1      38.162 -24.844 -34.745  0.00  0.00    -0.368 OA
ENDBRANCH  14  28
BRANCH   4  32
ATOM     32  O   UNL     1      45.817 -18.680 -36.446  0.00  0.00    -0.210 OA
BRANCH  32  33
ATOM     33  S   UNL     1      45.934 -18.766 -35.466  0.00  0.00    +0.239 S 
ATOM     34  O   UNL     1      47.152 -19.539 -35.826  0.00  0.00    -0.116 OA
ATOM     35  O   UNL     1      46.050 -18.852 -34.486  0.00  0.00    -0.116 OA
ATOM     36  O   UNL     1      46.030 -17.282 -35.491  0.00  0.00    -0.022 OA
ENDBRANCH  32  33
ENDBRANCH   4  32
BRANCH  19  37
ATOM     37  O   UNL     1      38.838 -17.483 -33.627  0.00  0.00    -0.210 OA
BRANCH  37  38
ATOM     38  S   UNL     1      38.706 -16.835 -34.318  0.00  0.00    +0.239 S 
ATOM     39  O   UNL     1      37.266 -17.108 -34.088  0.00  0.00    -0.116 OA
ATOM     40  O   UNL     1      38.575 -16.188 -35.009  0.00  0.00    -0.116 OA
ATOM     41  O   UNL     1      39.424 -15.917 -33.392  0.00  0.00    -0.022 OA
ENDBRANCH  37  38
ENDBRANCH  19  37
TORSDOF 5
ENDMDL
MODEL 4
REMARK VINA RESULT:    -7.705     21.278     23.801
REMARK INTER + INTRA:         -11.332
REMARK INTER:                 -10.105
REMARK INTRA:                  -1.227
REMARK UNBOUND:                -1.375
REMARK  Name = cpd283.pdb
REMARK  12 active torsions:
REMARK  status: ('A' for Active; 'I' for Inactive)
REMARK    1  A    between atoms: C_1  and  C_2
REMARK    2  A    between atoms: C_2  and  C_3
REMARK    3  A    between atoms: C_4  and  O_5
REMARK    4  A    between atoms: O_5  and  S_6
REMARK    5  A    between atoms: C_12  and  C_13
REMARK    6  A    between atoms: C_19  and  C_20
REMARK    7  A    between atoms: C_20  and  C_21
REMARK    8  A    between atoms: C_26  and  C_27
REMARK    9  A    between atoms: C_28  and  O_29
REMARK   10  A    between atoms: O_29  and  S_30
REMARK   11  A    between atoms: C_35  and  C_36
REMARK   12  A    between atoms: C_37  and  C_38
REMARK                            x       y       z     vdW  Elec       q    Type
REMARK                         _______ _______ _______ _____ _____    ______ ____
ROOT
ATOM      1  C   UNL     1      36.919 -40.423 -28.653  0.00  0.00    -0.057 C 
ATOM      2  C   UNL     1      36.453 -38.944 -28.776  0.00  0.00    -0.003 C 
ATOM      3  C   UNL     1      37.610 -38.136 -28.131  0.00  0.00    -0.057 C 
ATOM      4  C   UNL     1      35.127 -38.561 -27.967  0.00  0.00    +0.095 C 
ATOM      5  C   UNL     1      33.923 -38.720 -28.889  0.00  0.00    -0.023 C 
ATOM      6  C   UNL     1      34.020 -39.720 -30.006  0.00  0.00    -0.045 C 
ATOM      7  C   UNL     1      34.951 -39.148 -31.072  0.00  0.00    -0.025 C 
ATOM      8  C   UNL     1      35.307 -40.320 -32.025  0.00  0.00    -0.059 C 
ATOM      9  C   UNL     1      34.212 -38.012 -31.956  0.00  0.00    -0.029 C 
ATOM     10  C   UNL     1      32.851 -38.384 -32.644  0.00  0.00    -0.049 C 
ATOM     11  C   UNL     1      31.633 -37.403 -32.646  0.00  0.00    -0.049 C 
ATOM     12  C   UNL     1      31.776 -36.022 -31.968  0.00  0.00    -0.031 C 
ATOM     13  C   UNL     1      30.455 -35.282 -31.605  0.00  0.00    -0.024 C 
ATOM     14  C   UNL     1      29.534 -34.965 -32.828  0.00  0.00    -0.006 C 
ATOM     15  C   UNL     1      29.117 -33.510 -32.631  0.00  0.00    -0.047 C 
ATOM     16  C   UNL     1      30.314 -32.877 -31.956  0.00  0.00    -0.045 C 
ATOM     17  C   UNL     1      30.798 -33.903 -30.895  0.00  0.00    -0.000 C 
ATOM     18  C   UNL     1      29.938 -33.759 -29.617  0.00  0.00    -0.057 C 
ATOM     19  C   UNL     1      32.395 -33.741 -30.545  0.00  0.00    +0.096 C 
ATOM     20  C   UNL     1      32.891 -34.930 -29.823  0.00  0.00    -0.018 C 
ATOM     21  C   UNL     1      32.721 -36.171 -30.729  0.00  0.00    -0.021 C 
ATOM     22  C   UNL     1      31.880 -37.112 -29.786  0.00  0.00    -0.059 C 
ATOM     23  C   UNL     1      34.195 -36.566 -31.373  0.00  0.00    -0.023 C 
ATOM     24  C   UNL     1      34.544 -35.653 -32.633  0.00  0.00    -0.059 C 
ATOM     25  C   UNL     1      35.431 -36.273 -30.460  0.00  0.00    -0.047 C 
ATOM     26  C   UNL     1      36.605 -37.186 -30.756  0.00  0.00    -0.049 C 
ATOM     27  C   UNL     1      36.308 -38.637 -30.368  0.00  0.00    -0.028 C 
ENDROOT
BRANCH  14  28
ATOM     28  C   UNL     1      28.345 -35.919 -32.973  0.00  0.00    +0.093 C 
ATOM     29  C   UNL     1      27.701 -36.431 -31.718  0.00  0.00    -0.033 C 
ATOM     30  C   UNL     1      27.541 -35.962 -34.260  0.00  0.00    +0.077 C 
ATOM     31  O   UNL     1      28.515 -36.964 -33.951  0.00  0.00    -0.368 OA
ENDBRANCH  14  28
BRANCH   4  32
ATOM     32  O   UNL     1      34.792 -39.211 -26.739  0.00  0.00    -0.210 OA
BRANCH  32  33
ATOM     33  S   UNL     1      34.023 -38.909 -26.193  0.00  0.00    +0.239 S 
ATOM     34  O   UNL     1      34.093 -40.272 -25.604  0.00  0.00    -0.116 OA
ATOM     35  O   UNL     1      33.253 -38.606 -25.648  0.00  0.00    -0.116 OA
ATOM     36  O   UNL     1      34.972 -37.887 -25.677  0.00  0.00    -0.022 OA
ENDBRANCH  32  33
ENDBRANCH   4  32
BRANCH  19  37
ATOM     37  O   UNL     1      32.879 -32.534 -29.876  0.00  0.00    -0.210 OA
BRANCH  37  38
ATOM     38  S   UNL     1      33.535 -32.095 -30.416  0.00  0.00    +0.239 S 
ATOM     39  O   UNL     1      32.616 -30.935 -30.320  0.00  0.00    -0.116 OA
ATOM     40  O   UNL     1      34.192 -31.657 -30.955  0.00  0.00    -0.116 OA
ATOM     41  O   UNL     1      34.451 -32.387 -29.279  0.00  0.00    -0.022 OA
ENDBRANCH  37  38
ENDBRANCH  19  37
TORSDOF 5
ENDMDL
MODEL 5
REMARK VINA RESULT:    -7.680      3.686      6.434
REMARK INTER + INTRA:         -11.299
REMARK INTER:                  -9.767
REMARK INTRA:                  -1.532
REMARK UNBOUND:                -1.375
REMARK  Name = cpd283.pdb
REMARK  12 active torsions:
REMARK  status: ('A' for Active; 'I' for Inactive)
REMARK    1  A    between atoms: C_1  and  C_2
REMARK    2  A    between atoms: C_2  and  C_3
REMARK    3  A    between atoms: C_4  and  O_5
REMARK    4  A    between atoms: O_5  and  S_6
REMARK    5  A    between atoms: C_12  and  C_13
REMARK    6  A    between atoms: C_19  and  C_20
REMARK    7  A    between atoms: C_20  and  C_21
REMARK    8  A    between atoms: C_26  and  C_27
REMARK    9  A    between atoms: C_28  and  O_29
REMARK   10  A    between atoms: O_29  and  S_30
REMARK   11  A    between atoms: C_35  and  C_36
REMARK   12  A    between atoms: C_37  and  C_38
REMARK                            x       y       z     vdW  Elec       q    Type
REMARK                         _______ _______ _______ _____ _____    ______ ____
ROOT
ATOM      1  C   UNL     1      47.191 -17.123 -36.143  0.00  0.00    -0.057 C 
ATOM      2  C   UNL     1      46.059 -18.180 -36.297  0.00  0.00    -0.003 C 
ATOM      3  C   UNL     1      46.758 -19.371 -37.005  0.00  0.00    -0.057 C 
ATOM      4  C   UNL     1      44.831 -17.756 -37.232  0.00  0.00    +0.095 C 
ATOM      5  C   UNL     1      43.743 -17.133 -36.364  0.00  0.00    -0.023 C 
ATOM      6  C   UNL     1      44.162 -16.455 -35.090  0.00  0.00    -0.045 C 
ATOM      7  C   UNL     1      44.554 -17.536 -34.086  0.00  0.00    -0.025 C 
ATOM      8  C   UNL     1      45.301 -16.817 -32.931  0.00  0.00    -0.059 C 
ATOM      9  C   UNL     1      43.251 -18.254 -33.448  0.00  0.00    -0.029 C 
ATOM     10  C   UNL     1      42.161 -17.342 -32.784  0.00  0.00    -0.049 C 
ATOM     11  C   UNL     1      40.632 -17.584 -33.015  0.00  0.00    -0.049 C 
ATOM     12  C   UNL     1      40.182 -18.762 -33.907  0.00  0.00    -0.031 C 
ATOM     13  C   UNL     1      38.728 -18.701 -34.462  0.00  0.00    -0.024 C 
ATOM     14  C   UNL     1      37.617 -18.664 -33.362  0.00  0.00    -0.006 C 
ATOM     15  C   UNL     1      36.582 -19.687 -33.824  0.00  0.00    -0.047 C 
ATOM     16  C   UNL     1      37.404 -20.743 -34.529  0.00  0.00    -0.045 C 
ATOM     17  C   UNL     1      38.455 -19.972 -35.374  0.00  0.00    -0.000 C 
ATOM     18  C   UNL     1      37.808 -19.518 -36.704  0.00  0.00    -0.057 C 
ATOM     19  C   UNL     1      39.808 -20.860 -35.658  0.00  0.00    +0.096 C 
ATOM     20  C   UNL     1      40.904 -19.996 -36.141  0.00  0.00    -0.018 C 
ATOM     21  C   UNL     1      41.235 -18.953 -35.049  0.00  0.00    -0.021 C 
ATOM     22  C   UNL     1      41.081 -17.614 -35.864  0.00  0.00    -0.059 C 
ATOM     23  C   UNL     1      42.619 -19.420 -34.267  0.00  0.00    -0.023 C 
ATOM     24  C   UNL     1      42.318 -20.529 -33.162  0.00  0.00    -0.059 C 
ATOM     25  C   UNL     1      43.669 -20.174 -35.147  0.00  0.00    -0.047 C 
ATOM     26  C   UNL     1      45.087 -20.005 -34.637  0.00  0.00    -0.049 C 
ATOM     27  C   UNL     1      45.577 -18.562 -34.791  0.00  0.00    -0.028 C 
ENDROOT
BRANCH  14  28
ATOM     28  C   UNL     1      37.025 -17.273 -33.124  0.00  0.00    +0.093 C 
ATOM     29  C   UNL     1      36.906 -16.351 -34.303  0.00  0.00    -0.033 C 
ATOM     30  C   UNL     1      36.155 -16.999 -31.910  0.00  0.00    +0.077 C 
ATOM     31  O   UNL     1      37.525 -16.587 -31.959  0.00  0.00    -0.368 OA
ENDBRANCH  14  28
BRANCH   4  32
ATOM     32  O   UNL     1      45.014 -16.884 -38.349  0.00  0.00    -0.210 OA
BRANCH  32  33
ATOM     33  S   UNL     1      44.318 -16.795 -39.048  0.00  0.00    +0.239 S 
ATOM     34  O   UNL     1      44.898 -15.441 -39.247  0.00  0.00    -0.116 OA
ATOM     35  O   UNL     1      43.621 -16.706 -39.747  0.00  0.00    -0.116 OA
ATOM     36  O   UNL     1      45.015 -17.942 -39.688  0.00  0.00    -0.022 OA
ENDBRANCH  32  33
ENDBRANCH   4  32
BRANCH  19  37
ATOM     37  O   UNL     1      39.735 -22.059 -36.493  0.00  0.00    -0.210 OA
BRANCH  37  38
ATOM     38  S   UNL     1      40.471 -22.640 -36.307  0.00  0.00    +0.239 S 
ATOM     39  O   UNL     1      39.500 -23.338 -35.429  0.00  0.00    -0.116 OA
ATOM     40  O   UNL     1      41.207 -23.220 -36.120  0.00  0.00    -0.116 OA
ATOM     41  O   UNL     1      40.443 -22.906 -37.771  0.00  0.00    -0.022 OA
ENDBRANCH  37  38
ENDBRANCH  19  37
TORSDOF 5
ENDMDL
MODEL 6
REMARK VINA RESULT:    -7.264      3.566      5.356
REMARK INTER + INTRA:         -10.762
REMARK INTER:                  -9.276
REMARK INTRA:                  -1.486
REMARK UNBOUND:                -1.375
REMARK  Name = cpd283.pdb
REMARK  12 active torsions:
REMARK  status: ('A' for Active; 'I' for Inactive)
REMARK    1  A    between atoms: C_1  and  C_2
REMARK    2  A    between atoms: C_2  and  C_3
REMARK    3  A    between atoms: C_4  and  O_5
REMARK    4  A    between atoms: O_5  and  S_6
REMARK    5  A    between atoms: C_12  and  C_13
REMARK    6  A    between atoms: C_19  and  C_20
REMARK    7  A    between atoms: C_20  and  C_21
REMARK    8  A    between atoms: C_26  and  C_27
REMARK    9  A    between atoms: C_28  and  O_29
REMARK   10  A    between atoms: O_29  and  S_30
REMARK   11  A    between atoms: C_35  and  C_36
REMARK   12  A    between atoms: C_37  and  C_38
REMARK                            x       y       z     vdW  Elec       q    Type
REMARK                         _______ _______ _______ _____ _____    ______ ____
ROOT
ATOM      1  C   UNL     1      46.789 -18.501 -38.198  0.00  0.00    -0.057 C 
ATOM      2  C   UNL     1      45.774 -19.320 -37.349  0.00  0.00    -0.003 C 
ATOM      3  C   UNL     1      46.465 -20.698 -37.172  0.00  0.00    -0.057 C 
ATOM      4  C   UNL     1      44.360 -19.608 -38.040  0.00  0.00    +0.095 C 
ATOM      5  C   UNL     1      43.380 -18.511 -37.636  0.00  0.00    -0.023 C 
ATOM      6  C   UNL     1      43.941 -17.159 -37.296  0.00  0.00    -0.045 C 
ATOM      7  C   UNL     1      44.624 -17.259 -35.935  0.00  0.00    -0.025 C 
ATOM      8  C   UNL     1      45.479 -15.975 -35.773  0.00  0.00    -0.059 C 
ATOM      9  C   UNL     1      43.544 -17.277 -34.730  0.00  0.00    -0.029 C 
ATOM     10  C   UNL     1      42.494 -16.114 -34.665  0.00  0.00    -0.049 C 
ATOM     11  C   UNL     1      40.985 -16.380 -34.347  0.00  0.00    -0.049 C 
ATOM     12  C   UNL     1      40.518 -17.827 -34.071  0.00  0.00    -0.031 C 
ATOM     13  C   UNL     1      38.991 -18.104 -34.202  0.00  0.00    -0.024 C 
ATOM     14  C   UNL     1      38.096 -17.267 -33.230  0.00  0.00    -0.006 C 
ATOM     15  C   UNL     1      37.116 -18.278 -32.640  0.00  0.00    -0.047 C 
ATOM     16  C   UNL     1      37.913 -19.563 -32.579  0.00  0.00    -0.045 C 
ATOM     17  C   UNL     1      38.705 -19.639 -33.913  0.00  0.00    -0.000 C 
ATOM     18  C   UNL     1      37.784 -20.205 -35.020  0.00  0.00    -0.057 C 
ATOM     19  C   UNL     1      40.076 -20.534 -33.781  0.00  0.00    +0.096 C 
ATOM     20  C   UNL     1      40.965 -20.294 -34.936  0.00  0.00    -0.018 C 
ATOM     21  C   UNL     1      41.366 -18.801 -34.955  0.00  0.00    -0.021 C 
ATOM     22  C   UNL     1      40.921 -18.395 -36.410  0.00  0.00    -0.059 C 
ATOM     23  C   UNL     1      42.910 -18.656 -34.373  0.00  0.00    -0.023 C 
ATOM     24  C   UNL     1      42.936 -18.677 -32.779  0.00  0.00    -0.059 C 
ATOM     25  C   UNL     1      43.865 -19.855 -34.687  0.00  0.00    -0.047 C 
ATOM     26  C   UNL     1      45.323 -19.442 -34.738  0.00  0.00    -0.049 C 
ATOM     27  C   UNL     1      45.614 -18.531 -35.935  0.00  0.00    -0.028 C 
ENDROOT
BRANCH  14  28
ATOM     28  C   UNL     1      37.405 -16.075 -33.895  0.00  0.00    +0.093 C 
ATOM     29  C   UNL     1      36.927 -16.241 -35.307  0.00  0.00    -0.033 C 
ATOM     30  C   UNL     1      36.786 -14.972 -33.054  0.00  0.00    +0.077 C 
ATOM     31  O   UNL     1      38.053 -14.803 -33.697  0.00  0.00    -0.368 OA
ENDBRANCH  14  28
BRANCH   4  32
ATOM     32  O   UNL     1      44.242 -19.762 -39.456  0.00  0.00    -0.210 OA
BRANCH  32  33
ATOM     33  S   UNL     1      43.474 -20.244 -39.856  0.00  0.00    +0.239 S 
ATOM     34  O   UNL     1      43.640 -19.278 -40.974  0.00  0.00    -0.116 OA
ATOM     35  O   UNL     1      42.707 -20.725 -40.256  0.00  0.00    -0.116 OA
ATOM     36  O   UNL     1      44.382 -21.422 -39.827  0.00  0.00    -0.022 OA
ENDBRANCH  32  33
ENDBRANCH   4  32
BRANCH  19  37
ATOM     37  O   UNL     1      39.990 -21.972 -33.529  0.00  0.00    -0.210 OA
BRANCH  37  38
ATOM     38  S   UNL     1      40.760 -22.272 -33.048  0.00  0.00    +0.239 S 
ATOM     39  O   UNL     1      39.857 -22.215 -31.872  0.00  0.00    -0.116 OA
ATOM     40  O   UNL     1      41.530 -22.572 -32.567  0.00  0.00    -0.116 OA
ATOM     41  O   UNL     1      40.688 -23.449 -33.957  0.00  0.00    -0.022 OA
ENDBRANCH  37  38
ENDBRANCH  19  37
TORSDOF 5
ENDMDL
MODEL 7
REMARK VINA RESULT:    -7.114      3.725      7.555
REMARK INTER + INTRA:         -10.569
REMARK INTER:                  -9.120
REMARK INTRA:                  -1.449
REMARK UNBOUND:                -1.375
REMARK  Name = cpd283.pdb
REMARK  12 active torsions:
REMARK  status: ('A' for Active; 'I' for Inactive)
REMARK    1  A    between atoms: C_1  and  C_2
REMARK    2  A    between atoms: C_2  and  C_3
REMARK    3  A    between atoms: C_4  and  O_5
REMARK    4  A    between atoms: O_5  and  S_6
REMARK    5  A    between atoms: C_12  and  C_13
REMARK    6  A    between atoms: C_19  and  C_20
REMARK    7  A    between atoms: C_20  and  C_21
REMARK    8  A    between atoms: C_26  and  C_27
REMARK    9  A    between atoms: C_28  and  O_29
REMARK   10  A    between atoms: O_29  and  S_30
REMARK   11  A    between atoms: C_35  and  C_36
REMARK   12  A    between atoms: C_37  and  C_38
REMARK                            x       y       z     vdW  Elec       q    Type
REMARK                         _______ _______ _______ _____ _____    ______ ____
ROOT
ATOM      1  C   UNL     1      37.190 -19.917 -34.407  0.00  0.00    -0.057 C 
ATOM      2  C   UNL     1      38.586 -19.244 -34.548  0.00  0.00    -0.003 C 
ATOM      3  C   UNL     1      38.727 -18.409 -33.248  0.00  0.00    -0.057 C 
ATOM      4  C   UNL     1      38.746 -18.218 -35.765  0.00  0.00    +0.095 C 
ATOM      5  C   UNL     1      39.299 -18.966 -36.972  0.00  0.00    -0.023 C 
ATOM      6  C   UNL     1      39.002 -20.435 -37.085  0.00  0.00    -0.045 C 
ATOM      7  C   UNL     1      39.851 -21.170 -36.051  0.00  0.00    -0.025 C 
ATOM      8  C   UNL     1      39.278 -22.608 -35.949  0.00  0.00    -0.059 C 
ATOM      9  C   UNL     1      41.392 -21.294 -36.529  0.00  0.00    -0.029 C 
ATOM     10  C   UNL     1      41.677 -21.929 -37.935  0.00  0.00    -0.049 C 
ATOM     11  C   UNL     1      42.731 -21.320 -38.918  0.00  0.00    -0.049 C 
ATOM     12  C   UNL     1      43.526 -20.067 -38.486  0.00  0.00    -0.031 C 
ATOM     13  C   UNL     1      44.211 -19.250 -39.621  0.00  0.00    -0.024 C 
ATOM     14  C   UNL     1      45.266 -20.054 -40.450  0.00  0.00    -0.006 C 
ATOM     15  C   UNL     1      46.471 -19.121 -40.549  0.00  0.00    -0.047 C 
ATOM     16  C   UNL     1      46.442 -18.351 -39.247  0.00  0.00    -0.045 C 
ATOM     17  C   UNL     1      44.952 -17.993 -38.996  0.00  0.00    -0.000 C 
ATOM     18  C   UNL     1      44.588 -16.728 -39.809  0.00  0.00    -0.057 C 
ATOM     19  C   UNL     1      44.616 -17.777 -37.402  0.00  0.00    +0.096 C 
ATOM     20  C   UNL     1      43.158 -17.793 -37.172  0.00  0.00    -0.018 C 
ATOM     21  C   UNL     1      42.600 -19.170 -37.599  0.00  0.00    -0.021 C 
ATOM     22  C   UNL     1      41.487 -18.733 -38.624  0.00  0.00    -0.059 C 
ATOM     23  C   UNL     1      42.320 -20.075 -36.240  0.00  0.00    -0.023 C 
ATOM     24  C   UNL     1      43.661 -20.748 -35.701  0.00  0.00    -0.059 C 
ATOM     25  C   UNL     1      41.877 -19.272 -34.973  0.00  0.00    -0.047 C 
ATOM     26  C   UNL     1      41.040 -20.100 -34.019  0.00  0.00    -0.049 C 
ATOM     27  C   UNL     1      39.675 -20.451 -34.619  0.00  0.00    -0.028 C 
ENDROOT
BRANCH  14  28
ATOM     28  C   UNL     1      44.756 -20.526 -41.813  0.00  0.00    +0.093 C 
ATOM     29  C   UNL     1      44.203 -19.492 -42.751  0.00  0.00    -0.033 C 
ATOM     30  C   UNL     1      45.221 -21.847 -42.399  0.00  0.00    +0.077 C 
ATOM     31  O   UNL     1      43.936 -21.711 -41.783  0.00  0.00    -0.368 OA
ENDBRANCH  14  28
BRANCH   4  32
ATOM     32  O   UNL     1      37.639 -17.444 -36.234  0.00  0.00    -0.210 OA
BRANCH  32  33
ATOM     33  S   UNL     1      37.776 -16.664 -36.829  0.00  0.00    +0.239 S 
ATOM     34  O   UNL     1      36.425 -17.005 -37.345  0.00  0.00    -0.116 OA
ATOM     35  O   UNL     1      37.914 -15.884 -37.424  0.00  0.00    -0.116 OA
ATOM     36  O   UNL     1      37.853 -15.890 -35.562  0.00  0.00    -0.022 OA
ENDBRANCH  32  33
ENDBRANCH   4  32
BRANCH  19  37
ATOM     37  O   UNL     1      45.207 -16.654 -36.675  0.00  0.00    -0.210 OA
BRANCH  37  38
ATOM     38  S   UNL     1      45.236 -16.842 -35.738  0.00  0.00    +0.239 S 
ATOM     39  O   UNL     1      46.649 -17.202 -36.010  0.00  0.00    -0.116 OA
ATOM     40  O   UNL     1      45.264 -17.030 -34.801  0.00  0.00    -0.116 OA
ATOM     41  O   UNL     1      44.872 -15.407 -35.588  0.00  0.00    -0.022 OA
ENDBRANCH  37  38
ENDBRANCH  19  37
TORSDOF 5
ENDMDL
MODEL 8
REMARK VINA RESULT:    -7.095      3.891      7.331
REMARK INTER + INTRA:         -10.543
REMARK INTER:                  -9.017
REMARK INTRA:                  -1.526
REMARK UNBOUND:                -1.375
REMARK  Name = cpd283.pdb
REMARK  12 active torsions:
REMARK  status: ('A' for Active; 'I' for Inactive)
REMARK    1  A    between atoms: C_1  and  C_2
REMARK    2  A    between atoms: C_2  and  C_3
REMARK    3  A    between atoms: C_4  and  O_5
REMARK    4  A    between atoms: O_5  and  S_6
REMARK    5  A    between atoms: C_12  and  C_13
REMARK    6  A    between atoms: C_19  and  C_20
REMARK    7  A    between atoms: C_20  and  C_21
REMARK    8  A    between atoms: C_26  and  C_27
REMARK    9  A    between atoms: C_28  and  O_29
REMARK   10  A    between atoms: O_29  and  S_30
REMARK   11  A    between atoms: C_35  and  C_36
REMARK   12  A    between atoms: C_37  and  C_38
REMARK                            x       y       z     vdW  Elec       q    Type
REMARK                         _______ _______ _______ _____ _____    ______ ____
ROOT
ATOM      1  C   UNL     1      36.504 -19.899 -34.568  0.00  0.00    -0.057 C 
ATOM      2  C   UNL     1      37.874 -19.282 -34.162  0.00  0.00    -0.003 C 
ATOM      3  C   UNL     1      37.579 -18.588 -32.806  0.00  0.00    -0.057 C 
ATOM      4  C   UNL     1      38.444 -18.148 -35.136  0.00  0.00    +0.095 C 
ATOM      5  C   UNL     1      39.363 -18.798 -36.165  0.00  0.00    -0.023 C 
ATOM      6  C   UNL     1      39.105 -20.232 -36.531  0.00  0.00    -0.045 C 
ATOM      7  C   UNL     1      39.549 -21.105 -35.361  0.00  0.00    -0.025 C 
ATOM      8  C   UNL     1      38.959 -22.518 -35.613  0.00  0.00    -0.059 C 
ATOM      9  C   UNL     1      41.160 -21.255 -35.309  0.00  0.00    -0.029 C 
ATOM     10  C   UNL     1      41.893 -21.759 -36.601  0.00  0.00    -0.049 C 
ATOM     11  C   UNL     1      43.222 -21.105 -37.103  0.00  0.00    -0.049 C 
ATOM     12  C   UNL     1      43.840 -19.940 -36.297  0.00  0.00    -0.031 C 
ATOM     13  C   UNL     1      44.876 -19.047 -37.043  0.00  0.00    -0.024 C 
ATOM     14  C   UNL     1      46.139 -19.813 -37.556  0.00  0.00    -0.006 C 
ATOM     15  C   UNL     1      47.318 -18.933 -37.146  0.00  0.00    -0.047 C 
ATOM     16  C   UNL     1      46.861 -18.296 -35.852  0.00  0.00    -0.045 C 
ATOM     17  C   UNL     1      45.378 -17.895 -36.073  0.00  0.00    -0.000 C 
ATOM     18  C   UNL     1      45.321 -16.540 -36.817  0.00  0.00    -0.057 C 
ATOM     19  C   UNL     1      44.528 -17.823 -34.668  0.00  0.00    +0.096 C 
ATOM     20  C   UNL     1      43.077 -17.793 -34.940  0.00  0.00    -0.018 C 
ATOM     21  C   UNL     1      42.680 -19.093 -35.676  0.00  0.00    -0.021 C 
ATOM     22  C   UNL     1      41.980 -18.505 -36.958  0.00  0.00    -0.059 C 
ATOM     23  C   UNL     1      41.950 -20.115 -34.596  0.00  0.00    -0.023 C 
ATOM     24  C   UNL     1      43.024 -20.901 -33.718  0.00  0.00    -0.059 C 
ATOM     25  C   UNL     1      41.116 -19.422 -33.469  0.00  0.00    -0.047 C 
ATOM     26  C   UNL     1      39.998 -20.301 -32.944  0.00  0.00    -0.049 C 
ATOM     27  C   UNL     1      38.910 -20.526 -33.999  0.00  0.00    -0.028 C 
ENDROOT
BRANCH  14  28
ATOM     28  C   UNL     1      46.111 -20.123 -39.055  0.00  0.00    +0.093 C 
ATOM     29  C   UNL     1      45.479 -19.112 -39.967  0.00  0.00    -0.033 C 
ATOM     30  C   UNL     1      47.083 -21.121 -39.657  0.00  0.00    +0.077 C 
ATOM     31  O   UNL     1      45.719 -21.467 -39.395  0.00  0.00    -0.368 OA
ENDBRANCH  14  28
BRANCH   4  32
ATOM     32  O   UNL     1      37.568 -17.280 -35.860  0.00  0.00    -0.210 OA
BRANCH  32  33
ATOM     33  S   UNL     1      37.905 -16.449 -36.281  0.00  0.00    +0.239 S 
ATOM     34  O   UNL     1      36.793 -16.661 -37.244  0.00  0.00    -0.116 OA
ATOM     35  O   UNL     1      38.242 -15.618 -36.703  0.00  0.00    -0.116 OA
ATOM     36  O   UNL     1      37.573 -15.820 -34.975  0.00  0.00    -0.022 OA
ENDBRANCH  32  33
ENDBRANCH   4  32
BRANCH  19  37
ATOM     37  O   UNL     1      44.853 -16.807 -33.667  0.00  0.00    -0.210 OA
BRANCH  37  38
ATOM     38  S   UNL     1      44.545 -17.080 -32.804  0.00  0.00    +0.239 S 
ATOM     39  O   UNL     1      45.921 -17.612 -32.650  0.00  0.00    -0.116 OA
ATOM     40  O   UNL     1      44.236 -17.353 -31.941  0.00  0.00    -0.116 OA
ATOM     41  O   UNL     1      44.304 -15.626 -32.593  0.00  0.00    -0.022 OA
ENDBRANCH  37  38
ENDBRANCH  19  37
TORSDOF 5
ENDMDL
MODEL 9
REMARK VINA RESULT:    -7.065     21.345     24.238
REMARK INTER + INTRA:         -10.504
REMARK INTER:                  -9.558
REMARK INTRA:                  -0.946
REMARK UNBOUND:                -1.375
REMARK  Name = cpd283.pdb
REMARK  12 active torsions:
REMARK  status: ('A' for Active; 'I' for Inactive)
REMARK    1  A    between atoms: C_1  and  C_2
REMARK    2  A    between atoms: C_2  and  C_3
REMARK    3  A    between atoms: C_4  and  O_5
REMARK    4  A    between atoms: O_5  and  S_6
REMARK    5  A    between atoms: C_12  and  C_13
REMARK    6  A    between atoms: C_19  and  C_20
REMARK    7  A    between atoms: C_20  and  C_21
REMARK    8  A    between atoms: C_26  and  C_27
REMARK    9  A    between atoms: C_28  and  O_29
REMARK   10  A    between atoms: O_29  and  S_30
REMARK   11  A    between atoms: C_35  and  C_36
REMARK   12  A    between atoms: C_37  and  C_38
REMARK                            x       y       z     vdW  Elec       q    Type
REMARK                         _______ _______ _______ _____ _____    ______ ____
ROOT
ATOM      1  C   UNL     1      30.180 -31.650 -29.442  0.00  0.00    -0.057 C 
ATOM      2  C   UNL     1      30.314 -32.975 -30.246  0.00  0.00    -0.003 C 
ATOM      3  C   UNL     1      29.188 -32.878 -31.309  0.00  0.00    -0.057 C 
ATOM      4  C   UNL     1      30.044 -34.320 -29.423  0.00  0.00    +0.095 C 
ATOM      5  C   UNL     1      31.371 -34.844 -28.885  0.00  0.00    -0.023 C 
ATOM      6  C   UNL     1      32.465 -33.849 -28.621  0.00  0.00    -0.045 C 
ATOM      7  C   UNL     1      33.019 -33.387 -29.966  0.00  0.00    -0.025 C 
ATOM      8  C   UNL     1      33.881 -32.128 -29.682  0.00  0.00    -0.059 C 
ATOM      9  C   UNL     1      33.992 -34.503 -30.620  0.00  0.00    -0.029 C 
ATOM     10  C   UNL     1      35.188 -35.035 -29.755  0.00  0.00    -0.049 C 
ATOM     11  C   UNL     1      35.555 -36.554 -29.700  0.00  0.00    -0.049 C 
ATOM     12  C   UNL     1      34.729 -37.559 -30.535  0.00  0.00    -0.031 C 
ATOM     13  C   UNL     1      34.828 -39.057 -30.121  0.00  0.00    -0.024 C 
ATOM     14  C   UNL     1      36.270 -39.656 -30.198  0.00  0.00    -0.006 C 
ATOM     15  C   UNL     1      36.094 -40.998 -30.905  0.00  0.00    -0.047 C 
ATOM     16  C   UNL     1      34.945 -40.757 -31.859  0.00  0.00    -0.045 C 
ATOM     17  C   UNL     1      33.897 -39.930 -31.065  0.00  0.00    -0.000 C 
ATOM     18  C   UNL     1      33.043 -40.886 -30.199  0.00  0.00    -0.057 C 
ATOM     19  C   UNL     1      32.941 -39.020 -32.043  0.00  0.00    +0.096 C 
ATOM     20  C   UNL     1      32.216 -38.001 -31.257  0.00  0.00    -0.018 C 
ATOM     21  C   UNL     1      33.245 -37.064 -30.585  0.00  0.00    -0.021 C 
ATOM     22  C   UNL     1      32.809 -37.181 -29.076  0.00  0.00    -0.059 C 
ATOM     23  C   UNL     1      33.308 -35.643 -31.434  0.00  0.00    -0.023 C 
ATOM     24  C   UNL     1      34.228 -35.779 -32.730  0.00  0.00    -0.059 C 
ATOM     25  C   UNL     1      31.962 -35.189 -32.089  0.00  0.00    -0.047 C 
ATOM     26  C   UNL     1      31.878 -33.686 -32.267  0.00  0.00    -0.049 C 
ATOM     27  C   UNL     1      31.794 -32.958 -30.921  0.00  0.00    -0.028 C 
ENDROOT
BRANCH  14  28
ATOM     28  C   UNL     1      36.966 -39.777 -28.840  0.00  0.00    +0.093 C 
ATOM     29  C   UNL     1      37.371 -41.147 -28.381  0.00  0.00    -0.033 C 
ATOM     30  C   UNL     1      37.659 -38.579 -28.216  0.00  0.00    +0.077 C 
ATOM     31  O   UNL     1      36.368 -39.013 -27.776  0.00  0.00    -0.368 OA
ENDBRANCH  14  28
BRANCH   4  32
ATOM     32  O   UNL     1      29.119 -34.352 -28.333  0.00  0.00    -0.210 OA
BRANCH  32  33
ATOM     33  S   UNL     1      28.455 -35.082 -28.247  0.00  0.00    +0.239 S 
ATOM     34  O   UNL     1      28.962 -35.180 -26.853  0.00  0.00    -0.116 OA
ATOM     35  O   UNL     1      27.791 -35.812 -28.161  0.00  0.00    -0.116 OA
ATOM     36  O   UNL     1      27.458 -34.018 -28.541  0.00  0.00    -0.022 OA
ENDBRANCH  32  33
ENDBRANCH   4  32
BRANCH  19  37
ATOM     37  O   UNL     1      32.010 -39.668 -32.967  0.00  0.00    -0.210 OA
BRANCH  37  38
ATOM     38  S   UNL     1      31.893 -39.134 -33.751  0.00  0.00    +0.239 S 
ATOM     39  O   UNL     1      32.873 -40.072 -34.351  0.00  0.00    -0.116 OA
ATOM     40  O   UNL     1      31.776 -38.599 -34.534  0.00  0.00    -0.116 OA
ATOM     41  O   UNL     1      30.468 -39.549 -33.642  0.00  0.00    -0.022 OA
ENDBRANCH  37  38
ENDBRANCH  19  37
TORSDOF 5
ENDMDL
MODEL 10
REMARK VINA RESULT:    -6.969      3.897      7.288
REMARK INTER + INTRA:         -10.380
REMARK INTER:                  -9.098
REMARK INTRA:                  -1.283
REMARK UNBOUND:                -1.375
REMARK  Name = cpd283.pdb
REMARK  12 active torsions:
REMARK  status: ('A' for Active; 'I' for Inactive)
REMARK    1  A    between atoms: C_1  and  C_2
REMARK    2  A    between atoms: C_2  and  C_3
REMARK    3  A    between atoms: C_4  and  O_5
REMARK    4  A    between atoms: O_5  and  S_6
REMARK    5  A    between atoms: C_12  and  C_13
REMARK    6  A    between atoms: C_19  and  C_20
REMARK    7  A    between atoms: C_20  and  C_21
REMARK    8  A    between atoms: C_26  and  C_27
REMARK    9  A    between atoms: C_28  and  O_29
REMARK   10  A    between atoms: O_29  and  S_30
REMARK   11  A    between atoms: C_35  and  C_36
REMARK   12  A    between atoms: C_37  and  C_38
REMARK                            x       y       z     vdW  Elec       q    Type
REMARK                         _______ _______ _______ _____ _____    ______ ____
ROOT
ATOM      1  C   UNL     1      37.993 -20.918 -33.718  0.00  0.00    -0.057 C 
ATOM      2  C   UNL     1      39.168 -21.013 -34.733  0.00  0.00    -0.003 C 
ATOM      3  C   UNL     1      39.672 -22.473 -34.581  0.00  0.00    -0.057 C 
ATOM      4  C   UNL     1      40.424 -20.067 -34.437  0.00  0.00    +0.095 C 
ATOM      5  C   UNL     1      40.246 -18.758 -35.199  0.00  0.00    -0.023 C 
ATOM      6  C   UNL     1      38.846 -18.303 -35.496  0.00  0.00    -0.045 C 
ATOM      7  C   UNL     1      38.283 -19.195 -36.599  0.00  0.00    -0.025 C 
ATOM      8  C   UNL     1      36.753 -18.940 -36.638  0.00  0.00    -0.059 C 
ATOM      9  C   UNL     1      38.879 -18.794 -38.049  0.00  0.00    -0.029 C 
ATOM     10  C   UNL     1      38.743 -17.301 -38.511  0.00  0.00    -0.049 C 
ATOM     11  C   UNL     1      39.921 -16.543 -39.209  0.00  0.00    -0.049 C 
ATOM     12  C   UNL     1      41.250 -17.289 -39.465  0.00  0.00    -0.031 C 
ATOM     13  C   UNL     1      42.505 -16.407 -39.737  0.00  0.00    -0.024 C 
ATOM     14  C   UNL     1      42.386 -15.484 -40.993  0.00  0.00    -0.006 C 
ATOM     15  C   UNL     1      43.709 -15.666 -41.733  0.00  0.00    -0.047 C 
ATOM     16  C   UNL     1      44.088 -17.103 -41.449  0.00  0.00    -0.045 C 
ATOM     17  C   UNL     1      43.772 -17.340 -39.948  0.00  0.00    -0.000 C 
ATOM     18  C   UNL     1      44.945 -16.809 -39.090  0.00  0.00    -0.057 C 
ATOM     19  C   UNL     1      43.470 -18.919 -39.608  0.00  0.00    +0.096 C 
ATOM     20  C   UNL     1      42.838 -19.053 -38.281  0.00  0.00    -0.018 C 
ATOM     21  C   UNL     1      41.489 -18.298 -38.292  0.00  0.00    -0.021 C 
ATOM     22  C   UNL     1      41.681 -17.333 -37.063  0.00  0.00    -0.059 C 
ATOM     23  C   UNL     1      40.262 -19.401 -38.435  0.00  0.00    -0.023 C 
ATOM     24  C   UNL     1      40.059 -19.855 -39.950  0.00  0.00    -0.059 C 
ATOM     25  C   UNL     1      40.518 -20.787 -37.756  0.00  0.00    -0.047 C 
ATOM     26  C   UNL     1      39.236 -21.481 -37.343  0.00  0.00    -0.049 C 
ATOM     27  C   UNL     1      38.529 -20.738 -36.204  0.00  0.00    -0.028 C 
ENDROOT
BRANCH  14  28
ATOM     28  C   UNL     1      42.077 -14.022 -40.662  0.00  0.00    +0.093 C 
ATOM     29  C   UNL     1      43.208 -13.036 -40.723  0.00  0.00    -0.033 C 
ATOM     30  C   UNL     1      40.659 -13.490 -40.756  0.00  0.00    +0.077 C 
ATOM     31  O   UNL     1      41.255 -13.818 -39.497  0.00  0.00    -0.368 OA
ENDBRANCH  14  28
BRANCH   4  32
ATOM     32  O   UNL     1      40.793 -19.718 -33.101  0.00  0.00    -0.210 OA
BRANCH  32  33
ATOM     33  S   UNL     1      41.663 -19.286 -32.907  0.00  0.00    +0.239 S 
ATOM     34  O   UNL     1      40.945 -18.699 -31.744  0.00  0.00    -0.116 OA
ATOM     35  O   UNL     1      42.533 -18.853 -32.713  0.00  0.00    -0.116 OA
ATOM     36  O   UNL     1      42.164 -20.680 -32.773  0.00  0.00    -0.022 OA
ENDBRANCH  32  33
ENDBRANCH   4  32
BRANCH  19  37
ATOM     37  O   UNL     1      44.537 -19.912 -39.737  0.00  0.00    -0.210 OA
BRANCH  37  38
ATOM     38  S   UNL     1      44.167 -20.792 -39.788  0.00  0.00    +0.239 S 
ATOM     39  O   UNL     1      44.256 -20.579 -41.253  0.00  0.00    -0.116 OA
ATOM     40  O   UNL     1      43.798 -21.672 -39.838  0.00  0.00    -0.116 OA
ATOM     41  O   UNL     1      45.392 -21.190 -39.041  0.00  0.00    -0.022 OA
ENDBRANCH  37  38
ENDBRANCH  19  37
TORSDOF 5
ENDMDL
MODEL 11
REMARK VINA RESULT:    -6.941      3.251      6.383
REMARK INTER + INTRA:         -10.344
REMARK INTER:                  -8.903
REMARK INTRA:                  -1.441
REMARK UNBOUND:                -1.375
REMARK  Name = cpd283.pdb
REMARK  12 active torsions:
REMARK  status: ('A' for Active; 'I' for Inactive)
REMARK    1  A    between atoms: C_1  and  C_2
REMARK    2  A    between atoms: C_2  and  C_3
REMARK    3  A    between atoms: C_4  and  O_5
REMARK    4  A    between atoms: O_5  and  S_6
REMARK    5  A    between atoms: C_12  and  C_13
REMARK    6  A    between atoms: C_19  and  C_20
REMARK    7  A    between atoms: C_20  and  C_21
REMARK    8  A    between atoms: C_26  and  C_27
REMARK    9  A    between atoms: C_28  and  O_29
REMARK   10  A    between atoms: O_29  and  S_30
REMARK   11  A    between atoms: C_35  and  C_36
REMARK   12  A    between atoms: C_37  and  C_38
REMARK                            x       y       z     vdW  Elec       q    Type
REMARK                         _______ _______ _______ _____ _____    ______ ____
ROOT
ATOM      1  C   UNL     1      38.435 -20.760 -34.424  0.00  0.00    -0.057 C 
ATOM      2  C   UNL     1      39.952 -20.416 -34.384  0.00  0.00    -0.003 C 
ATOM      3  C   UNL     1      40.488 -21.247 -33.188  0.00  0.00    -0.057 C 
ATOM      4  C   UNL     1      40.313 -18.889 -34.072  0.00  0.00    +0.095 C 
ATOM      5  C   UNL     1      40.468 -18.139 -35.391  0.00  0.00    -0.023 C 
ATOM      6  C   UNL     1      39.699 -18.642 -36.579  0.00  0.00    -0.045 C 
ATOM      7  C   UNL     1      40.362 -19.930 -37.061  0.00  0.00    -0.025 C 
ATOM      8  C   UNL     1      39.365 -20.601 -38.042  0.00  0.00    -0.059 C 
ATOM      9  C   UNL     1      41.722 -19.625 -37.883  0.00  0.00    -0.029 C 
ATOM     10  C   UNL     1      41.641 -18.634 -39.097  0.00  0.00    -0.049 C 
ATOM     11  C   UNL     1      42.731 -17.539 -39.342  0.00  0.00    -0.049 C 
ATOM     12  C   UNL     1      43.930 -17.439 -38.373  0.00  0.00    -0.031 C 
ATOM     13  C   UNL     1      44.725 -16.100 -38.382  0.00  0.00    -0.024 C 
ATOM     14  C   UNL     1      45.371 -15.741 -39.759  0.00  0.00    -0.006 C 
ATOM     15  C   UNL     1      46.798 -15.316 -39.418  0.00  0.00    -0.047 C 
ATOM     16  C   UNL     1      47.153 -16.168 -38.219  0.00  0.00    -0.045 C 
ATOM     17  C   UNL     1      45.894 -16.171 -37.310  0.00  0.00    -0.000 C 
ATOM     18  C   UNL     1      45.881 -14.884 -36.452  0.00  0.00    -0.057 C 
ATOM     19  C   UNL     1      45.810 -17.507 -36.356  0.00  0.00    +0.096 C 
ATOM     20  C   UNL     1      44.457 -17.650 -35.782  0.00  0.00    -0.018 C 
ATOM     21  C   UNL     1      43.441 -17.819 -36.935  0.00  0.00    -0.021 C 
ATOM     22  C   UNL     1      42.433 -16.652 -36.613  0.00  0.00    -0.059 C 
ATOM     23  C   UNL     1      43.020 -19.417 -37.046  0.00  0.00    -0.023 C 
ATOM     24  C   UNL     1      44.117 -20.255 -37.845  0.00  0.00    -0.059 C 
ATOM     25  C   UNL     1      42.994 -20.203 -35.693  0.00  0.00    -0.047 C 
ATOM     26  C   UNL     1      42.034 -21.376 -35.718  0.00  0.00    -0.049 C 
ATOM     27  C   UNL     1      40.575 -20.914 -35.802  0.00  0.00    -0.028 C 
ENDROOT
BRANCH  14  28
ATOM     28  C   UNL     1      44.600 -14.681 -40.550  0.00  0.00    +0.093 C 
ATOM     29  C   UNL     1      43.671 -13.780 -39.790  0.00  0.00    -0.033 C 
ATOM     30  C   UNL     1      45.091 -14.220 -41.910  0.00  0.00    +0.077 C 
ATOM     31  O   UNL     1      44.007 -15.145 -41.778  0.00  0.00    -0.368 OA
ENDBRANCH  14  28
BRANCH   4  32
ATOM     32  O   UNL     1      39.477 -18.083 -33.238  0.00  0.00    -0.210 OA
BRANCH  32  33
ATOM     33  S   UNL     1      39.811 -17.237 -32.844  0.00  0.00    +0.239 S 
ATOM     34  O   UNL     1      38.376 -16.850 -32.827  0.00  0.00    -0.116 OA
ATOM     35  O   UNL     1      40.145 -16.392 -32.450  0.00  0.00    -0.116 OA
ATOM     36  O   UNL     1      40.300 -18.109 -31.743  0.00  0.00    -0.022 OA
ENDBRANCH  32  33
ENDBRANCH   4  32
BRANCH  19  37
ATOM     37  O   UNL     1      46.805 -17.720 -35.305  0.00  0.00    -0.210 OA
BRANCH  37  38
ATOM     38  S   UNL     1      46.751 -18.614 -34.972  0.00  0.00    +0.239 S 
ATOM     39  O   UNL     1      47.717 -18.912 -36.059  0.00  0.00    -0.116 OA
ATOM     40  O   UNL     1      46.698 -19.509 -34.640  0.00  0.00    -0.116 OA
ATOM     41  O   UNL     1      47.253 -18.017 -33.705  0.00  0.00    -0.022 OA
ENDBRANCH  37  38
ENDBRANCH  19  37
TORSDOF 5
ENDMDL
MODEL 12
REMARK VINA RESULT:    -6.827      2.891      7.340
REMARK INTER + INTRA:         -10.197
REMARK INTER:                  -8.732
REMARK INTRA:                  -1.466
REMARK UNBOUND:                -1.375
REMARK  Name = cpd283.pdb
REMARK  12 active torsions:
REMARK  status: ('A' for Active; 'I' for Inactive)
REMARK    1  A    between atoms: C_1  and  C_2
REMARK    2  A    between atoms: C_2  and  C_3
REMARK    3  A    between atoms: C_4  and  O_5
REMARK    4  A    between atoms: O_5  and  S_6
REMARK    5  A    between atoms: C_12  and  C_13
REMARK    6  A    between atoms: C_19  and  C_20
REMARK    7  A    between atoms: C_20  and  C_21
REMARK    8  A    between atoms: C_26  and  C_27
REMARK    9  A    between atoms: C_28  and  O_29
REMARK   10  A    between atoms: O_29  and  S_30
REMARK   11  A    between atoms: C_35  and  C_36
REMARK   12  A    between atoms: C_37  and  C_38
REMARK                            x       y       z     vdW  Elec       q    Type
REMARK                         _______ _______ _______ _____ _____    ______ ____
ROOT
ATOM      1  C   UNL     1      37.883 -15.871 -35.404  0.00  0.00    -0.057 C 
ATOM      2  C   UNL     1      39.329 -16.394 -35.167  0.00  0.00    -0.003 C 
ATOM      3  C   UNL     1      39.603 -16.063 -33.676  0.00  0.00    -0.057 C 
ATOM      4  C   UNL     1      40.480 -15.669 -36.010  0.00  0.00    +0.095 C 
ATOM      5  C   UNL     1      40.712 -16.450 -37.299  0.00  0.00    -0.023 C 
ATOM      6  C   UNL     1      39.562 -17.234 -37.863  0.00  0.00    -0.045 C 
ATOM      7  C   UNL     1      39.349 -18.462 -36.982  0.00  0.00    -0.025 C 
ATOM      8  C   UNL     1      37.966 -19.050 -37.368  0.00  0.00    -0.059 C 
ATOM      9  C   UNL     1      40.461 -19.601 -37.273  0.00  0.00    -0.029 C 
ATOM     10  C   UNL     1      40.643 -20.088 -38.754  0.00  0.00    -0.049 C 
ATOM     11  C   UNL     1      42.059 -20.317 -39.378  0.00  0.00    -0.049 C 
ATOM     12  C   UNL     1      43.314 -20.074 -38.509  0.00  0.00    -0.031 C 
ATOM     13  C   UNL     1      44.661 -19.880 -39.266  0.00  0.00    -0.024 C 
ATOM     14  C   UNL     1      45.089 -21.098 -40.148  0.00  0.00    -0.006 C 
ATOM     15  C   UNL     1      46.565 -21.311 -39.821  0.00  0.00    -0.047 C 
ATOM     16  C   UNL     1      46.678 -20.903 -38.369  0.00  0.00    -0.045 C 
ATOM     17  C   UNL     1      45.824 -19.615 -38.219  0.00  0.00    -0.000 C 
ATOM     18  C   UNL     1      46.657 -18.394 -38.678  0.00  0.00    -0.057 C 
ATOM     19  C   UNL     1      45.271 -19.400 -36.687  0.00  0.00    +0.096 C 
ATOM     20  C   UNL     1      44.195 -18.389 -36.660  0.00  0.00    -0.018 C 
ATOM     21  C   UNL     1      43.019 -18.889 -37.529  0.00  0.00    -0.021 C 
ATOM     22  C   UNL     1      42.849 -17.678 -38.521  0.00  0.00    -0.059 C 
ATOM     23  C   UNL     1      41.825 -19.460 -36.533  0.00  0.00    -0.023 C 
ATOM     24  C   UNL     1      42.136 -20.944 -36.040  0.00  0.00    -0.059 C 
ATOM     25  C   UNL     1      41.687 -18.728 -35.157  0.00  0.00    -0.047 C 
ATOM     26  C   UNL     1      40.282 -18.802 -34.594  0.00  0.00    -0.049 C 
ATOM     27  C   UNL     1      39.289 -17.998 -35.439  0.00  0.00    -0.028 C 
ENDROOT
BRANCH  14  28
ATOM     28  C   UNL     1      44.823 -20.907 -41.643  0.00  0.00    +0.093 C 
ATOM     29  C   UNL     1      44.710 -19.503 -42.160  0.00  0.00    -0.033 C 
ATOM     30  C   UNL     1      45.146 -22.011 -42.633  0.00  0.00    +0.077 C 
ATOM     31  O   UNL     1      43.806 -21.763 -42.198  0.00  0.00    -0.368 OA
ENDBRANCH  14  28
BRANCH   4  32
ATOM     32  O   UNL     1      40.376 -14.291 -36.377  0.00  0.00    -0.210 OA
BRANCH  32  33
ATOM     33  S   UNL     1      41.157 -13.798 -36.735  0.00  0.00    +0.239 S 
ATOM     34  O   UNL     1      40.132 -12.971 -37.425  0.00  0.00    -0.116 OA
ATOM     35  O   UNL     1      41.938 -13.304 -37.092  0.00  0.00    -0.116 OA
ATOM     36  O   UNL     1      41.438 -13.492 -35.306  0.00  0.00    -0.022 OA
ENDBRANCH  32  33
ENDBRANCH   4  32
BRANCH  19  37
ATOM     37  O   UNL     1      46.213 -19.131 -35.600  0.00  0.00    -0.210 OA
BRANCH  37  38
ATOM     38  S   UNL     1      45.802 -19.303 -34.754  0.00  0.00    +0.239 S 
ATOM     39  O   UNL     1      46.292 -20.687 -34.970  0.00  0.00    -0.116 OA
ATOM     40  O   UNL     1      45.392 -19.474 -33.908  0.00  0.00    -0.116 OA
ATOM     41  O   UNL     1      46.750 -18.272 -34.250  0.00  0.00    -0.022 OA
ENDBRANCH  37  38
ENDBRANCH  19  37
TORSDOF 5
ENDMDL
MODEL 13
REMARK VINA RESULT:    -6.791      3.909      7.939
REMARK INTER + INTRA:         -10.150
REMARK INTER:                  -8.703
REMARK INTRA:                  -1.447
REMARK UNBOUND:                -1.375
REMARK  Name = cpd283.pdb
REMARK  12 active torsions:
REMARK  status: ('A' for Active; 'I' for Inactive)
REMARK    1  A    between atoms: C_1  and  C_2
REMARK    2  A    between atoms: C_2  and  C_3
REMARK    3  A    between atoms: C_4  and  O_5
REMARK    4  A    between atoms: O_5  and  S_6
REMARK    5  A    between atoms: C_12  and  C_13
REMARK    6  A    between atoms: C_19  and  C_20
REMARK    7  A    between atoms: C_20  and  C_21
REMARK    8  A    between atoms: C_26  and  C_27
REMARK    9  A    between atoms: C_28  and  O_29
REMARK   10  A    between atoms: O_29  and  S_30
REMARK   11  A    between atoms: C_35  and  C_36
REMARK   12  A    between atoms: C_37  and  C_38
REMARK                            x       y       z     vdW  Elec       q    Type
REMARK                         _______ _______ _______ _____ _____    ______ ____
ROOT
ATOM      1  C   UNL     1      36.801 -17.706 -33.460  0.00  0.00    -0.057 C 
ATOM      2  C   UNL     1      37.544 -18.633 -34.465  0.00  0.00    -0.003 C 
ATOM      3  C   UNL     1      36.869 -20.015 -34.263  0.00  0.00    -0.057 C 
ATOM      4  C   UNL     1      39.106 -18.848 -34.192  0.00  0.00    +0.095 C 
ATOM      5  C   UNL     1      39.894 -17.819 -34.996  0.00  0.00    -0.023 C 
ATOM      6  C   UNL     1      39.222 -16.513 -35.316  0.00  0.00    -0.045 C 
ATOM      7  C   UNL     1      38.173 -16.773 -36.393  0.00  0.00    -0.025 C 
ATOM      8  C   UNL     1      37.273 -15.510 -36.450  0.00  0.00    -0.059 C 
ATOM      9  C   UNL     1      38.851 -16.951 -37.852  0.00  0.00    -0.029 C 
ATOM     10  C   UNL     1      39.805 -15.814 -38.362  0.00  0.00    -0.049 C 
ATOM     11  C   UNL     1      41.160 -16.133 -39.076  0.00  0.00    -0.049 C 
ATOM     12  C   UNL     1      41.565 -17.607 -39.300  0.00  0.00    -0.031 C 
ATOM     13  C   UNL     1      43.069 -17.881 -39.593  0.00  0.00    -0.024 C 
ATOM     14  C   UNL     1      43.617 -17.180 -40.878  0.00  0.00    -0.006 C 
ATOM     15  C   UNL     1      44.408 -18.265 -41.604  0.00  0.00    -0.047 C 
ATOM     16  C   UNL     1      43.663 -19.539 -41.273  0.00  0.00    -0.045 C 
ATOM     17  C   UNL     1      43.300 -19.443 -39.766  0.00  0.00    -0.000 C 
ATOM     18  C   UNL     1      44.519 -19.877 -38.919  0.00  0.00    -0.057 C 
ATOM     19  C   UNL     1      41.975 -20.333 -39.378  0.00  0.00    +0.096 C 
ATOM     20  C   UNL     1      41.457 -19.944 -38.051  0.00  0.00    -0.018 C 
ATOM     21  C   UNL     1      41.040 -18.457 -38.095  0.00  0.00    -0.021 C 
ATOM     22  C   UNL     1      41.881 -17.879 -36.896  0.00  0.00    -0.059 C 
ATOM     23  C   UNL     1      39.390 -18.369 -38.210  0.00  0.00    -0.023 C 
ATOM     24  C   UNL     1      38.897 -18.586 -39.711  0.00  0.00    -0.059 C 
ATOM     25  C   UNL     1      38.602 -19.510 -37.486  0.00  0.00    -0.047 C 
ATOM     26  C   UNL     1      37.212 -19.080 -37.058  0.00  0.00    -0.049 C 
ATOM     27  C   UNL     1      37.261 -18.026 -35.948  0.00  0.00    -0.028 C 
ENDROOT
BRANCH  14  28
ATOM     28  C   UNL     1      44.440 -15.921 -40.596  0.00  0.00    +0.093 C 
ATOM     29  C   UNL     1      45.569 -16.028 -39.612  0.00  0.00    -0.033 C 
ATOM     30  C   UNL     1      44.463 -14.772 -41.588  0.00  0.00    +0.077 C 
ATOM     31  O   UNL     1      43.672 -14.718 -40.396  0.00  0.00    -0.368 OA
ENDBRANCH  14  28
BRANCH   4  32
ATOM     32  O   UNL     1      39.638 -18.827 -32.865  0.00  0.00    -0.210 OA
BRANCH  32  33
ATOM     33  S   UNL     1      40.523 -19.223 -32.663  0.00  0.00    +0.239 S 
ATOM     34  O   UNL     1      40.602 -18.154 -31.633  0.00  0.00    -0.116 OA
ATOM     35  O   UNL     1      41.408 -19.619 -32.461  0.00  0.00    -0.116 OA
ATOM     36  O   UNL     1      39.741 -20.443 -32.327  0.00  0.00    -0.022 OA
ENDBRANCH  32  33
ENDBRANCH   4  32
BRANCH  19  37
ATOM     37  O   UNL     1      42.022 -21.793 -39.469  0.00  0.00    -0.210 OA
BRANCH  37  38
ATOM     38  S   UNL     1      41.137 -22.152 -39.519  0.00  0.00    +0.239 S 
ATOM     39  O   UNL     1      41.416 -22.231 -40.974  0.00  0.00    -0.116 OA
ATOM     40  O   UNL     1      40.252 -22.511 -39.569  0.00  0.00    -0.116 OA
ATOM     41  O   UNL     1      41.674 -23.211 -38.622  0.00  0.00    -0.022 OA
ENDBRANCH  37  38
ENDBRANCH  19  37
TORSDOF 5
ENDMDL
MODEL 14
REMARK VINA RESULT:    -6.649      3.828      6.720
REMARK INTER + INTRA:          -9.967
REMARK INTER:                  -8.694
REMARK INTRA:                  -1.272
REMARK UNBOUND:                -1.375
REMARK  Name = cpd283.pdb
REMARK  12 active torsions:
REMARK  status: ('A' for Active; 'I' for Inactive)
REMARK    1  A    between atoms: C_1  and  C_2
REMARK    2  A    between atoms: C_2  and  C_3
REMARK    3  A    between atoms: C_4  and  O_5
REMARK    4  A    between atoms: O_5  and  S_6
REMARK    5  A    between atoms: C_12  and  C_13
REMARK    6  A    between atoms: C_19  and  C_20
REMARK    7  A    between atoms: C_20  and  C_21
REMARK    8  A    between atoms: C_26  and  C_27
REMARK    9  A    between atoms: C_28  and  O_29
REMARK   10  A    between atoms: O_29  and  S_30
REMARK   11  A    between atoms: C_35  and  C_36
REMARK   12  A    between atoms: C_37  and  C_38
REMARK                            x       y       z     vdW  Elec       q    Type
REMARK                         _______ _______ _______ _____ _____    ______ ____
ROOT
ATOM      1  C   UNL     1      46.838 -11.899 -38.480  0.00  0.00    -0.057 C 
ATOM      2  C   UNL     1      47.017 -13.325 -39.076  0.00  0.00    -0.003 C 
ATOM      3  C   UNL     1      48.430 -13.284 -39.717  0.00  0.00    -0.057 C 
ATOM      4  C   UNL     1      46.001 -13.726 -40.245  0.00  0.00    +0.095 C 
ATOM      5  C   UNL     1      44.801 -14.440 -39.633  0.00  0.00    -0.023 C 
ATOM      6  C   UNL     1      44.433 -14.106 -38.215  0.00  0.00    -0.045 C 
ATOM      7  C   UNL     1      45.471 -14.741 -37.294  0.00  0.00    -0.025 C 
ATOM      8  C   UNL     1      45.274 -14.100 -35.895  0.00  0.00    -0.059 C 
ATOM      9  C   UNL     1      45.230 -16.333 -37.137  0.00  0.00    -0.029 C 
ATOM     10  C   UNL     1      43.810 -16.820 -36.681  0.00  0.00    -0.049 C 
ATOM     11  C   UNL     1      43.104 -18.046 -37.350  0.00  0.00    -0.049 C 
ATOM     12  C   UNL     1      43.831 -18.810 -38.479  0.00  0.00    -0.031 C 
ATOM     13  C   UNL     1      42.948 -19.707 -39.397  0.00  0.00    -0.024 C 
ATOM     14  C   UNL     1      42.189 -20.850 -38.647  0.00  0.00    -0.006 C 
ATOM     15  C   UNL     1      42.417 -22.092 -39.505  0.00  0.00    -0.047 C 
ATOM     16  C   UNL     1      43.795 -21.880 -40.092  0.00  0.00    -0.045 C 
ATOM     17  C   UNL     1      43.856 -20.385 -40.508  0.00  0.00    -0.000 C 
ATOM     18  C   UNL     1      43.186 -20.212 -41.892  0.00  0.00    -0.057 C 
ATOM     19  C   UNL     1      45.392 -19.799 -40.527  0.00  0.00    +0.096 C 
ATOM     20  C   UNL     1      45.384 -18.323 -40.574  0.00  0.00    -0.018 C 
ATOM     21  C   UNL     1      44.681 -17.788 -39.305  0.00  0.00    -0.021 C 
ATOM     22  C   UNL     1      43.567 -16.878 -39.947  0.00  0.00    -0.059 C 
ATOM     23  C   UNL     1      45.834 -17.250 -38.244  0.00  0.00    -0.023 C 
ATOM     24  C   UNL     1      46.476 -18.455 -37.421  0.00  0.00    -0.059 C 
ATOM     25  C   UNL     1      47.117 -16.637 -38.896  0.00  0.00    -0.047 C 
ATOM     26  C   UNL     1      47.798 -15.620 -38.001  0.00  0.00    -0.049 C 
ATOM     27  C   UNL     1      46.946 -14.360 -37.822  0.00  0.00    -0.028 C 
ENDROOT
BRANCH  14  28
ATOM     28  C   UNL     1      40.709 -20.553 -38.397  0.00  0.00    +0.093 C 
ATOM     29  C   UNL     1      39.959 -19.795 -39.453  0.00  0.00    -0.033 C 
ATOM     30  C   UNL     1      39.910 -21.380 -37.406  0.00  0.00    +0.077 C 
ATOM     31  O   UNL     1      40.395 -20.075 -37.074  0.00  0.00    -0.368 OA
ENDBRANCH  14  28
BRANCH   4  32
ATOM     32  O   UNL     1      45.479 -12.745 -41.145  0.00  0.00    -0.210 OA
BRANCH  32  33
ATOM     33  S   UNL     1      45.007 -13.011 -41.974  0.00  0.00    +0.239 S 
ATOM     34  O   UNL     1      44.287 -11.722 -41.803  0.00  0.00    -0.116 OA
ATOM     35  O   UNL     1      44.535 -13.277 -42.803  0.00  0.00    -0.116 OA
ATOM     36  O   UNL     1      46.360 -12.965 -42.589  0.00  0.00    -0.022 OA
ENDBRANCH  32  33
ENDBRANCH   4  32
BRANCH  19  37
ATOM     37  O   UNL     1      46.357 -20.307 -41.502  0.00  0.00    -0.210 OA
BRANCH  37  38
ATOM     38  S   UNL     1      47.115 -20.681 -41.055  0.00  0.00    +0.239 S 
ATOM     39  O   UNL     1      46.677 -21.945 -41.696  0.00  0.00    -0.116 OA
ATOM     40  O   UNL     1      47.873 -21.054 -40.608  0.00  0.00    -0.116 OA
ATOM     41  O   UNL     1      47.889 -19.695 -41.858  0.00  0.00    -0.022 OA
ENDBRANCH  37  38
ENDBRANCH  19  37
TORSDOF 5
ENDMDL
MODEL 15
REMARK VINA RESULT:    -6.547     23.643     26.568
REMARK INTER + INTRA:          -9.836
REMARK INTER:                  -8.702
REMARK INTRA:                  -1.134
REMARK UNBOUND:                -1.375
REMARK  Name = cpd283.pdb
REMARK  12 active torsions:
REMARK  status: ('A' for Active; 'I' for Inactive)
REMARK    1  A    between atoms: C_1  and  C_2
REMARK    2  A    between atoms: C_2  and  C_3
REMARK    3  A    between atoms: C_4  and  O_5
REMARK    4  A    between atoms: O_5  and  S_6
REMARK    5  A    between atoms: C_12  and  C_13
REMARK    6  A    between atoms: C_19  and  C_20
REMARK    7  A    between atoms: C_20  and  C_21
REMARK    8  A    between atoms: C_26  and  C_27
REMARK    9  A    between atoms: C_28  and  O_29
REMARK   10  A    between atoms: O_29  and  S_30
REMARK   11  A    between atoms: C_35  and  C_36
REMARK   12  A    between atoms: C_37  and  C_38
REMARK                            x       y       z     vdW  Elec       q    Type
REMARK                         _______ _______ _______ _____ _____    ______ ____
ROOT
ATOM      1  C   UNL     1      29.683 -39.971 -22.622  0.00  0.00    -0.057 C 
ATOM      2  C   UNL     1      30.851 -40.345 -23.580  0.00  0.00    -0.003 C 
ATOM      3  C   UNL     1      31.154 -41.827 -23.234  0.00  0.00    -0.057 C 
ATOM      4  C   UNL     1      32.217 -39.541 -23.362  0.00  0.00    +0.095 C 
ATOM      5  C   UNL     1      32.227 -38.326 -24.283  0.00  0.00    -0.023 C 
ATOM      6  C   UNL     1      30.904 -37.733 -24.679  0.00  0.00    -0.045 C 
ATOM      7  C   UNL     1      30.245 -38.676 -25.682  0.00  0.00    -0.025 C 
ATOM      8  C   UNL     1      28.763 -38.231 -25.801  0.00  0.00    -0.059 C 
ATOM      9  C   UNL     1      30.912 -38.541 -27.150  0.00  0.00    -0.029 C 
ATOM     10  C   UNL     1      30.983 -37.113 -27.796  0.00  0.00    -0.049 C 
ATOM     11  C   UNL     1      32.262 -36.608 -28.543  0.00  0.00    -0.049 C 
ATOM     12  C   UNL     1      33.484 -37.547 -28.663  0.00  0.00    -0.031 C 
ATOM     13  C   UNL     1      34.848 -36.877 -29.001  0.00  0.00    -0.024 C 
ATOM     14  C   UNL     1      34.873 -36.111 -30.364  0.00  0.00    -0.006 C 
ATOM     15  C   UNL     1      36.172 -36.555 -31.033  0.00  0.00    -0.047 C 
ATOM     16  C   UNL     1      36.352 -37.982 -30.563  0.00  0.00    -0.045 C 
ATOM     17  C   UNL     1      35.984 -37.985 -29.055  0.00  0.00    -0.000 C 
ATOM     18  C   UNL     1      37.204 -37.508 -28.231  0.00  0.00    -0.057 C 
ATOM     19  C   UNL     1      35.469 -39.457 -28.535  0.00  0.00    +0.096 C 
ATOM     20  C   UNL     1      34.804 -39.340 -27.222  0.00  0.00    -0.018 C 
ATOM     21  C   UNL     1      33.568 -38.423 -27.369  0.00  0.00    -0.021 C 
ATOM     22  C   UNL     1      33.867 -37.344 -26.261  0.00  0.00    -0.059 C 
ATOM     23  C   UNL     1      32.207 -39.367 -27.415  0.00  0.00    -0.023 C 
ATOM     24  C   UNL     1      31.969 -39.977 -28.868  0.00  0.00    -0.059 C 
ATOM     25  C   UNL     1      32.266 -40.678 -26.564  0.00  0.00    -0.047 C 
ATOM     26  C   UNL     1      30.897 -41.142 -26.110  0.00  0.00    -0.049 C 
ATOM     27  C   UNL     1      30.278 -40.177 -25.094  0.00  0.00    -0.028 C 
ENDROOT
BRANCH  14  28
ATOM     28  C   UNL     1      34.757 -34.591 -30.224  0.00  0.00    +0.093 C 
ATOM     29  C   UNL     1      35.923 -33.756 -30.664  0.00  0.00    -0.033 C 
ATOM     30  C   UNL     1      33.396 -33.925 -30.126  0.00  0.00    +0.077 C 
ATOM     31  O   UNL     1      34.215 -34.131 -28.971  0.00  0.00    -0.368 OA
ENDBRANCH  14  28
BRANCH   4  32
ATOM     32  O   UNL     1      32.608 -39.077 -22.068  0.00  0.00    -0.210 OA
BRANCH  32  33
ATOM     33  S   UNL     1      33.475 -38.619 -21.929  0.00  0.00    +0.239 S 
ATOM     34  O   UNL     1      32.820 -38.064 -20.715  0.00  0.00    -0.116 OA
ATOM     35  O   UNL     1      34.342 -38.160 -21.790  0.00  0.00    -0.116 OA
ATOM     36  O   UNL     1      34.028 -39.997 -21.842  0.00  0.00    -0.022 OA
ENDBRANCH  32  33
ENDBRANCH   4  32
BRANCH  19  37
ATOM     37  O   UNL     1      36.396 -40.588 -28.507  0.00  0.00    -0.210 OA
BRANCH  37  38
ATOM     38  S   UNL     1      35.914 -41.413 -28.513  0.00  0.00    +0.239 S 
ATOM     39  O   UNL     1      36.155 -41.367 -29.976  0.00  0.00    -0.116 OA
ATOM     40  O   UNL     1      35.431 -42.239 -28.518  0.00  0.00    -0.116 OA
ATOM     41  O   UNL     1      37.003 -41.887 -27.616  0.00  0.00    -0.022 OA
ENDBRANCH  37  38
ENDBRANCH  19  37
TORSDOF 5
ENDMDL
MODEL 16
REMARK VINA RESULT:    -6.437     22.628     25.131
REMARK INTER + INTRA:          -9.693
REMARK INTER:                  -8.514
REMARK INTRA:                  -1.180
REMARK UNBOUND:                -1.375
REMARK  Name = cpd283.pdb
REMARK  12 active torsions:
REMARK  status: ('A' for Active; 'I' for Inactive)
REMARK    1  A    between atoms: C_1  and  C_2
REMARK    2  A    between atoms: C_2  and  C_3
REMARK    3  A    between atoms: C_4  and  O_5
REMARK    4  A    between atoms: O_5  and  S_6
REMARK    5  A    between atoms: C_12  and  C_13
REMARK    6  A    between atoms: C_19  and  C_20
REMARK    7  A    between atoms: C_20  and  C_21
REMARK    8  A    between atoms: C_26  and  C_27
REMARK    9  A    between atoms: C_28  and  O_29
REMARK   10  A    between atoms: O_29  and  S_30
REMARK   11  A    between atoms: C_35  and  C_36
REMARK   12  A    between atoms: C_37  and  C_38
REMARK                            x       y       z     vdW  Elec       q    Type
REMARK                         _______ _______ _______ _____ _____    ______ ____
ROOT
ATOM      1  C   UNL     1      32.622 -43.432 -27.058  0.00  0.00    -0.057 C 
ATOM      2  C   UNL     1      33.591 -42.303 -27.511  0.00  0.00    -0.003 C 
ATOM      3  C   UNL     1      34.997 -42.860 -27.165  0.00  0.00    -0.057 C 
ATOM      4  C   UNL     1      33.452 -40.911 -26.735  0.00  0.00    +0.095 C 
ATOM      5  C   UNL     1      32.493 -40.009 -27.505  0.00  0.00    -0.023 C 
ATOM      6  C   UNL     1      31.434 -40.665 -28.345  0.00  0.00    -0.045 C 
ATOM      7  C   UNL     1      32.108 -41.257 -29.579  0.00  0.00    -0.025 C 
ATOM      8  C   UNL     1      31.073 -42.211 -30.234  0.00  0.00    -0.059 C 
ATOM      9  C   UNL     1      32.468 -40.113 -30.665  0.00  0.00    -0.029 C 
ATOM     10  C   UNL     1      31.313 -39.166 -31.146  0.00  0.00    -0.049 C 
ATOM     11  C   UNL     1      31.523 -37.625 -31.309  0.00  0.00    -0.049 C 
ATOM     12  C   UNL     1      32.912 -37.018 -31.005  0.00  0.00    -0.031 C 
ATOM     13  C   UNL     1      32.961 -35.483 -30.748  0.00  0.00    -0.024 C 
ATOM     14  C   UNL     1      32.465 -34.610 -31.947  0.00  0.00    -0.006 C 
ATOM     15  C   UNL     1      33.517 -33.513 -32.089  0.00  0.00    -0.047 C 
ATOM     16  C   UNL     1      34.805 -34.191 -31.673  0.00  0.00    -0.045 C 
ATOM     17  C   UNL     1      34.454 -35.047 -30.426  0.00  0.00    -0.000 C 
ATOM     18  C   UNL     1      34.464 -34.146 -29.169  0.00  0.00    -0.057 C 
ATOM     19  C   UNL     1      35.468 -36.326 -30.235  0.00  0.00    +0.096 C 
ATOM     20  C   UNL     1      34.904 -37.297 -29.276  0.00  0.00    -0.018 C 
ATOM     21  C   UNL     1      33.563 -37.827 -29.834  0.00  0.00    -0.021 C 
ATOM     22  C   UNL     1      32.596 -37.503 -28.634  0.00  0.00    -0.059 C 
ATOM     23  C   UNL     1      33.806 -39.342 -30.458  0.00  0.00    -0.023 C 
ATOM     24  C   UNL     1      34.428 -39.275 -31.925  0.00  0.00    -0.059 C 
ATOM     25  C   UNL     1      34.889 -40.205 -29.731  0.00  0.00    -0.047 C 
ATOM     26  C   UNL     1      34.640 -41.694 -29.870  0.00  0.00    -0.049 C 
ATOM     27  C   UNL     1      33.380 -42.131 -29.116  0.00  0.00    -0.028 C 
ENDROOT
BRANCH  14  28
ATOM     28  C   UNL     1      31.046 -34.065 -31.772  0.00  0.00    +0.093 C 
ATOM     29  C   UNL     1      30.882 -32.756 -31.055  0.00  0.00    -0.033 C 
ATOM     30  C   UNL     1      29.921 -34.529 -32.679  0.00  0.00    +0.077 C 
ATOM     31  O   UNL     1      30.066 -35.032 -31.347  0.00  0.00    -0.368 OA
ENDBRANCH  14  28
BRANCH   4  32
ATOM     32  O   UNL     1      33.048 -40.861 -25.364  0.00  0.00    -0.210 OA
BRANCH  32  33
ATOM     33  S   UNL     1      33.284 -40.090 -24.789  0.00  0.00    +0.239 S 
ATOM     34  O   UNL     1      31.951 -40.329 -24.174  0.00  0.00    -0.116 OA
ATOM     35  O   UNL     1      33.519 -39.319 -24.214  0.00  0.00    -0.116 OA
ATOM     36  O   UNL     1      34.411 -40.950 -24.341  0.00  0.00    -0.022 OA
ENDBRANCH  32  33
ENDBRANCH   4  32
BRANCH  19  37
ATOM     37  O   UNL     1      36.879 -36.100 -29.920  0.00  0.00    -0.210 OA
BRANCH  37  38
ATOM     38  S   UNL     1      37.429 -36.722 -30.394  0.00  0.00    +0.239 S 
ATOM     39  O   UNL     1      37.869 -35.522 -31.148  0.00  0.00    -0.116 OA
ATOM     40  O   UNL     1      37.979 -37.344 -30.868  0.00  0.00    -0.116 OA
ATOM     41  O   UNL     1      38.023 -36.992 -29.056  0.00  0.00    -0.022 OA
ENDBRANCH  37  38
ENDBRANCH  19  37
TORSDOF 5
ENDMDL
MODEL 17
REMARK VINA RESULT:    -6.420     21.949     24.568
REMARK INTER + INTRA:          -9.671
REMARK INTER:                  -8.170
REMARK INTRA:                  -1.502
REMARK UNBOUND:                -1.375
REMARK  Name = cpd283.pdb
REMARK  12 active torsions:
REMARK  status: ('A' for Active; 'I' for Inactive)
REMARK    1  A    between atoms: C_1  and  C_2
REMARK    2  A    between atoms: C_2  and  C_3
REMARK    3  A    between atoms: C_4  and  O_5
REMARK    4  A    between atoms: O_5  and  S_6
REMARK    5  A    between atoms: C_12  and  C_13
REMARK    6  A    between atoms: C_19  and  C_20
REMARK    7  A    between atoms: C_20  and  C_21
REMARK    8  A    between atoms: C_26  and  C_27
REMARK    9  A    between atoms: C_28  and  O_29
REMARK   10  A    between atoms: O_29  and  S_30
REMARK   11  A    between atoms: C_35  and  C_36
REMARK   12  A    between atoms: C_37  and  C_38
REMARK                            x       y       z     vdW  Elec       q    Type
REMARK                         _______ _______ _______ _____ _____    ______ ____
ROOT
ATOM      1  C   UNL     1      36.463 -40.517 -29.381  0.00  0.00    -0.057 C 
ATOM      2  C   UNL     1      35.063 -40.090 -28.853  0.00  0.00    -0.003 C 
ATOM      3  C   UNL     1      34.625 -41.280 -27.960  0.00  0.00    -0.057 C 
ATOM      4  C   UNL     1      33.924 -39.913 -29.963  0.00  0.00    +0.095 C 
ATOM      5  C   UNL     1      33.889 -38.454 -30.406  0.00  0.00    -0.023 C 
ATOM      6  C   UNL     1      35.159 -37.659 -30.307  0.00  0.00    -0.045 C 
ATOM      7  C   UNL     1      35.418 -37.361 -28.832  0.00  0.00    -0.025 C 
ATOM      8  C   UNL     1      36.882 -36.859 -28.731  0.00  0.00    -0.059 C 
ATOM      9  C   UNL     1      34.460 -36.175 -28.289  0.00  0.00    -0.029 C 
ATOM     10  C   UNL     1      34.461 -34.814 -29.069  0.00  0.00    -0.049 C 
ATOM     11  C   UNL     1      33.137 -34.040 -29.380  0.00  0.00    -0.049 C 
ATOM     12  C   UNL     1      31.792 -34.622 -28.892  0.00  0.00    -0.031 C 
ATOM     13  C   UNL     1      30.505 -34.083 -29.584  0.00  0.00    -0.024 C 
ATOM     14  C   UNL     1      30.285 -32.543 -29.430  0.00  0.00    -0.006 C 
ATOM     15  C   UNL     1      28.815 -32.400 -29.042  0.00  0.00    -0.047 C 
ATOM     16  C   UNL     1      28.532 -33.644 -28.229  0.00  0.00    -0.045 C 
ATOM     17  C   UNL     1      29.232 -34.811 -28.976  0.00  0.00    -0.000 C 
ATOM     18  C   UNL     1      28.322 -35.297 -30.129  0.00  0.00    -0.057 C 
ATOM     19  C   UNL     1      29.621 -36.056 -27.977  0.00  0.00    +0.096 C 
ATOM     20  C   UNL     1      30.580 -36.967 -28.631  0.00  0.00    -0.018 C 
ATOM     21  C   UNL     1      31.875 -36.184 -28.949  0.00  0.00    -0.021 C 
ATOM     22  C   UNL     1      32.008 -36.449 -30.496  0.00  0.00    -0.059 C 
ATOM     23  C   UNL     1      33.027 -36.582 -27.828  0.00  0.00    -0.023 C 
ATOM     24  C   UNL     1      32.828 -35.768 -26.472  0.00  0.00    -0.059 C 
ATOM     25  C   UNL     1      32.965 -38.050 -27.288  0.00  0.00    -0.047 C 
ATOM     26  C   UNL     1      34.315 -38.558 -26.822  0.00  0.00    -0.049 C 
ATOM     27  C   UNL     1      35.292 -38.730 -27.990  0.00  0.00    -0.028 C 
ENDROOT
BRANCH  14  28
ATOM     28  C   UNL     1      30.662 -31.734 -30.673  0.00  0.00    +0.093 C 
ATOM     29  C   UNL     1      30.257 -32.278 -32.012  0.00  0.00    -0.033 C 
ATOM     30  C   UNL     1      30.974 -30.252 -30.567  0.00  0.00    +0.077 C 
ATOM     31  O   UNL     1      32.012 -31.229 -30.689  0.00  0.00    -0.368 OA
ENDBRANCH  14  28
BRANCH   4  32
ATOM     32  O   UNL     1      33.917 -40.703 -31.154  0.00  0.00    -0.210 OA
BRANCH  32  33
ATOM     33  S   UNL     1      33.092 -40.812 -31.691  0.00  0.00    +0.239 S 
ATOM     34  O   UNL     1      34.026 -40.866 -32.846  0.00  0.00    -0.116 OA
ATOM     35  O   UNL     1      32.266 -40.921 -32.228  0.00  0.00    -0.116 OA
ATOM     36  O   UNL     1      32.910 -42.056 -30.896  0.00  0.00    -0.022 OA
ENDBRANCH  32  33
ENDBRANCH   4  32
BRANCH  19  37
ATOM     37  O   UNL     1      28.563 -36.843 -27.343  0.00  0.00    -0.210 OA
BRANCH  37  38
ATOM     38  S   UNL     1      28.886 -37.248 -26.539  0.00  0.00    +0.239 S 
ATOM     39  O   UNL     1      28.194 -36.116 -25.873  0.00  0.00    -0.116 OA
ATOM     40  O   UNL     1      29.209 -37.652 -25.735  0.00  0.00    -0.116 OA
ATOM     41  O   UNL     1      28.086 -38.422 -26.983  0.00  0.00    -0.022 OA
ENDBRANCH  37  38
ENDBRANCH  19  37
TORSDOF 5
ENDMDL
MODEL 18
REMARK VINA RESULT:    -6.405      3.325      7.478
REMARK INTER + INTRA:          -9.651
REMARK INTER:                  -8.279
REMARK INTRA:                  -1.372
REMARK UNBOUND:                -1.375
REMARK  Name = cpd283.pdb
REMARK  12 active torsions:
REMARK  status: ('A' for Active; 'I' for Inactive)
REMARK    1  A    between atoms: C_1  and  C_2
REMARK    2  A    between atoms: C_2  and  C_3
REMARK    3  A    between atoms: C_4  and  O_5
REMARK    4  A    between atoms: O_5  and  S_6
REMARK    5  A    between atoms: C_12  and  C_13
REMARK    6  A    between atoms: C_19  and  C_20
REMARK    7  A    between atoms: C_20  and  C_21
REMARK    8  A    between atoms: C_26  and  C_27
REMARK    9  A    between atoms: C_28  and  O_29
REMARK   10  A    between atoms: O_29  and  S_30
REMARK   11  A    between atoms: C_35  and  C_36
REMARK   12  A    between atoms: C_37  and  C_38
REMARK                            x       y       z     vdW  Elec       q    Type
REMARK                         _______ _______ _______ _____ _____    ______ ____
ROOT
ATOM      1  C   UNL     1      41.003 -16.918 -32.732  0.00  0.00    -0.057 C 
ATOM      2  C   UNL     1      41.722 -16.360 -33.994  0.00  0.00    -0.003 C 
ATOM      3  C   UNL     1      41.454 -14.833 -33.928  0.00  0.00    -0.057 C 
ATOM      4  C   UNL     1      41.150 -16.859 -35.402  0.00  0.00    +0.095 C 
ATOM      5  C   UNL     1      41.935 -18.088 -35.847  0.00  0.00    -0.023 C 
ATOM      6  C   UNL     1      42.547 -18.954 -34.782  0.00  0.00    -0.045 C 
ATOM      7  C   UNL     1      43.747 -18.211 -34.200  0.00  0.00    -0.025 C 
ATOM      8  C   UNL     1      44.136 -18.953 -32.894  0.00  0.00    -0.059 C 
ATOM      9  C   UNL     1      45.023 -18.276 -35.193  0.00  0.00    -0.029 C 
ATOM     10  C   UNL     1      45.509 -19.688 -35.675  0.00  0.00    -0.049 C 
ATOM     11  C   UNL     1      45.920 -19.957 -37.161  0.00  0.00    -0.049 C 
ATOM     12  C   UNL     1      45.863 -18.796 -38.179  0.00  0.00    -0.031 C 
ATOM     13  C   UNL     1      45.843 -19.190 -39.686  0.00  0.00    -0.024 C 
ATOM     14  C   UNL     1      47.096 -19.997 -40.160  0.00  0.00    -0.006 C 
ATOM     15  C   UNL     1      47.513 -19.329 -41.468  0.00  0.00    -0.047 C 
ATOM     16  C   UNL     1      47.145 -17.876 -41.267  0.00  0.00    -0.045 C 
ATOM     17  C   UNL     1      45.755 -17.878 -40.576  0.00  0.00    -0.000 C 
ATOM     18  C   UNL     1      44.653 -18.059 -41.646  0.00  0.00    -0.057 C 
ATOM     19  C   UNL     1      45.489 -16.519 -39.691  0.00  0.00    +0.096 C 
ATOM     20  C   UNL     1      44.341 -16.709 -38.781  0.00  0.00    -0.018 C 
ATOM     21  C   UNL     1      44.664 -17.862 -37.804  0.00  0.00    -0.021 C 
ATOM     22  C   UNL     1      43.426 -18.806 -38.044  0.00  0.00    -0.059 C 
ATOM     23  C   UNL     1      45.080 -17.218 -36.336  0.00  0.00    -0.023 C 
ATOM     24  C   UNL     1      46.600 -16.736 -36.321  0.00  0.00    -0.059 C 
ATOM     25  C   UNL     1      44.357 -15.884 -35.955  0.00  0.00    -0.047 C 
ATOM     26  C   UNL     1      44.246 -15.687 -34.457  0.00  0.00    -0.049 C 
ATOM     27  C   UNL     1      43.302 -16.711 -33.818  0.00  0.00    -0.028 C 
ENDROOT
BRANCH  14  28
ATOM     28  C   UNL     1      46.849 -21.500 -40.302  0.00  0.00    +0.093 C 
ATOM     29  C   UNL     1      45.428 -21.983 -40.268  0.00  0.00    -0.033 C 
ATOM     30  C   UNL     1      47.895 -22.400 -40.935  0.00  0.00    +0.077 C 
ATOM     31  O   UNL     1      47.716 -22.341 -39.516  0.00  0.00    -0.368 OA
ENDBRANCH  14  28
BRANCH   4  32
ATOM     32  O   UNL     1      39.765 -17.174 -35.572  0.00  0.00    -0.210 OA
BRANCH  32  33
ATOM     33  S   UNL     1      39.377 -17.304 -36.474  0.00  0.00    +0.239 S 
ATOM     34  O   UNL     1      38.382 -18.149 -35.763  0.00  0.00    -0.116 OA
ATOM     35  O   UNL     1      38.990 -17.435 -37.376  0.00  0.00    -0.116 OA
ATOM     36  O   UNL     1      39.174 -15.831 -36.443  0.00  0.00    -0.022 OA
ENDBRANCH  32  33
ENDBRANCH   4  32
BRANCH  19  37
ATOM     37  O   UNL     1      45.367 -15.223 -40.358  0.00  0.00    -0.210 OA
BRANCH  37  38
ATOM     38  S   UNL     1      45.510 -14.513 -39.734  0.00  0.00    +0.239 S 
ATOM     39  O   UNL     1      46.924 -14.621 -40.170  0.00  0.00    -0.116 OA
ATOM     40  O   UNL     1      45.653 -13.803 -39.110  0.00  0.00    -0.116 OA
ATOM     41  O   UNL     1      44.546 -13.766 -40.587  0.00  0.00    -0.022 OA
ENDBRANCH  37  38
ENDBRANCH  19  37
TORSDOF 5
ENDMDL
MODEL 19
REMARK VINA RESULT:    -6.397      3.431      6.746
REMARK INTER + INTRA:          -9.641
REMARK INTER:                  -8.273
REMARK INTRA:                  -1.368
REMARK UNBOUND:                -1.375
REMARK  Name = cpd283.pdb
REMARK  12 active torsions:
REMARK  status: ('A' for Active; 'I' for Inactive)
REMARK    1  A    between atoms: C_1  and  C_2
REMARK    2  A    between atoms: C_2  and  C_3
REMARK    3  A    between atoms: C_4  and  O_5
REMARK    4  A    between atoms: O_5  and  S_6
REMARK    5  A    between atoms: C_12  and  C_13
REMARK    6  A    between atoms: C_19  and  C_20
REMARK    7  A    between atoms: C_20  and  C_21
REMARK    8  A    between atoms: C_26  and  C_27
REMARK    9  A    between atoms: C_28  and  O_29
REMARK   10  A    between atoms: O_29  and  S_30
REMARK   11  A    between atoms: C_35  and  C_36
REMARK   12  A    between atoms: C_37  and  C_38
REMARK                            x       y       z     vdW  Elec       q    Type
REMARK                         _______ _______ _______ _____ _____    ______ ____
ROOT
ATOM      1  C   UNL     1      47.103 -14.109 -36.774  0.00  0.00    -0.057 C 
ATOM      2  C   UNL     1      46.620 -15.235 -37.733  0.00  0.00    -0.003 C 
ATOM      3  C   UNL     1      47.520 -15.067 -38.986  0.00  0.00    -0.057 C 
ATOM      4  C   UNL     1      45.108 -15.116 -38.243  0.00  0.00    +0.095 C 
ATOM      5  C   UNL     1      44.207 -15.916 -37.308  0.00  0.00    -0.023 C 
ATOM      6  C   UNL     1      44.650 -16.088 -35.883  0.00  0.00    -0.045 C 
ATOM      7  C   UNL     1      45.807 -17.083 -35.864  0.00  0.00    -0.025 C 
ATOM      8  C   UNL     1      46.462 -16.976 -34.461  0.00  0.00    -0.059 C 
ATOM      9  C   UNL     1      45.283 -18.604 -36.040  0.00  0.00    -0.029 C 
ATOM     10  C   UNL     1      44.179 -19.120 -35.052  0.00  0.00    -0.049 C 
ATOM     11  C   UNL     1      42.962 -19.971 -35.547  0.00  0.00    -0.049 C 
ATOM     12  C   UNL     1      42.853 -20.328 -37.046  0.00  0.00    -0.031 C 
ATOM     13  C   UNL     1      41.450 -20.769 -37.558  0.00  0.00    -0.024 C 
ATOM     14  C   UNL     1      40.881 -22.049 -36.862  0.00  0.00    -0.006 C 
ATOM     15  C   UNL     1      40.359 -22.912 -38.008  0.00  0.00    -0.047 C 
ATOM     16  C   UNL     1      41.298 -22.602 -39.153  0.00  0.00    -0.045 C 
ATOM     17  C   UNL     1      41.523 -21.066 -39.116  0.00  0.00    -0.000 C 
ATOM     18  C   UNL     1      40.344 -20.360 -39.827  0.00  0.00    -0.057 C 
ATOM     19  C   UNL     1      42.956 -20.623 -39.787  0.00  0.00    +0.096 C 
ATOM     20  C   UNL     1      43.293 -19.232 -39.421  0.00  0.00    -0.018 C 
ATOM     21  C   UNL     1      43.433 -19.140 -37.885  0.00  0.00    -0.021 C 
ATOM     22  C   UNL     1      42.412 -17.984 -37.565  0.00  0.00    -0.059 C 
ATOM     23  C   UNL     1      45.043 -19.102 -37.497  0.00  0.00    -0.023 C 
ATOM     24  C   UNL     1      45.677 -20.565 -37.500  0.00  0.00    -0.059 C 
ATOM     25  C   UNL     1      45.970 -18.389 -38.535  0.00  0.00    -0.047 C 
ATOM     26  C   UNL     1      47.221 -17.813 -37.902  0.00  0.00    -0.049 C 
ATOM     27  C   UNL     1      46.897 -16.644 -36.967  0.00  0.00    -0.028 C 
ENDROOT
BRANCH  14  28
ATOM     28  C   UNL     1      39.822 -21.757 -35.797  0.00  0.00    +0.093 C 
ATOM     29  C   UNL     1      38.937 -20.562 -35.998  0.00  0.00    -0.033 C 
ATOM     30  C   UNL     1      39.343 -22.852 -34.861  0.00  0.00    +0.077 C 
ATOM     31  O   UNL     1      40.280 -21.858 -34.434  0.00  0.00    -0.368 OA
ENDBRANCH  14  28
BRANCH   4  32
ATOM     32  O   UNL     1      44.483 -13.843 -38.425  0.00  0.00    -0.210 OA
BRANCH  32  33
ATOM     33  S   UNL     1      43.660 -13.750 -38.968  0.00  0.00    +0.239 S 
ATOM     34  O   UNL     1      43.347 -12.635 -38.036  0.00  0.00    -0.116 OA
ATOM     35  O   UNL     1      42.837 -13.657 -39.511  0.00  0.00    -0.116 OA
ATOM     36  O   UNL     1      44.601 -13.467 -40.085  0.00  0.00    -0.022 OA
ENDBRANCH  32  33
ENDBRANCH   4  32
BRANCH  19  37
ATOM     37  O   UNL     1      43.185 -20.814 -41.219  0.00  0.00    -0.210 OA
BRANCH  37  38
ATOM     38  S   UNL     1      44.085 -20.586 -41.446  0.00  0.00    +0.239 S 
ATOM     39  O   UNL     1      44.399 -21.932 -40.907  0.00  0.00    -0.116 OA
ATOM     40  O   UNL     1      44.985 -20.358 -41.672  0.00  0.00    -0.116 OA
ATOM     41  O   UNL     1      43.551 -20.469 -42.830  0.00  0.00    -0.022 OA
ENDBRANCH  37  38
ENDBRANCH  19  37
TORSDOF 5
ENDMDL
MODEL 20
REMARK VINA RESULT:    -6.026     21.832     24.229
REMARK INTER + INTRA:          -9.162
REMARK INTER:                  -7.751
REMARK INTRA:                  -1.411
REMARK UNBOUND:                -1.375
REMARK  Name = cpd283.pdb
REMARK  12 active torsions:
REMARK  status: ('A' for Active; 'I' for Inactive)
REMARK    1  A    between atoms: C_1  and  C_2
REMARK    2  A    between atoms: C_2  and  C_3
REMARK    3  A    between atoms: C_4  and  O_5
REMARK    4  A    between atoms: O_5  and  S_6
REMARK    5  A    between atoms: C_12  and  C_13
REMARK    6  A    between atoms: C_19  and  C_20
REMARK    7  A    between atoms: C_20  and  C_21
REMARK    8  A    between atoms: C_26  and  C_27
REMARK    9  A    between atoms: C_28  and  O_29
REMARK   10  A    between atoms: O_29  and  S_30
REMARK   11  A    between atoms: C_35  and  C_36
REMARK   12  A    between atoms: C_37  and  C_38
REMARK                            x       y       z     vdW  Elec       q    Type
REMARK                         _______ _______ _______ _____ _____    ______ ____
ROOT
ATOM      1  C   UNL     1      34.384 -41.831 -29.346  0.00  0.00    -0.057 C 
ATOM      2  C   UNL     1      34.548 -40.307 -29.616  0.00  0.00    -0.003 C 
ATOM      3  C   UNL     1      36.084 -40.111 -29.713  0.00  0.00    -0.057 C 
ATOM      4  C   UNL     1      34.041 -39.335 -28.451  0.00  0.00    +0.095 C 
ATOM      5  C   UNL     1      32.595 -38.941 -28.732  0.00  0.00    -0.023 C 
ATOM      6  C   UNL     1      31.745 -39.899 -29.518  0.00  0.00    -0.045 C 
ATOM      7  C   UNL     1      32.200 -39.848 -30.974  0.00  0.00    -0.025 C 
ATOM      8  C   UNL     1      31.563 -41.075 -31.680  0.00  0.00    -0.059 C 
ATOM      9  C   UNL     1      31.653 -38.521 -31.721  0.00  0.00    -0.029 C 
ATOM     10  C   UNL     1      30.111 -38.237 -31.681  0.00  0.00    -0.049 C 
ATOM     11  C   UNL     1      29.541 -36.804 -31.417  0.00  0.00    -0.049 C 
ATOM     12  C   UNL     1      30.525 -35.630 -31.207  0.00  0.00    -0.031 C 
ATOM     13  C   UNL     1      29.952 -34.354 -30.522  0.00  0.00    -0.024 C 
ATOM     14  C   UNL     1      28.775 -33.677 -31.298  0.00  0.00    -0.006 C 
ATOM     15  C   UNL     1      29.119 -32.189 -31.300  0.00  0.00    -0.047 C 
ATOM     16  C   UNL     1      30.631 -32.167 -31.346  0.00  0.00    -0.045 C 
ATOM     17  C   UNL     1      31.105 -33.274 -30.366  0.00  0.00    -0.000 C 
ATOM     18  C   UNL     1      31.091 -32.718 -28.922  0.00  0.00    -0.057 C 
ATOM     19  C   UNL     1      32.591 -33.862 -30.749  0.00  0.00    +0.096 C 
ATOM     20  C   UNL     1      32.849 -35.127 -30.034  0.00  0.00    -0.018 C 
ATOM     21  C   UNL     1      31.794 -36.170 -30.467  0.00  0.00    -0.021 C 
ATOM     22  C   UNL     1      31.204 -36.592 -29.069  0.00  0.00    -0.059 C 
ATOM     23  C   UNL     1      32.491 -37.218 -31.544  0.00  0.00    -0.023 C 
ATOM     24  C   UNL     1      32.533 -36.601 -33.014  0.00  0.00    -0.059 C 
ATOM     25  C   UNL     1      34.011 -37.509 -31.316  0.00  0.00    -0.047 C 
ATOM     26  C   UNL     1      34.431 -38.867 -31.840  0.00  0.00    -0.049 C 
ATOM     27  C   UNL     1      33.803 -40.007 -31.031  0.00  0.00    -0.028 C 
ENDROOT
BRANCH  14  28
ATOM     28  C   UNL     1      27.393 -33.975 -30.712  0.00  0.00    +0.093 C 
ATOM     29  C   UNL     1      27.278 -34.111 -29.222  0.00  0.00    -0.033 C 
ATOM     30  C   UNL     1      26.134 -33.663 -31.502  0.00  0.00    +0.077 C 
ATOM     31  O   UNL     1      26.644 -34.996 -31.400  0.00  0.00    -0.368 OA
ENDBRANCH  14  28
BRANCH   4  32
ATOM     32  O   UNL     1      34.099 -39.726 -27.077  0.00  0.00    -0.210 OA
BRANCH  32  33
ATOM     33  S   UNL     1      33.943 -39.071 -26.351  0.00  0.00    +0.239 S 
ATOM     34  O   UNL     1      33.924 -40.269 -25.473  0.00  0.00    -0.116 OA
ATOM     35  O   UNL     1      33.786 -38.415 -25.626  0.00  0.00    -0.116 OA
ATOM     36  O   UNL     1      35.270 -38.529 -26.747  0.00  0.00    -0.022 OA
ENDBRANCH  32  33
ENDBRANCH   4  32
BRANCH  19  37
ATOM     37  O   UNL     1      33.768 -32.999 -30.646  0.00  0.00    -0.210 OA
BRANCH  37  38
ATOM     38  S   UNL     1      34.489 -33.358 -31.160  0.00  0.00    +0.239 S 
ATOM     39  O   UNL     1      34.054 -32.368 -32.176  0.00  0.00    -0.116 OA
ATOM     40  O   UNL     1      35.211 -33.717 -31.675  0.00  0.00    -0.116 OA
ATOM     41  O   UNL     1      35.334 -32.901 -30.023  0.00  0.00    -0.022 OA
ENDBRANCH  37  38
ENDBRANCH  19  37
TORSDOF 5
ENDMDL
