@<TRIPOS>MOLECULE
*****
 41 46 0 0 0
SMALL
GASTEIGER

@<TRIPOS>ATOM
      1 C          -7.6477   -1.1923    0.0000 C.3     1  UNL1        0.0025
      2 C          -6.9114   -0.5290    0.0000 C.3     1  UNL1        0.0273
      3 C          -6.7051   -1.4983    0.0000 C.3     1  UNL1        0.0025
      4 C          -7.5512    0.1811    0.0000 C.3     1  UNL1        0.1431
      5 O          -8.5205   -0.0252    0.0000 O.3     1  UNL1       -0.2438
      6 S          -9.1838    0.7111    0.0000 S.3     1  UNL1       -0.0002
      7 O          -8.4475    1.3744    0.0000 O.2     1  UNL1       -0.3452
      8 O          -9.8471    1.4474    0.0000 O.2     1  UNL1       -0.3452
      9 O          -9.9201    0.0477    0.0000 O.co2   1  UNL1       -0.2682
     10 C          -7.2561    1.0902    0.0000 C.3     1  UNL1        0.0320
     11 C          -6.3212    1.2892    0.0000 C.3     1  UNL1        0.0026
     12 C          -5.6814    0.5791    0.0000 C.3     1  UNL1        0.0002
     13 C          -5.3771    1.5165    0.0000 C.3     1  UNL1        0.0000
     14 C          -4.7464    0.7776    0.0000 C.3     1  UNL1        0.0000
     15 C          -4.4509    1.6871    0.0000 C.3     1  UNL1        0.0000
     16 C          -3.5155    1.8859    0.0000 C.3     1  UNL1        0.0000
     17 C          -2.8756    1.1753    0.0000 C.3     1  UNL1        0.0002
     18 C          -1.9402    1.3741    0.0000 C.3     1  UNL1        0.0047
     19 C          -0.7101    2.4817    0.0000 C.3     1  UNL1        0.0275
     20 C          -0.6601    3.4361    0.0000 C.3     1  UNL1        0.1200
     21 C          -0.2262    2.5845    0.0000 C.3     1  UNL1        0.0322
     22 C          -1.0940    4.2876    0.0000 C.3     1  UNL1        0.1689
     23 O          -0.1396    4.2376    0.0000 O.3     1  UNL1       -0.3536
     24 C          -0.0706    1.7715    0.0000 C.3     1  UNL1        0.0025
     25 C          -0.3653    0.8627    0.0000 C.3     1  UNL1        0.0025
     26 C          -1.3007    0.6639    0.0000 C.3     1  UNL1        0.0274
     27 C          -0.6439   -0.0656    0.0000 C.3     1  UNL1        0.0025
     28 C          -1.5962   -0.2456    0.0000 C.3     1  UNL1        0.1431
     29 O          -0.9563   -0.9563    0.0000 O.3     1  UNL1       -0.2438
     30 S           0.0000   -0.9563    0.0000 S.3     1  UNL1       -0.0002
     31 O           0.0000   -1.9126    0.0000 O.2     1  UNL1       -0.3452
     32 O           0.9563   -0.9563    0.0000 O.2     1  UNL1       -0.3452
     33 O          -0.0000   -0.0000    0.0000 O.co2   1  UNL1       -0.2682
     34 C          -2.5316   -0.4445    0.0000 C.3     1  UNL1        0.0320
     35 C          -3.1711    0.2657    0.0000 C.3     1  UNL1        0.0024
     36 C          -3.7760   -1.5959    0.0000 C.3     1  UNL1        0.0001
     37 C          -4.1065    0.0669    0.0000 C.3     1  UNL1        0.0001
     38 C          -3.4517   -0.6604    0.0000 C.3     1  UNL1        0.0000
     39 C          -4.4017   -0.8422    0.0000 C.3     1  UNL1        0.0000
     40 C          -5.3366   -1.0407    0.0000 C.3     1  UNL1        0.0001
     41 C          -5.9765   -0.3300    0.0000 C.3     1  UNL1        0.0023
@<TRIPOS>UNITY_ATOM_ATTR
9 1
charge -1
33 1
charge -1
@<TRIPOS>BOND
     1     1     2    1
     2     2     3    1
     3     2     4    1
     4     4     5    1
     5     5     6    1
     6     6     7    2
     7     6     8    2
     8     6     9    1
     9     4    10    1
    10    10    11    1
    11    11    12    1
    12    12    13    1
    13    12    14    1
    14    14    15    1
    15    15    16    1
    16    16    17    1
    17    17    18    1
    18    18    19    1
    19    19    20    1
    20    20    21    1
    21    20    22    1
    22    22    23    1
    23    20    23    1
    24    19    24    1
    25    24    25    1
    26    25    26    1
    27    18    26    1
    28    26    27    1
    29    26    28    1
    30    28    29    1
    31    29    30    1
    32    30    31    2
    33    30    32    2
    34    30    33    1
    35    28    34    1
    36    34    35    1
    37    17    35    1
    38    35    36    1
    39    35    37    1
    40    14    37    1
    41    37    38    1
    42    37    39    1
    43    39    40    1
    44    40    41    1
    45     2    41    1
    46    12    41    1
