REMARK  Name = cpd283.pdb
REMARK  12 active torsions:
REMARK  status: ('A' for Active; 'I' for Inactive)
REMARK    1  A    between atoms: C_1  and  C_2
REMARK    2  A    between atoms: C_2  and  C_3
REMARK    3  A    between atoms: C_4  and  O_5
REMARK    4  A    between atoms: O_5  and  S_6
REMARK    5  A    between atoms: C_12  and  C_13
REMARK    6  A    between atoms: C_19  and  C_20
REMARK    7  A    between atoms: C_20  and  C_21
REMARK    8  A    between atoms: C_26  and  C_27
REMARK    9  A    between atoms: C_28  and  O_29
REMARK   10  A    between atoms: O_29  and  S_30
REMARK   11  A    between atoms: C_35  and  C_36
REMARK   12  A    between atoms: C_37  and  C_38
REMARK                            x       y       z     vdW  Elec       q    Type
REMARK                         _______ _______ _______ _____ _____    ______ ____
ROOT
ATOM      1  C   UNL     1      -9.353  -0.173  -2.991  0.00  0.00    -0.057 C 
ATOM      2  C   UNL     1      -7.928  -0.578  -2.515  0.00  0.00    -0.003 C 
ATOM      3  C   UNL     1      -7.966  -2.129  -2.510  0.00  0.00    -0.057 C 
ATOM      4  C   UNL     1      -7.535  -0.130  -1.030  0.00  0.00    +0.095 C 
ATOM      5  C   UNL     1      -6.823   1.217  -1.093  0.00  0.00    -0.023 C 
ATOM      6  C   UNL     1      -7.154   2.134  -2.236  0.00  0.00    -0.045 C 
ATOM      7  C   UNL     1      -6.512   1.566  -3.499  0.00  0.00    -0.025 C 
ATOM      8  C   UNL     1      -7.149   2.319  -4.697  0.00  0.00    -0.059 C 
ATOM      9  C   UNL     1      -4.920   1.854  -3.536  0.00  0.00    -0.029 C 
ATOM     10  C   UNL     1      -4.437   3.337  -3.367  0.00  0.00    -0.049 C 
ATOM     11  C   UNL     1      -3.216   3.709  -2.462  0.00  0.00    -0.049 C 
ATOM     12  C   UNL     1      -2.453   2.584  -1.727  0.00  0.00    -0.031 C 
ATOM     13  C   UNL     1      -1.563   3.015  -0.524  0.00  0.00    -0.024 C 
ATOM     14  C   UNL     1      -0.420   4.017  -0.891  0.00  0.00    -0.006 C 
ATOM     15  C   UNL     1       0.820   3.460  -0.196  0.00  0.00    -0.047 C 
ATOM     16  C   UNL     1       0.611   1.962  -0.227  0.00  0.00    -0.045 C 
ATOM     17  C   UNL     1      -0.885   1.732   0.120  0.00  0.00    -0.000 C 
ATOM     18  C   UNL     1      -1.065   1.775   1.656  0.00  0.00    -0.057 C 
ATOM     19  C   UNL     1      -1.465   0.323  -0.495  0.00  0.00    +0.096 C 
ATOM     20  C   UNL     1      -2.941   0.308  -0.456  0.00  0.00    -0.018 C 
ATOM     21  C   UNL     1      -3.475   1.468  -1.327  0.00  0.00    -0.021 C 
ATOM     22  C   UNL     1      -4.391   2.219  -0.289  0.00  0.00    -0.059 C 
ATOM     23  C   UNL     1      -4.005   0.851  -2.770  0.00  0.00    -0.023 C 
ATOM     24  C   UNL     1      -2.795   0.606  -3.779  0.00  0.00    -0.059 C 
ATOM     25  C   UNL     1      -4.615  -0.588  -2.705  0.00  0.00    -0.047 C 
ATOM     26  C   UNL     1      -5.626  -0.844  -3.805  0.00  0.00    -0.049 C 
ATOM     27  C   UNL     1      -6.889   0.004  -3.624  0.00  0.00    -0.028 C 
ENDROOT
BRANCH  14  28
ATOM     28  C   UNL     1      -0.722   5.469  -0.513  0.00  0.00    +0.093 C 
ATOM     29  C   UNL     1      -1.259   6.374  -1.583  0.00  0.00    -0.033 C 
ATOM     30  C   UNL     1      -0.950   5.860   0.936  0.00  0.00    +0.077 C 
ATOM     31  O   UNL     1       0.293   6.120   0.276  0.00  0.00    -0.368 OA
ENDBRANCH  14  28
BRANCH   4  32
ATOM     32  O   UNL     1      -8.521  -0.025   0.000  0.00  0.00    -0.210 OA
BRANCH  32  33
ATOM     33  S   UNL     1      -9.184   0.711   0.000  0.00  0.00    +0.239 S 
ATOM     34  O   UNL     1     -10.184  -0.387  -0.065  0.00  0.00    -0.116 OA
ATOM     35  O   UNL     1      -9.847   1.447   0.000  0.00  0.00    -0.116 OA
ATOM     36  O   UNL     1      -8.609   1.038   1.332  0.00  0.00    -0.022 OA
ENDBRANCH  32  33
ENDBRANCH   4  32
BRANCH  19  37
ATOM     37  O   UNL     1      -0.956  -0.956   0.000  0.00  0.00    -0.210 OA
BRANCH  37  38
ATOM     38  S   UNL     1       0.000  -0.956   0.000  0.00  0.00    +0.239 S 
ATOM     39  O   UNL     1      -0.153  -1.452   1.390  0.00  0.00    -0.116 OA
ATOM     40  O   UNL     1       0.956  -0.956   0.000  0.00  0.00    -0.116 OA
ATOM     41  O   UNL     1      -0.146  -1.915  -1.129  0.00  0.00    -0.022 OA
ENDBRANCH  37  38
ENDBRANCH  19  37
TORSDOF 5
