REMARK  Name = cpd120.pdb
REMARK  8 active torsions:
REMARK  status: ('A' for Active; 'I' for Inactive)
REMARK    1  A    between atoms: C_1  and  C_2
REMARK    2  A    between atoms: C_6  and  C_7
REMARK    3  A    between atoms: C_9  and  N_10
REMARK    4  A    between atoms: C_11  and  C_12
REMARK    5  A    between atoms: C_15  and  O_16
REMARK    6  A    between atoms: C_17  and  O_18
REMARK    7  A    between atoms: O_18  and  C_19
REMARK    8  A    between atoms: C_19  and  C_20
REMARK                            x       y       z     vdW  Elec       q    Type
REMARK                         _______ _______ _______ _____ _____    ______ ____
ROOT
ATOM      1  C   UNL A   1      -0.997  -3.347  -2.485  0.00  0.00    -0.046 C 
ATOM      2  C   UNL A   1       0.380  -3.023  -2.003  0.00  0.00    -0.085 C 
ATOM      3  C   UNL A   1       0.777  -2.650  -0.765  0.00  0.00    -0.035 C 
ATOM      4  C   UNL A   1       2.261  -2.596  -0.433  0.00  0.00    +0.006 C 
ATOM      5  C   UNL A   1       2.582  -3.547   0.709  0.00  0.00    -0.077 C 
ATOM      6  C   UNL A   1       1.640  -4.079   1.514  0.00  0.00    -0.073 C 
ATOM      7  C   UNL A   1       1.957  -5.061   2.600  0.00  0.00    -0.044 C 
ATOM      8  C   UNL A   1       0.173  -3.691   1.354  0.00  0.00    +0.001 C 
ATOM      9  C   UNL A   1      -0.040  -2.388   0.502  0.00  0.00    +0.113 C 
ATOM     10  C   UNL A   1       0.485  -1.205   1.324  0.00  0.00    -0.000 C 
ATOM     11  C   UNL A   1      -0.051  -0.752   2.473  0.00  0.00    -0.068 C 
ATOM     12  C   UNL A   1       0.484   0.443   3.191  0.00  0.00    +0.045 C 
ATOM     13  C   UNL A   1       1.303   1.314   2.248  0.00  0.00    +0.240 C 
ATOM     14  O   UNL A   1       1.279   2.539   2.354  0.00  0.00    -0.273 OA
ATOM     15  N   UNL A   1       2.112   0.669   1.343  0.00  0.00    -0.185 NA
ATOM     16  C   UNL A   1       1.734  -0.493   0.904  0.00  0.00    +0.040 C 
ATOM     17  C   UNL A   1       2.649  -1.159  -0.109  0.00  0.00    -0.002 C 
ENDROOT
BRANCH   9  18
ATOM     18  N   UNL A   1      -1.483  -2.270   0.242  0.00  0.00    -0.275 NA
ATOM     19  C   UNL A   1      -2.121  -1.218  -0.135  0.00  0.00    +0.031 C 
BRANCH  19  20
ATOM     20  C   UNL A   1      -1.620   0.142  -0.389  0.00  0.00    -0.004 A 
ATOM     21  C   UNL A   1      -2.100   1.172   0.423  0.00  0.00    -0.049 A 
ATOM     22  C   UNL A   1      -1.576   2.456   0.282  0.00  0.00    -0.016 A 
ATOM     23  C   UNL A   1      -0.586   2.705  -0.673  0.00  0.00    +0.158 A 
ATOM     24  C   UNL A   1      -0.137   1.684  -1.517  0.00  0.00    +0.162 A 
ATOM     25  C   UNL A   1      -0.684   0.405  -1.388  0.00  0.00    -0.008 A 
BRANCH  23  26
ATOM     26  O   UNL A   1      -0.083   3.972  -0.762  0.00  0.00    -0.503 OA
ATOM     27  H   UNL A   1      -0.397   4.642  -0.187  0.00  0.00    +0.000 HD
ENDBRANCH  23  26
BRANCH  24  28
ATOM     28  O   UNL A   1       0.811   1.787  -2.499  0.00  0.00    -0.489 OA
BRANCH  28  29
ATOM     29  C   UNL A   1       1.891   2.681  -2.225  0.00  0.00    +0.087 C 
ATOM     30  C   UNL A   1       3.079   2.243  -3.063  0.00  0.00    -0.031 C 
ENDBRANCH  28  29
ENDBRANCH  24  28
ENDBRANCH  19  20
ENDBRANCH   9  18
TORSDOF 5
