@<TRIPOS>MOLECULE
*****
 29 32 0 0 0
SMALL
GASTEIGER

@<TRIPOS>ATOM
      1 C          -0.4026   -3.0317    0.0000 C.3     1  UNL1        0.0301
      2 C           0.5974   -3.0317    0.0000 C.2     1  UNL1       -0.0319
      3 C           1.0974   -2.1656    0.0000 C.2     1  UNL1       -0.0204
      4 C           2.0974   -2.1656    0.0000 C.3     1  UNL1        0.0473
      5 C           1.5731   -2.7307    0.0000 C.2     1  UNL1       -0.0303
      6 C           0.8045   -2.6731    0.0000 C.2     1  UNL1       -0.0453
      7 C           0.3045   -3.5391    0.0000 C.3     1  UNL1        0.0261
      8 C           0.3702   -2.0362    0.0000 C.3     1  UNL1        0.0523
      9 C           0.5974   -1.2996    0.0000 C.3     1  UNL1        0.1231
     10 N           0.0000   -1.9427    0.0000 N.2     1  UNL1       -0.2644
     11 C          -0.8412   -1.4570    0.0000 C.2     1  UNL1        0.0938
     12 C          -0.8412   -0.4857    0.0000 C.ar    1  UNL1        0.0219
     13 C          -1.6824   -0.0000    0.0000 C.ar    1  UNL1        0.0050
     14 C          -1.6824    0.9714    0.0000 C.ar    1  UNL1        0.0453
     15 C          -0.8412    1.4570    0.0000 C.ar    1  UNL1        0.2293
     16 O          -0.8412    2.4284    0.0000 O.3     1  UNL1       -0.2833
     17 C          -0.0000    0.9714    0.0000 C.ar    1  UNL1        0.1772
     18 O           0.8412    1.4570    0.0000 O.3     1  UNL1       -0.4722
     19 C           1.6824    0.9714    0.0000 C.3     1  UNL1        0.2057
     20 C           2.3856    1.6415    0.0000 C.3     1  UNL1        0.0512
     21 C          -0.0000   -0.0000    0.0000 C.ar    1  UNL1        0.0418
     22 C           1.0974   -0.4336    0.0000 C.ar    1  UNL1        0.0154
     23 C           0.5974    0.4324    0.0000 C.ar    1  UNL1        0.0040
     24 C           1.0974    1.2985    0.0000 C.ar    1  UNL1        0.0623
     25 C           2.0974    1.2985    0.0000 C.ar    1  UNL1        0.2790
     26 O           2.5974    2.1645    0.0000 O.2     1  UNL1       -0.2652
     27 N           2.5974    0.4324    0.0000 N.ar    1  UNL1       -0.2125
     28 C           2.0974   -0.4336    0.0000 C.ar    1  UNL1        0.0609
     29 C           2.5974   -1.2996    0.0000 C.3     1  UNL1        0.0541
@<TRIPOS>BOND
     1     1     2    1
     2     2     3    2
     3     3     4    1
     4     4     5    1
     5     5     6    2
     6     6     7    1
     7     6     8    1
     8     8     9    1
     9     3     9    1
    10     9    10    1
    11    10    11    2
    12    11    12    1
    13    12    13   ar
    14    13    14   ar
    15    14    15   ar
    16    15    16    1
    17    15    17   ar
    18    17    18    1
    19    18    19    1
    20    19    20    1
    21    17    21   ar
    22    12    21   ar
    23     9    22    1
    24    22    23   ar
    25    23    24   ar
    26    24    25   ar
    27    25    26    2
    28    25    27   ar
    29    27    28   ar
    30    22    28   ar
    31    28    29    1
    32     4    29    1
