@<TRIPOS>MOLECULE
*****
 36 39 0 0 0
SMALL
GASTEIGER

@<TRIPOS>ATOM
      1 C          -4.6344   -1.8446    0.0000 C.3     1  UNL1        0.1122
      2 N          -3.6344   -1.8446    0.0000 N.pl3   1  UNL1       -0.3041
      3 C          -3.1344   -0.9785    0.0000 C.3     1  UNL1        0.1122
      4 C          -3.1344   -2.7106    0.0000 C.ar    1  UNL1        0.0479
      5 C          -3.6344   -3.5766    0.0000 C.ar    1  UNL1        0.0142
      6 C          -3.1344   -4.4426    0.0000 C.ar    1  UNL1       -0.0025
      7 C          -2.1344   -4.4426    0.0000 C.ar    1  UNL1       -0.0129
      8 C          -1.6344   -5.3087    0.0000 C.3     1  UNL1        0.1131
      9 C          -0.6344   -5.3087    0.0000 C.2     1  UNL1        0.2458
     10 O          -0.1344   -4.4426    0.0000 O.2     1  UNL1       -0.2730
     11 N           3.0053    0.0000    0.0000 N.am    1  UNL1       -0.2051
     12 C           2.5044   -0.8676    0.0000 C.3     1  UNL1        0.1152
     13 C           1.5027   -0.8676    0.0000 C.3     1  UNL1        0.0234
     14 C           1.0018    0.0000    0.0000 C.3     1  UNL1        0.0018
     15 C           0.0000   -0.0000    0.0000 C.3     1  UNL1        0.0001
     16 C          -0.8676    0.5009    0.0000 C.3     1  UNL1        0.0000
     17 C          -1.7351   -0.0000    0.0000 C.3     1  UNL1        0.0000
     18 C          -2.6027    0.5009    0.0000 C.3     1  UNL1        0.0000
     19 C          -3.4703   -0.0000    0.0000 C.3     1  UNL1        0.0000
     20 C          -4.3378    0.5009    0.0000 C.3     1  UNL1        0.0000
     21 C          -4.3378    1.5027    0.0000 C.3     1  UNL1        0.0015
     22 C          -3.4703    2.0036    0.0000 C.3     1  UNL1        0.0188
     23 C          -2.6027    1.5027    0.0000 C.3     1  UNL1        0.0886
     24 N          -1.7351    2.0036    0.0000 N.3     1  UNL1       -0.2208
     25 C           1.3656    5.0837    0.0000 C.3     1  UNL1        0.0594
     26 C           2.0727    5.7908    0.0000 C.3     1  UNL1        0.0161
     27 C           1.8139    6.7567    0.0000 C.3     1  UNL1        0.0013
     28 C           2.4954    6.3965    0.0000 C.3     1  UNL1        0.0001
     29 C           2.6387    5.6391    0.0000 C.3     1  UNL1        0.0013
     30 C           1.5830    6.6948    0.0000 C.3     1  UNL1        0.0001
     31 C           0.1409    6.3084    0.0000 C.3     1  UNL1        0.0013
     32 C           0.8480    7.0155    0.0000 C.3     1  UNL1        0.0001
     33 C           0.3997    5.3425    0.0000 C.3     1  UNL1        0.0161
     34 C           2.1359    5.0548    0.0000 C.3     1  UNL1        0.0161
     35 C          -1.6344   -3.5766    0.0000 C.ar    1  UNL1       -0.0025
     36 C          -2.1344   -2.7106    0.0000 C.ar    1  UNL1        0.0142
@<TRIPOS>BOND
     1     1     2    1
     2     2     3    1
     3     2     4    1
     4     4     5   ar
     5     5     6   ar
     6     6     7   ar
     7     7     8    1
     8     8     9    1
     9     9    10    2
    10     9    11   am
    11    11    12    1
    12    12    13    1
    13    13    14    1
    14    14    15    1
    15    15    16    1
    16    16    17    1
    17    17    18    1
    18    18    19    1
    19    19    20    1
    20    20    21    1
    21    21    22    1
    22    22    23    1
    23    23    24    1
    24    24    25    1
    25    25    26    1
    26    26    27    1
    27    27    28    1
    28    28    29    1
    29    29    30    1
    30    30    31    1
    31    31    32    1
    32    27    32    1
    33    31    33    1
    34    25    33    1
    35    29    34    1
    36    25    34    1
    37     7    35   ar
    38    35    36   ar
    39     4    36   ar
