REMARK  Name = cpd170.pdb
REMARK  19 active torsions:
REMARK  status: ('A' for Active; 'I' for Inactive)
REMARK    1  A    between atoms: C_1  and  N_2
REMARK    2  A    between atoms: N_2  and  C_3
REMARK    3  A    between atoms: N_2  and  C_4
REMARK    4  A    between atoms: C_7  and  C_8
REMARK    5  A    between atoms: C_8  and  C_9
REMARK    6  A    between atoms: N_11  and  C_12
REMARK    7  A    between atoms: C_12  and  C_13
REMARK    8  A    between atoms: C_13  and  C_14
REMARK    9  A    between atoms: C_14  and  C_15
REMARK   10  A    between atoms: C_15  and  C_16
REMARK   11  A    between atoms: C_16  and  C_17
REMARK   12  A    between atoms: C_17  and  C_18
REMARK   13  A    between atoms: C_18  and  C_19
REMARK   14  A    between atoms: C_19  and  C_20
REMARK   15  A    between atoms: C_20  and  C_21
REMARK   16  A    between atoms: C_21  and  C_22
REMARK   17  A    between atoms: C_22  and  C_23
REMARK   18  A    between atoms: C_23  and  N_24
REMARK   19  A    between atoms: N_24  and  C_25
REMARK                            x       y       z     vdW  Elec       q    Type
REMARK                         _______ _______ _______ _____ _____    ______ ____
ROOT
ATOM      1  C   UNL     1      -3.116   0.448   0.841  0.00  0.00    -0.053 C 
ENDROOT
BRANCH   1   2
ATOM      2  C   UNL     1      -1.854  -0.244   1.370  0.00  0.00    -0.053 C 
BRANCH   2   3
ATOM      3  C   UNL     1      -0.648  -0.124   0.432  0.00  0.00    -0.053 C 
BRANCH   3   4
ATOM      4  C   UNL     1       0.566  -0.934   0.901  0.00  0.00    -0.052 C 
BRANCH   4   5
ATOM      5  C   UNL     1       0.377  -2.439   0.721  0.00  0.00    -0.037 C 
BRANCH   5   6
ATOM      6  C   UNL     1       1.623  -3.222   1.136  0.00  0.00    +0.012 C 
BRANCH   6   9
ATOM      7  C   UNL     1       1.556  -5.258  -0.250  0.00  0.00    +0.217 C 
ATOM      8  O   UNL     1       2.099  -4.724  -1.213  0.00  0.00    -0.275 OA
ATOM      9  N   UNL     1       1.400  -4.644   0.978  0.00  0.00    -0.315 N 
ATOM     10  H   UNL     1       1.133  -5.182   1.758  0.00  0.00    +0.000 HD
BRANCH   7  11
ATOM     11  C   UNL     1       0.994  -6.670  -0.313  0.00  0.00    +0.049 C 
BRANCH  11  15
ATOM     12  C   UNL     1      -3.320  -6.683   0.423  0.00  0.00    +0.029 A 
ATOM     13  C   UNL     1      -2.745  -5.983  -0.652  0.00  0.00    -0.040 A 
ATOM     14  C   UNL     1      -1.366  -5.998  -0.905  0.00  0.00    -0.056 A 
ATOM     15  C   UNL     1      -0.497  -6.705  -0.073  0.00  0.00    -0.039 A 
ATOM     16  C   UNL     1      -1.038  -7.413   0.999  0.00  0.00    -0.056 A 
ATOM     17  C   UNL     1      -2.420  -7.393   1.239  0.00  0.00    -0.040 A 
BRANCH  12  19
ATOM     18  C   UNL     1      -5.276  -7.694   1.524  0.00  0.00    +0.000 C 
ATOM     19  N   UNL     1      -4.692  -6.640   0.695  0.00  0.00    -0.336 N 
ATOM     20  C   UNL     1      -5.596  -6.024  -0.275  0.00  0.00    +0.000 C 
ENDBRANCH  12  19
ENDBRANCH  11  15
ENDBRANCH   7  11
ENDBRANCH   6   9
ENDBRANCH   5   6
ENDBRANCH   4   5
ENDBRANCH   3   4
ENDBRANCH   2   3
ENDBRANCH   1   2
BRANCH   1  21
ATOM     21  C   UNL     1      -2.928   1.943   0.583  0.00  0.00    -0.053 C 
BRANCH  21  22
ATOM     22  C   UNL     1      -4.252   2.628   0.226  0.00  0.00    -0.053 C 
BRANCH  22  23
ATOM     23  C   UNL     1      -4.050   4.104  -0.132  0.00  0.00    -0.053 C 
BRANCH  23  24
ATOM     24  C   UNL     1      -3.518   4.290  -1.558  0.00  0.00    -0.052 C 
BRANCH  24  25
ATOM     25  C   UNL     1      -2.924   5.680  -1.807  0.00  0.00    -0.040 C 
BRANCH  25  26
ATOM     26  C   UNL     1      -1.552   5.845  -1.137  0.00  0.00    -0.004 C 
BRANCH  26  27
ATOM     27  N   UNL     1      -0.972   7.135  -1.505  0.00  0.00    -0.311 N 
ATOM     28  H   UNL     1      -1.605   7.866  -1.181  0.00  0.00    +0.000 HD
ATOM     29  H   UNL     1      -0.854   7.106  -2.518  0.00  0.00    +0.000 HD
BRANCH  27  30
ATOM     30  C   UNL     1       0.365   7.419  -0.955  0.00  0.00    +0.020 C 
ATOM     31  C   UNL     1       0.757   8.838  -1.453  0.00  0.00    -0.032 C 
ATOM     32  C   UNL     1       2.148   9.240  -0.933  0.00  0.00    -0.039 C 
ATOM     33  C   UNL     1       3.188   8.227  -1.436  0.00  0.00    -0.047 C 
ATOM     34  C   UNL     1       2.835   6.820  -0.931  0.00  0.00    -0.039 C 
ATOM     35  C   UNL     1       2.814   6.822   0.607  0.00  0.00    -0.047 C 
ATOM     36  C   UNL     1       1.774   7.833   1.119  0.00  0.00    -0.039 C 
ATOM     37  C   UNL     1       2.132   9.235   0.603  0.00  0.00    -0.047 C 
ATOM     38  C   UNL     1       0.382   7.436   0.595  0.00  0.00    -0.032 C 
ATOM     39  C   UNL     1       1.444   6.423  -1.458  0.00  0.00    -0.032 C 
ENDBRANCH  27  30
ENDBRANCH  26  27
ENDBRANCH  25  26
ENDBRANCH  24  25
ENDBRANCH  23  24
ENDBRANCH  22  23
ENDBRANCH  21  22
ENDBRANCH   1  21
TORSDOF 17
