MODEL 1
REMARK VINA RESULT:    -5.596      0.000      0.000
REMARK INTER + INTRA:         -15.118
REMARK INTER:                 -11.157
REMARK INTRA:                  -3.961
REMARK UNBOUND:                -3.961
REMARK  Name = cpd170.pdb
REMARK  19 active torsions:
REMARK  status: ('A' for Active; 'I' for Inactive)
REMARK    1  A    between atoms: C_1  and  N_2
REMARK    2  A    between atoms: N_2  and  C_3
REMARK    3  A    between atoms: N_2  and  C_4
REMARK    4  A    between atoms: C_7  and  C_8
REMARK    5  A    between atoms: C_8  and  C_9
REMARK    6  A    between atoms: N_11  and  C_12
REMARK    7  A    between atoms: C_12  and  C_13
REMARK    8  A    between atoms: C_13  and  C_14
REMARK    9  A    between atoms: C_14  and  C_15
REMARK   10  A    between atoms: C_15  and  C_16
REMARK   11  A    between atoms: C_16  and  C_17
REMARK   12  A    between atoms: C_17  and  C_18
REMARK   13  A    between atoms: C_18  and  C_19
REMARK   14  A    between atoms: C_19  and  C_20
REMARK   15  A    between atoms: C_20  and  C_21
REMARK   16  A    between atoms: C_21  and  C_22
REMARK   17  A    between atoms: C_22  and  C_23
REMARK   18  A    between atoms: C_23  and  N_24
REMARK   19  A    between atoms: N_24  and  C_25
REMARK                            x       y       z     vdW  Elec       q    Type
REMARK                         _______ _______ _______ _____ _____    ______ ____
ROOT
ATOM      1  C   UNL     1      43.237 -18.528 -33.979  0.00  0.00    -0.053 C 
ENDROOT
BRANCH   1   2
ATOM      2  C   UNL     1      43.841 -19.938 -33.963  0.00  0.00    -0.053 C 
BRANCH   2   3
ATOM      3  C   UNL     1      45.283 -19.995 -34.480  0.00  0.00    -0.053 C 
BRANCH   3   4
ATOM      4  C   UNL     1      45.441 -19.430 -35.896  0.00  0.00    -0.052 C 
BRANCH   4   5
ATOM      5  C   UNL     1      45.978 -18.001 -35.905  0.00  0.00    -0.037 C 
BRANCH   5   6
ATOM      6  C   UNL     1      45.516 -17.227 -37.140  0.00  0.00    +0.012 C 
BRANCH   6   9
ATOM      7  C   UNL     1      44.414 -17.758 -39.279  0.00  0.00    +0.217 C 
ATOM      8  O   UNL     1      44.088 -16.594 -39.498  0.00  0.00    -0.275 OA
ATOM      9  N   UNL     1      45.220 -18.141 -38.224  0.00  0.00    -0.315 N 
ATOM     10  H   UNL     1      45.599 -19.049 -38.210  0.00  0.00    +0.000 HD
BRANCH   7  11
ATOM     11  C   UNL     1      43.957 -18.910 -40.160  0.00  0.00    +0.049 C 
BRANCH  11  15
ATOM     12  C   UNL     1      47.079 -21.893 -40.870  0.00  0.00    +0.029 A 
ATOM     13  C   UNL     1      47.185 -20.572 -41.338  0.00  0.00    -0.040 A 
ATOM     14  C   UNL     1      46.198 -19.607 -41.090  0.00  0.00    -0.056 A 
ATOM     15  C   UNL     1      45.046 -19.935 -40.374  0.00  0.00    -0.039 A 
ATOM     16  C   UNL     1      44.914 -21.237 -39.893  0.00  0.00    -0.056 A 
ATOM     17  C   UNL     1      45.911 -22.191 -40.144  0.00  0.00    -0.040 A 
BRANCH  12  19
ATOM     18  C   UNL     1      49.454 -22.541 -40.905  0.00  0.00    +0.000 C 
ATOM     19  N   UNL     1      48.048 -22.864 -41.147  0.00  0.00    -0.336 N 
ATOM     20  C   UNL     1      47.797 -23.848 -42.198  0.00  0.00    +0.000 C 
ENDBRANCH  12  19
ENDBRANCH  11  15
ENDBRANCH   7  11
ENDBRANCH   6   9
ENDBRANCH   5   6
ENDBRANCH   4   5
ENDBRANCH   3   4
ENDBRANCH   2   3
ENDBRANCH   1   2
BRANCH   1  21
ATOM     21  C   UNL     1      41.747 -18.500 -33.640  0.00  0.00    -0.053 C 
BRANCH  21  22
ATOM     22  C   UNL     1      41.363 -19.628 -32.676  0.00  0.00    -0.053 C 
BRANCH  22  23
ATOM     23  C   UNL     1      39.866 -19.616 -32.353  0.00  0.00    -0.053 C 
BRANCH  23  24
ATOM     24  C   UNL     1      39.235 -21.009 -32.459  0.00  0.00    -0.052 C 
BRANCH  24  25
ATOM     25  C   UNL     1      40.263 -22.126 -32.668  0.00  0.00    -0.040 C 
BRANCH  25  26
ATOM     26  C   UNL     1      40.075 -22.832 -34.019  0.00  0.00    -0.004 C 
BRANCH  26  27
ATOM     27  N   UNL     1      39.262 -22.000 -34.904  0.00  0.00    -0.311 N 
ATOM     28  H   UNL     1      38.932 -21.200 -34.365  0.00  0.00    +0.000 HD
ATOM     29  H   UNL     1      38.516 -22.607 -35.246  0.00  0.00    +0.000 HD
BRANCH  27  30
ATOM     30  C   UNL     1      39.941 -21.486 -36.107  0.00  0.00    +0.020 C 
ATOM     31  C   UNL     1      41.436 -21.888 -35.977  0.00  0.00    -0.032 C 
ATOM     32  C   UNL     1      42.246 -21.397 -37.190  0.00  0.00    -0.039 C 
ATOM     33  C   UNL     1      42.144 -19.867 -37.280  0.00  0.00    -0.047 C 
ATOM     34  C   UNL     1      40.674 -19.449 -37.437  0.00  0.00    -0.039 C 
ATOM     35  C   UNL     1      40.099 -20.084 -38.715  0.00  0.00    -0.047 C 
ATOM     36  C   UNL     1      40.196 -21.617 -38.632  0.00  0.00    -0.039 C 
ATOM     37  C   UNL     1      41.668 -22.024 -38.468  0.00  0.00    -0.047 C 
ATOM     38  C   UNL     1      39.391 -22.109 -37.415  0.00  0.00    -0.032 C 
ATOM     39  C   UNL     1      39.871 -19.940 -36.219  0.00  0.00    -0.032 C 
ENDBRANCH  27  30
ENDBRANCH  26  27
ENDBRANCH  25  26
ENDBRANCH  24  25
ENDBRANCH  23  24
ENDBRANCH  22  23
ENDBRANCH  21  22
ENDBRANCH   1  21
TORSDOF 17
ENDMDL
MODEL 2
REMARK VINA RESULT:    -5.534     16.978     20.629
REMARK INTER + INTRA:         -14.995
REMARK INTER:                 -11.713
REMARK INTRA:                  -3.282
REMARK UNBOUND:                -3.961
REMARK  Name = cpd170.pdb
REMARK  19 active torsions:
REMARK  status: ('A' for Active; 'I' for Inactive)
REMARK    1  A    between atoms: C_1  and  N_2
REMARK    2  A    between atoms: N_2  and  C_3
REMARK    3  A    between atoms: N_2  and  C_4
REMARK    4  A    between atoms: C_7  and  C_8
REMARK    5  A    between atoms: C_8  and  C_9
REMARK    6  A    between atoms: N_11  and  C_12
REMARK    7  A    between atoms: C_12  and  C_13
REMARK    8  A    between atoms: C_13  and  C_14
REMARK    9  A    between atoms: C_14  and  C_15
REMARK   10  A    between atoms: C_15  and  C_16
REMARK   11  A    between atoms: C_16  and  C_17
REMARK   12  A    between atoms: C_17  and  C_18
REMARK   13  A    between atoms: C_18  and  C_19
REMARK   14  A    between atoms: C_19  and  C_20
REMARK   15  A    between atoms: C_20  and  C_21
REMARK   16  A    between atoms: C_21  and  C_22
REMARK   17  A    between atoms: C_22  and  C_23
REMARK   18  A    between atoms: C_23  and  N_24
REMARK   19  A    between atoms: N_24  and  C_25
REMARK                            x       y       z     vdW  Elec       q    Type
REMARK                         _______ _______ _______ _____ _____    ______ ____
ROOT
ATOM      1  C   UNL     1      30.129 -40.221 -32.084  0.00  0.00    -0.053 C 
ENDROOT
BRANCH   1   2
ATOM      2  C   UNL     1      31.177 -39.947 -30.998  0.00  0.00    -0.053 C 
BRANCH   2   3
ATOM      3  C   UNL     1      31.973 -38.657 -31.223  0.00  0.00    -0.053 C 
BRANCH   3   4
ATOM      4  C   UNL     1      33.489 -38.878 -31.250  0.00  0.00    -0.052 C 
BRANCH   4   5
ATOM      5  C   UNL     1      33.868 -40.349 -31.412  0.00  0.00    -0.037 C 
BRANCH   5   6
ATOM      6  C   UNL     1      35.025 -40.742 -30.492  0.00  0.00    +0.012 C 
BRANCH   6   9
ATOM      7  C   UNL     1      35.972 -39.303 -28.731  0.00  0.00    +0.217 C 
ATOM      8  O   UNL     1      35.780 -40.123 -27.837  0.00  0.00    -0.275 OA
ATOM      9  N   UNL     1      35.755 -39.565 -30.070  0.00  0.00    -0.315 N 
ATOM     10  H   UNL     1      36.103 -38.942 -30.748  0.00  0.00    +0.000 HD
BRANCH   7  11
ATOM     11  C   UNL     1      36.475 -37.896 -28.448  0.00  0.00    +0.049 C 
BRANCH  11  15
ATOM     12  C   UNL     1      40.381 -37.212 -30.301  0.00  0.00    +0.029 A 
ATOM     13  C   UNL     1      39.201 -36.635 -30.803  0.00  0.00    -0.040 A 
ATOM     14  C   UNL     1      37.952 -36.832 -30.197  0.00  0.00    -0.056 A 
ATOM     15  C   UNL     1      37.830 -37.637 -29.064  0.00  0.00    -0.039 A 
ATOM     16  C   UNL     1      38.983 -38.220 -28.539  0.00  0.00    -0.056 A 
ATOM     17  C   UNL     1      40.227 -38.012 -29.154  0.00  0.00    -0.040 A 
BRANCH  12  19
ATOM     18  C   UNL     1      41.799 -35.911 -31.836  0.00  0.00    +0.000 C 
ATOM     19  N   UNL     1      41.621 -37.043 -30.927  0.00  0.00    -0.336 N 
ATOM     20  C   UNL     1      42.449 -38.215 -31.206  0.00  0.00    +0.000 C 
ENDBRANCH  12  19
ENDBRANCH  11  15
ENDBRANCH   7  11
ENDBRANCH   6   9
ENDBRANCH   5   6
ENDBRANCH   4   5
ENDBRANCH   3   4
ENDBRANCH   2   3
ENDBRANCH   1   2
BRANCH   1  21
ATOM     21  C   UNL     1      29.547 -38.949 -32.702  0.00  0.00    -0.053 C 
BRANCH  21  22
ATOM     22  C   UNL     1      29.384 -39.080 -34.220  0.00  0.00    -0.053 C 
BRANCH  22  23
ATOM     23  C   UNL     1      29.911 -37.844 -34.957  0.00  0.00    -0.053 C 
BRANCH  23  24
ATOM     24  C   UNL     1      30.800 -36.969 -34.065  0.00  0.00    -0.052 C 
BRANCH  24  25
ATOM     25  C   UNL     1      32.217 -36.785 -34.615  0.00  0.00    -0.040 C 
BRANCH  25  26
ATOM     26  C   UNL     1      33.031 -35.785 -33.781  0.00  0.00    -0.004 C 
BRANCH  26  27
ATOM     27  N   UNL     1      32.225 -35.301 -32.662  0.00  0.00    -0.311 N 
ATOM     28  H   UNL     1      31.628 -36.068 -32.353  0.00  0.00    +0.000 HD
ATOM     29  H   UNL     1      31.713 -34.494 -33.019  0.00  0.00    +0.000 HD
BRANCH  27  30
ATOM     30  C   UNL     1      32.976 -34.813 -31.492  0.00  0.00    +0.020 C 
ATOM     31  C   UNL     1      32.905 -33.261 -31.536  0.00  0.00    -0.032 C 
ATOM     32  C   UNL     1      33.664 -32.642 -30.349  0.00  0.00    -0.039 C 
ATOM     33  C   UNL     1      35.136 -33.078 -30.406  0.00  0.00    -0.047 C 
ATOM     34  C   UNL     1      35.231 -34.609 -30.336  0.00  0.00    -0.039 C 
ATOM     35  C   UNL     1      34.595 -35.099 -29.024  0.00  0.00    -0.047 C 
ATOM     36  C   UNL     1      33.120 -34.667 -28.959  0.00  0.00    -0.039 C 
ATOM     37  C   UNL     1      33.035 -33.135 -29.037  0.00  0.00    -0.047 C 
ATOM     38  C   UNL     1      32.360 -35.281 -30.149  0.00  0.00    -0.032 C 
ATOM     39  C   UNL     1      34.473 -35.223 -31.528  0.00  0.00    -0.032 C 
ENDBRANCH  27  30
ENDBRANCH  26  27
ENDBRANCH  25  26
ENDBRANCH  24  25
ENDBRANCH  23  24
ENDBRANCH  22  23
ENDBRANCH  21  22
ENDBRANCH   1  21
TORSDOF 17
ENDMDL
MODEL 3
REMARK VINA RESULT:    -5.532      2.070      6.212
REMARK INTER + INTRA:         -14.990
REMARK INTER:                 -10.458
REMARK INTRA:                  -4.532
REMARK UNBOUND:                -3.961
REMARK  Name = cpd170.pdb
REMARK  19 active torsions:
REMARK  status: ('A' for Active; 'I' for Inactive)
REMARK    1  A    between atoms: C_1  and  N_2
REMARK    2  A    between atoms: N_2  and  C_3
REMARK    3  A    between atoms: N_2  and  C_4
REMARK    4  A    between atoms: C_7  and  C_8
REMARK    5  A    between atoms: C_8  and  C_9
REMARK    6  A    between atoms: N_11  and  C_12
REMARK    7  A    between atoms: C_12  and  C_13
REMARK    8  A    between atoms: C_13  and  C_14
REMARK    9  A    between atoms: C_14  and  C_15
REMARK   10  A    between atoms: C_15  and  C_16
REMARK   11  A    between atoms: C_16  and  C_17
REMARK   12  A    between atoms: C_17  and  C_18
REMARK   13  A    between atoms: C_18  and  C_19
REMARK   14  A    between atoms: C_19  and  C_20
REMARK   15  A    between atoms: C_20  and  C_21
REMARK   16  A    between atoms: C_21  and  C_22
REMARK   17  A    between atoms: C_22  and  C_23
REMARK   18  A    between atoms: C_23  and  N_24
REMARK   19  A    between atoms: N_24  and  C_25
REMARK                            x       y       z     vdW  Elec       q    Type
REMARK                         _______ _______ _______ _____ _____    ______ ____
ROOT
ATOM      1  C   UNL     1      44.156 -18.781 -40.421  0.00  0.00    -0.053 C 
ENDROOT
BRANCH   1   2
ATOM      2  C   UNL     1      44.517 -19.278 -41.826  0.00  0.00    -0.053 C 
BRANCH   2   3
ATOM      3  C   UNL     1      45.683 -20.273 -41.846  0.00  0.00    -0.053 C 
BRANCH   3   4
ATOM      4  C   UNL     1      45.279 -21.688 -41.416  0.00  0.00    -0.052 C 
BRANCH   4   5
ATOM      5  C   UNL     1      45.936 -22.117 -40.106  0.00  0.00    -0.037 C 
BRANCH   5   6
ATOM      6  C   UNL     1      47.111 -21.212 -39.736  0.00  0.00    +0.012 C 
BRANCH   6   9
ATOM      7  C   UNL     1      47.130 -19.404 -38.061  0.00  0.00    +0.217 C 
ATOM      8  O   UNL     1      47.160 -18.510 -38.901  0.00  0.00    -0.275 OA
ATOM      9  N   UNL     1      46.975 -20.742 -38.373  0.00  0.00    -0.315 N 
ATOM     10  H   UNL     1      46.769 -21.385 -37.657  0.00  0.00    +0.000 HD
BRANCH   7  11
ATOM     11  C   UNL     1      47.261 -19.126 -36.572  0.00  0.00    +0.049 C 
BRANCH  11  15
ATOM     12  C   UNL     1      43.446 -19.270 -34.432  0.00  0.00    +0.029 A 
ATOM     13  C   UNL     1      43.783 -18.211 -35.293  0.00  0.00    -0.040 A 
ATOM     14  C   UNL     1      44.994 -18.175 -35.999  0.00  0.00    -0.056 A 
ATOM     15  C   UNL     1      45.932 -19.198 -35.856  0.00  0.00    -0.039 A 
ATOM     16  C   UNL     1      45.624 -20.264 -35.013  0.00  0.00    -0.056 A 
ATOM     17  C   UNL     1      44.408 -20.290 -34.315  0.00  0.00    -0.040 A 
BRANCH  12  19
ATOM     18  C   UNL     1      41.771 -20.567 -33.177  0.00  0.00    +0.000 C 
ATOM     19  N   UNL     1      42.252 -19.289 -33.702  0.00  0.00    -0.336 N 
ATOM     20  C   UNL     1      41.221 -18.293 -33.989  0.00  0.00    +0.000 C 
ENDBRANCH  12  19
ENDBRANCH  11  15
ENDBRANCH   7  11
ENDBRANCH   6   9
ENDBRANCH   5   6
ENDBRANCH   4   5
ENDBRANCH   3   4
ENDBRANCH   2   3
ENDBRANCH   1   2
BRANCH   1  21
ATOM     21  C   UNL     1      44.127 -17.257 -40.304  0.00  0.00    -0.053 C 
BRANCH  21  22
ATOM     22  C   UNL     1      43.041 -16.784 -39.331  0.00  0.00    -0.053 C 
BRANCH  22  23
ATOM     23  C   UNL     1      42.110 -15.753 -39.976  0.00  0.00    -0.053 C 
BRANCH  23  24
ATOM     24  C   UNL     1      40.743 -15.690 -39.284  0.00  0.00    -0.052 C 
BRANCH  24  25
ATOM     25  C   UNL     1      39.777 -16.784 -39.749  0.00  0.00    -0.040 C 
BRANCH  25  26
ATOM     26  C   UNL     1      39.341 -17.693 -38.590  0.00  0.00    -0.004 C 
BRANCH  26  27
ATOM     27  N   UNL     1      39.077 -19.041 -39.089  0.00  0.00    -0.311 N 
ATOM     28  H   UNL     1      39.009 -18.991 -40.105  0.00  0.00    +0.000 HD
ATOM     29  H   UNL     1      38.218 -19.343 -38.629  0.00  0.00    +0.000 HD
BRANCH  27  30
ATOM     30  C   UNL     1      40.088 -20.059 -38.754  0.00  0.00    +0.020 C 
ATOM     31  C   UNL     1      39.309 -21.324 -38.297  0.00  0.00    -0.032 C 
ATOM     32  C   UNL     1      40.275 -22.461 -37.921  0.00  0.00    -0.039 C 
ATOM     33  C   UNL     1      41.185 -21.992 -36.775  0.00  0.00    -0.047 C 
ATOM     34  C   UNL     1      41.987 -20.758 -37.216  0.00  0.00    -0.039 C 
ATOM     35  C   UNL     1      42.841 -21.117 -38.443  0.00  0.00    -0.047 C 
ATOM     36  C   UNL     1      41.936 -21.587 -39.596  0.00  0.00    -0.039 C 
ATOM     37  C   UNL     1      41.134 -22.816 -39.143  0.00  0.00    -0.047 C 
ATOM     38  C   UNL     1      40.965 -20.453 -39.970  0.00  0.00    -0.032 C 
ATOM     39  C   UNL     1      41.014 -19.624 -37.587  0.00  0.00    -0.032 C 
ENDBRANCH  27  30
ENDBRANCH  26  27
ENDBRANCH  25  26
ENDBRANCH  24  25
ENDBRANCH  23  24
ENDBRANCH  22  23
ENDBRANCH  21  22
ENDBRANCH   1  21
TORSDOF 17
ENDMDL
MODEL 4
REMARK VINA RESULT:    -5.502      1.738      4.571
REMARK INTER + INTRA:         -14.930
REMARK INTER:                 -11.244
REMARK INTRA:                  -3.686
REMARK UNBOUND:                -3.961
REMARK  Name = cpd170.pdb
REMARK  19 active torsions:
REMARK  status: ('A' for Active; 'I' for Inactive)
REMARK    1  A    between atoms: C_1  and  N_2
REMARK    2  A    between atoms: N_2  and  C_3
REMARK    3  A    between atoms: N_2  and  C_4
REMARK    4  A    between atoms: C_7  and  C_8
REMARK    5  A    between atoms: C_8  and  C_9
REMARK    6  A    between atoms: N_11  and  C_12
REMARK    7  A    between atoms: C_12  and  C_13
REMARK    8  A    between atoms: C_13  and  C_14
REMARK    9  A    between atoms: C_14  and  C_15
REMARK   10  A    between atoms: C_15  and  C_16
REMARK   11  A    between atoms: C_16  and  C_17
REMARK   12  A    between atoms: C_17  and  C_18
REMARK   13  A    between atoms: C_18  and  C_19
REMARK   14  A    between atoms: C_19  and  C_20
REMARK   15  A    between atoms: C_20  and  C_21
REMARK   16  A    between atoms: C_21  and  C_22
REMARK   17  A    between atoms: C_22  and  C_23
REMARK   18  A    between atoms: C_23  and  N_24
REMARK   19  A    between atoms: N_24  and  C_25
REMARK                            x       y       z     vdW  Elec       q    Type
REMARK                         _______ _______ _______ _____ _____    ______ ____
ROOT
ATOM      1  C   UNL     1      47.169 -17.283 -38.519  0.00  0.00    -0.053 C 
ENDROOT
BRANCH   1   2
ATOM      2  C   UNL     1      46.739 -16.846 -39.924  0.00  0.00    -0.053 C 
BRANCH   2   3
ATOM      3  C   UNL     1      46.162 -17.984 -40.772  0.00  0.00    -0.053 C 
BRANCH   3   4
ATOM      4  C   UNL     1      44.746 -17.698 -41.285  0.00  0.00    -0.052 C 
BRANCH   4   5
ATOM      5  C   UNL     1      44.089 -16.514 -40.578  0.00  0.00    -0.037 C 
BRANCH   5   6
ATOM      6  C   UNL     1      42.845 -16.938 -39.796  0.00  0.00    +0.012 C 
BRANCH   6   9
ATOM      7  C   UNL     1      42.285 -19.059 -38.675  0.00  0.00    +0.217 C 
ATOM      8  O   UNL     1      41.772 -18.510 -37.704  0.00  0.00    -0.275 OA
ATOM      9  N   UNL     1      42.717 -18.381 -39.798  0.00  0.00    -0.315 N 
ATOM     10  H   UNL     1      42.941 -18.886 -40.613  0.00  0.00    +0.000 HD
BRANCH   7  11
ATOM     11  C   UNL     1      42.497 -20.564 -38.739  0.00  0.00    +0.049 C 
BRANCH  11  15
ATOM     12  C   UNL     1      46.227 -21.723 -40.712  0.00  0.00    +0.029 A 
ATOM     13  C   UNL     1      44.991 -21.730 -41.382  0.00  0.00    -0.040 A 
ATOM     14  C   UNL     1      43.799 -21.335 -40.760  0.00  0.00    -0.056 A 
ATOM     15  C   UNL     1      43.792 -20.932 -39.424  0.00  0.00    -0.039 A 
ATOM     16  C   UNL     1      45.004 -20.909 -38.734  0.00  0.00    -0.056 A 
ATOM     17  C   UNL     1      46.190 -21.304 -39.370  0.00  0.00    -0.040 A 
BRANCH  12  19
ATOM     18  C   UNL     1      47.335 -23.183 -42.356  0.00  0.00    +0.000 C 
ATOM     19  N   UNL     1      47.412 -22.150 -41.323  0.00  0.00    -0.336 N 
ATOM     20  C   UNL     1      48.665 -22.098 -40.572  0.00  0.00    +0.000 C 
ENDBRANCH  12  19
ENDBRANCH  11  15
ENDBRANCH   7  11
ENDBRANCH   6   9
ENDBRANCH   5   6
ENDBRANCH   4   5
ENDBRANCH   3   4
ENDBRANCH   2   3
ENDBRANCH   1   2
BRANCH   1  21
ATOM     21  C   UNL     1      47.061 -16.171 -37.476  0.00  0.00    -0.053 C 
BRANCH  21  22
ATOM     22  C   UNL     1      45.643 -16.066 -36.903  0.00  0.00    -0.053 C 
BRANCH  22  23
ATOM     23  C   UNL     1      44.966 -17.436 -36.808  0.00  0.00    -0.053 C 
BRANCH  23  24
ATOM     24  C   UNL     1      45.099 -18.056 -35.411  0.00  0.00    -0.052 C 
BRANCH  24  25
ATOM     25  C   UNL     1      44.366 -19.394 -35.269  0.00  0.00    -0.040 C 
BRANCH  25  26
ATOM     26  C   UNL     1      43.887 -19.635 -33.830  0.00  0.00    -0.004 C 
BRANCH  26  27
ATOM     27  N   UNL     1      43.192 -20.917 -33.746  0.00  0.00    -0.311 N 
ATOM     28  H   UNL     1      43.536 -21.406 -32.919  0.00  0.00    +0.000 HD
ATOM     29  H   UNL     1      43.391 -21.397 -34.625  0.00  0.00    +0.000 HD
BRANCH  27  30
ATOM     30  C   UNL     1      41.724 -20.848 -33.652  0.00  0.00    +0.020 C 
ATOM     31  C   UNL     1      41.170 -21.249 -35.047  0.00  0.00    -0.032 C 
ATOM     32  C   UNL     1      39.632 -21.210 -35.062  0.00  0.00    -0.039 C 
ATOM     33  C   UNL     1      39.159 -19.788 -34.725  0.00  0.00    -0.047 C 
ATOM     34  C   UNL     1      39.672 -19.381 -33.336  0.00  0.00    -0.039 C 
ATOM     35  C   UNL     1      39.135 -20.369 -32.286  0.00  0.00    -0.047 C 
ATOM     36  C   UNL     1      39.606 -21.796 -32.615  0.00  0.00    -0.039 C 
ATOM     37  C   UNL     1      39.094 -22.190 -34.009  0.00  0.00    -0.047 C 
ATOM     38  C   UNL     1      41.145 -21.836 -32.607  0.00  0.00    -0.032 C 
ATOM     39  C   UNL     1      41.211 -19.419 -33.329  0.00  0.00    -0.032 C 
ENDBRANCH  27  30
ENDBRANCH  26  27
ENDBRANCH  25  26
ENDBRANCH  24  25
ENDBRANCH  23  24
ENDBRANCH  22  23
ENDBRANCH  21  22
ENDBRANCH   1  21
TORSDOF 17
ENDMDL
MODEL 5
REMARK VINA RESULT:    -5.465      3.381      8.595
REMARK INTER + INTRA:         -14.857
REMARK INTER:                 -10.593
REMARK INTRA:                  -4.264
REMARK UNBOUND:                -3.961
REMARK  Name = cpd170.pdb
REMARK  19 active torsions:
REMARK  status: ('A' for Active; 'I' for Inactive)
REMARK    1  A    between atoms: C_1  and  N_2
REMARK    2  A    between atoms: N_2  and  C_3
REMARK    3  A    between atoms: N_2  and  C_4
REMARK    4  A    between atoms: C_7  and  C_8
REMARK    5  A    between atoms: C_8  and  C_9
REMARK    6  A    between atoms: N_11  and  C_12
REMARK    7  A    between atoms: C_12  and  C_13
REMARK    8  A    between atoms: C_13  and  C_14
REMARK    9  A    between atoms: C_14  and  C_15
REMARK   10  A    between atoms: C_15  and  C_16
REMARK   11  A    between atoms: C_16  and  C_17
REMARK   12  A    between atoms: C_17  and  C_18
REMARK   13  A    between atoms: C_18  and  C_19
REMARK   14  A    between atoms: C_19  and  C_20
REMARK   15  A    between atoms: C_20  and  C_21
REMARK   16  A    between atoms: C_21  and  C_22
REMARK   17  A    between atoms: C_22  and  C_23
REMARK   18  A    between atoms: C_23  and  N_24
REMARK   19  A    between atoms: N_24  and  C_25
REMARK                            x       y       z     vdW  Elec       q    Type
REMARK                         _______ _______ _______ _____ _____    ______ ____
ROOT
ATOM      1  C   UNL     1      39.072 -17.047 -35.827  0.00  0.00    -0.053 C 
ENDROOT
BRANCH   1   2
ATOM      2  C   UNL     1      38.901 -18.113 -36.916  0.00  0.00    -0.053 C 
BRANCH   2   3
ATOM      3  C   UNL     1      38.927 -19.548 -36.380  0.00  0.00    -0.053 C 
BRANCH   3   4
ATOM      4  C   UNL     1      40.339 -20.142 -36.310  0.00  0.00    -0.052 C 
BRANCH   4   5
ATOM      5  C   UNL     1      40.467 -21.454 -37.082  0.00  0.00    -0.037 C 
BRANCH   5   6
ATOM      6  C   UNL     1      41.150 -22.539 -36.249  0.00  0.00    +0.012 C 
BRANCH   6   9
ATOM      7  C   UNL     1      40.054 -22.888 -34.070  0.00  0.00    +0.217 C 
ATOM      8  O   UNL     1      39.427 -23.875 -34.446  0.00  0.00    -0.275 OA
ATOM      9  N   UNL     1      41.011 -22.252 -34.836  0.00  0.00    -0.315 N 
ATOM     10  H   UNL     1      41.609 -21.592 -34.415  0.00  0.00    +0.000 HD
BRANCH   7  11
ATOM     11  C   UNL     1      39.837 -22.261 -32.701  0.00  0.00    +0.049 C 
BRANCH  11  15
ATOM     12  C   UNL     1      36.943 -18.978 -32.720  0.00  0.00    +0.029 A 
ATOM     13  C   UNL     1      38.326 -18.758 -32.591  0.00  0.00    -0.040 A 
ATOM     14  C   UNL     1      39.257 -19.806 -32.611  0.00  0.00    -0.056 A 
ATOM     15  C   UNL     1      38.836 -21.130 -32.741  0.00  0.00    -0.039 A 
ATOM     16  C   UNL     1      37.472 -21.380 -32.876  0.00  0.00    -0.056 A 
ATOM     17  C   UNL     1      36.550 -20.322 -32.859  0.00  0.00    -0.040 A 
BRANCH  12  19
ATOM     18  C   UNL     1      36.338 -16.743 -31.885  0.00  0.00    +0.000 C 
ATOM     19  N   UNL     1      36.012 -17.935 -32.667  0.00  0.00    -0.336 N 
ATOM     20  C   UNL     1      34.587 -18.239 -32.793  0.00  0.00    +0.000 C 
ENDBRANCH  12  19
ENDBRANCH  11  15
ENDBRANCH   7  11
ENDBRANCH   6   9
ENDBRANCH   5   6
ENDBRANCH   4   5
ENDBRANCH   3   4
ENDBRANCH   2   3
ENDBRANCH   1   2
BRANCH   1  21
ATOM     21  C   UNL     1      40.326 -16.191 -36.005  0.00  0.00    -0.053 C 
BRANCH  21  22
ATOM     22  C   UNL     1      41.598 -16.967 -35.648  0.00  0.00    -0.053 C 
BRANCH  22  23
ATOM     23  C   UNL     1      42.278 -16.399 -34.397  0.00  0.00    -0.053 C 
BRANCH  23  24
ATOM     24  C   UNL     1      41.799 -17.084 -33.112  0.00  0.00    -0.052 C 
BRANCH  24  25
ATOM     25  C   UNL     1      42.476 -18.435 -32.857  0.00  0.00    -0.040 C 
BRANCH  25  26
ATOM     26  C   UNL     1      43.998 -18.295 -32.714  0.00  0.00    -0.004 C 
BRANCH  26  27
ATOM     27  N   UNL     1      44.661 -19.455 -33.307  0.00  0.00    -0.311 N 
ATOM     28  H   UNL     1      43.999 -20.230 -33.300  0.00  0.00    +0.000 HD
ATOM     29  H   UNL     1      45.495 -19.616 -32.741  0.00  0.00    +0.000 HD
BRANCH  27  30
ATOM     30  C   UNL     1      45.142 -19.283 -34.689  0.00  0.00    +0.020 C 
ATOM     31  C   UNL     1      43.976 -19.714 -35.621  0.00  0.00    -0.032 C 
ATOM     32  C   UNL     1      44.373 -19.573 -37.101  0.00  0.00    -0.039 C 
ATOM     33  C   UNL     1      45.594 -20.461 -37.383  0.00  0.00    -0.047 C 
ATOM     34  C   UNL     1      46.769 -20.034 -36.491  0.00  0.00    -0.039 C 
ATOM     35  C   UNL     1      47.119 -18.564 -36.779  0.00  0.00    -0.047 C 
ATOM     36  C   UNL     1      45.901 -17.668 -36.498  0.00  0.00    -0.039 C 
ATOM     37  C   UNL     1      44.730 -18.107 -37.389  0.00  0.00    -0.047 C 
ATOM     38  C   UNL     1      45.499 -17.811 -35.019  0.00  0.00    -0.032 C 
ATOM     39  C   UNL     1      46.367 -20.181 -35.012  0.00  0.00    -0.032 C 
ENDBRANCH  27  30
ENDBRANCH  26  27
ENDBRANCH  25  26
ENDBRANCH  24  25
ENDBRANCH  23  24
ENDBRANCH  22  23
ENDBRANCH  21  22
ENDBRANCH   1  21
TORSDOF 17
ENDMDL
MODEL 6
REMARK VINA RESULT:    -5.439     16.628     21.092
REMARK INTER + INTRA:         -14.806
REMARK INTER:                 -11.737
REMARK INTRA:                  -3.069
REMARK UNBOUND:                -3.961
REMARK  Name = cpd170.pdb
REMARK  19 active torsions:
REMARK  status: ('A' for Active; 'I' for Inactive)
REMARK    1  A    between atoms: C_1  and  N_2
REMARK    2  A    between atoms: N_2  and  C_3
REMARK    3  A    between atoms: N_2  and  C_4
REMARK    4  A    between atoms: C_7  and  C_8
REMARK    5  A    between atoms: C_8  and  C_9
REMARK    6  A    between atoms: N_11  and  C_12
REMARK    7  A    between atoms: C_12  and  C_13
REMARK    8  A    between atoms: C_13  and  C_14
REMARK    9  A    between atoms: C_14  and  C_15
REMARK   10  A    between atoms: C_15  and  C_16
REMARK   11  A    between atoms: C_16  and  C_17
REMARK   12  A    between atoms: C_17  and  C_18
REMARK   13  A    between atoms: C_18  and  C_19
REMARK   14  A    between atoms: C_19  and  C_20
REMARK   15  A    between atoms: C_20  and  C_21
REMARK   16  A    between atoms: C_21  and  C_22
REMARK   17  A    between atoms: C_22  and  C_23
REMARK   18  A    between atoms: C_23  and  N_24
REMARK   19  A    between atoms: N_24  and  C_25
REMARK                            x       y       z     vdW  Elec       q    Type
REMARK                         _______ _______ _______ _____ _____    ______ ____
ROOT
ATOM      1  C   UNL     1      39.139 -36.006 -32.603  0.00  0.00    -0.053 C 
ENDROOT
BRANCH   1   2
ATOM      2  C   UNL     1      38.426 -34.848 -31.895  0.00  0.00    -0.053 C 
BRANCH   2   3
ATOM      3  C   UNL     1      36.911 -35.041 -31.771  0.00  0.00    -0.053 C 
BRANCH   3   4
ATOM      4  C   UNL     1      36.255 -34.065 -30.788  0.00  0.00    -0.052 C 
BRANCH   4   5
ATOM      5  C   UNL     1      34.839 -34.484 -30.398  0.00  0.00    -0.037 C 
BRANCH   5   6
ATOM      6  C   UNL     1      33.801 -33.989 -31.406  0.00  0.00    +0.012 C 
BRANCH   6   9
ATOM      7  C   UNL     1      31.934 -33.121 -30.052  0.00  0.00    +0.217 C 
ATOM      8  O   UNL     1      32.427 -32.003 -29.932  0.00  0.00    -0.275 OA
ATOM      9  N   UNL     1      32.467 -34.111 -30.856  0.00  0.00    -0.315 N 
ATOM     10  H   UNL     1      31.931 -34.911 -31.059  0.00  0.00    +0.000 HD
BRANCH   7  11
ATOM     11  C   UNL     1      30.668 -33.534 -29.317  0.00  0.00    +0.049 C 
BRANCH  11  15
ATOM     12  C   UNL     1      31.422 -36.382 -26.080  0.00  0.00    +0.029 A 
ATOM     13  C   UNL     1      30.160 -36.253 -26.686  0.00  0.00    -0.040 A 
ATOM     14  C   UNL     1      29.923 -35.360 -27.741  0.00  0.00    -0.056 A 
ATOM     15  C   UNL     1      30.943 -34.538 -28.222  0.00  0.00    -0.039 A 
ATOM     16  C   UNL     1      32.206 -34.646 -27.643  0.00  0.00    -0.056 A 
ATOM     17  C   UNL     1      32.432 -35.546 -26.591  0.00  0.00    -0.040 A 
BRANCH  12  19
ATOM     18  C   UNL     1      31.560 -36.718 -23.645  0.00  0.00    +0.000 C 
ATOM     19  N   UNL     1      31.650 -37.249 -25.005  0.00  0.00    -0.336 N 
ATOM     20  C   UNL     1      32.549 -38.388 -25.182  0.00  0.00    +0.000 C 
ENDBRANCH  12  19
ENDBRANCH  11  15
ENDBRANCH   7  11
ENDBRANCH   6   9
ENDBRANCH   5   6
ENDBRANCH   4   5
ENDBRANCH   3   4
ENDBRANCH   2   3
ENDBRANCH   1   2
BRANCH   1  21
ATOM     21  C   UNL     1      40.550 -35.655 -33.076  0.00  0.00    -0.053 C 
BRANCH  21  22
ATOM     22  C   UNL     1      41.425 -35.148 -31.925  0.00  0.00    -0.053 C 
BRANCH  22  23
ATOM     23  C   UNL     1      42.082 -36.301 -31.160  0.00  0.00    -0.053 C 
BRANCH  23  24
ATOM     24  C   UNL     1      41.379 -36.593 -29.828  0.00  0.00    -0.052 C 
BRANCH  24  25
ATOM     25  C   UNL     1      40.745 -37.986 -29.770  0.00  0.00    -0.040 C 
BRANCH  25  26
ATOM     26  C   UNL     1      39.555 -38.034 -28.800  0.00  0.00    -0.004 C 
BRANCH  26  27
ATOM     27  N   UNL     1      38.408 -37.345 -29.388  0.00  0.00    -0.311 N 
ATOM     28  H   UNL     1      38.647 -37.106 -30.350  0.00  0.00    +0.000 HD
ATOM     29  H   UNL     1      38.235 -36.537 -28.789  0.00  0.00    +0.000 HD
BRANCH  27  30
ATOM     30  C   UNL     1      37.145 -38.103 -29.410  0.00  0.00    +0.020 C 
ATOM     31  C   UNL     1      36.137 -37.312 -28.531  0.00  0.00    -0.032 C 
ATOM     32  C   UNL     1      34.772 -38.020 -28.485  0.00  0.00    -0.039 C 
ATOM     33  C   UNL     1      34.953 -39.428 -27.897  0.00  0.00    -0.047 C 
ATOM     34  C   UNL     1      35.925 -40.238 -28.767  0.00  0.00    -0.039 C 
ATOM     35  C   UNL     1      35.364 -40.341 -30.196  0.00  0.00    -0.047 C 
ATOM     36  C   UNL     1      35.182 -38.935 -30.793  0.00  0.00    -0.039 C 
ATOM     37  C   UNL     1      34.214 -38.131 -29.912  0.00  0.00    -0.047 C 
ATOM     38  C   UNL     1      36.546 -38.222 -30.835  0.00  0.00    -0.032 C 
ATOM     39  C   UNL     1      37.289 -39.526 -28.806  0.00  0.00    -0.032 C 
ENDBRANCH  27  30
ENDBRANCH  26  27
ENDBRANCH  25  26
ENDBRANCH  24  25
ENDBRANCH  23  24
ENDBRANCH  22  23
ENDBRANCH  21  22
ENDBRANCH   1  21
TORSDOF 17
ENDMDL
MODEL 7
REMARK VINA RESULT:    -5.428      2.417      7.835
REMARK INTER + INTRA:         -14.784
REMARK INTER:                 -10.573
REMARK INTRA:                  -4.211
REMARK UNBOUND:                -3.961
REMARK  Name = cpd170.pdb
REMARK  19 active torsions:
REMARK  status: ('A' for Active; 'I' for Inactive)
REMARK    1  A    between atoms: C_1  and  N_2
REMARK    2  A    between atoms: N_2  and  C_3
REMARK    3  A    between atoms: N_2  and  C_4
REMARK    4  A    between atoms: C_7  and  C_8
REMARK    5  A    between atoms: C_8  and  C_9
REMARK    6  A    between atoms: N_11  and  C_12
REMARK    7  A    between atoms: C_12  and  C_13
REMARK    8  A    between atoms: C_13  and  C_14
REMARK    9  A    between atoms: C_14  and  C_15
REMARK   10  A    between atoms: C_15  and  C_16
REMARK   11  A    between atoms: C_16  and  C_17
REMARK   12  A    between atoms: C_17  and  C_18
REMARK   13  A    between atoms: C_18  and  C_19
REMARK   14  A    between atoms: C_19  and  C_20
REMARK   15  A    between atoms: C_20  and  C_21
REMARK   16  A    between atoms: C_21  and  C_22
REMARK   17  A    between atoms: C_22  and  C_23
REMARK   18  A    between atoms: C_23  and  N_24
REMARK   19  A    between atoms: N_24  and  C_25
REMARK                            x       y       z     vdW  Elec       q    Type
REMARK                         _______ _______ _______ _____ _____    ______ ____
ROOT
ATOM      1  C   UNL     1      43.853 -17.631 -37.809  0.00  0.00    -0.053 C 
ENDROOT
BRANCH   1   2
ATOM      2  C   UNL     1      43.041 -18.599 -36.941  0.00  0.00    -0.053 C 
BRANCH   2   3
ATOM      3  C   UNL     1      43.730 -19.949 -36.716  0.00  0.00    -0.053 C 
BRANCH   3   4
ATOM      4  C   UNL     1      44.444 -20.046 -35.363  0.00  0.00    -0.052 C 
BRANCH   4   5
ATOM      5  C   UNL     1      45.879 -19.526 -35.413  0.00  0.00    -0.037 C 
BRANCH   5   6
ATOM      6  C   UNL     1      46.138 -18.467 -34.341  0.00  0.00    +0.012 C 
BRANCH   6   9
ATOM      7  C   UNL     1      44.383 -17.719 -32.782  0.00  0.00    +0.217 C 
ATOM      8  O   UNL     1      44.982 -18.109 -31.784  0.00  0.00    -0.275 OA
ATOM      9  N   UNL     1      44.923 -17.734 -34.054  0.00  0.00    -0.315 N 
ATOM     10  H   UNL     1      44.474 -17.238 -34.776  0.00  0.00    +0.000 HD
BRANCH   7  11
ATOM     11  C   UNL     1      42.966 -17.170 -32.716  0.00  0.00    +0.049 C 
BRANCH  11  15
ATOM     12  C   UNL     1      39.972 -19.875 -34.412  0.00  0.00    +0.029 A 
ATOM     13  C   UNL     1      40.047 -18.518 -34.773  0.00  0.00    -0.040 A 
ATOM     14  C   UNL     1      41.021 -17.655 -34.251  0.00  0.00    -0.056 A 
ATOM     15  C   UNL     1      41.956 -18.116 -33.323  0.00  0.00    -0.039 A 
ATOM     16  C   UNL     1      41.910 -19.458 -32.949  0.00  0.00    -0.056 A 
ATOM     17  C   UNL     1      40.933 -20.311 -33.482  0.00  0.00    -0.040 A 
BRANCH  12  19
ATOM     18  C   UNL     1      38.717 -20.735 -36.347  0.00  0.00    +0.000 C 
ATOM     19  N   UNL     1      38.979 -20.727 -34.908  0.00  0.00    -0.336 N 
ATOM     20  C   UNL     1      37.844 -21.076 -34.056  0.00  0.00    +0.000 C 
ENDBRANCH  12  19
ENDBRANCH  11  15
ENDBRANCH   7  11
ENDBRANCH   6   9
ENDBRANCH   5   6
ENDBRANCH   4   5
ENDBRANCH   3   4
ENDBRANCH   2   3
ENDBRANCH   1   2
BRANCH   1  21
ATOM     21  C   UNL     1      43.946 -16.221 -37.226  0.00  0.00    -0.053 C 
BRANCH  21  22
ATOM     22  C   UNL     1      45.263 -15.534 -37.608  0.00  0.00    -0.053 C 
BRANCH  22  23
ATOM     23  C   UNL     1      46.454 -16.493 -37.509  0.00  0.00    -0.053 C 
BRANCH  23  24
ATOM     24  C   UNL     1      47.247 -16.574 -38.818  0.00  0.00    -0.052 C 
BRANCH  24  25
ATOM     25  C   UNL     1      46.507 -15.967 -40.014  0.00  0.00    -0.040 C 
BRANCH  25  26
ATOM     26  C   UNL     1      45.917 -17.049 -40.931  0.00  0.00    -0.004 C 
BRANCH  26  27
ATOM     27  N   UNL     1      46.836 -18.182 -41.017  0.00  0.00    -0.311 N 
ATOM     28  H   UNL     1      47.465 -18.135 -40.216  0.00  0.00    +0.000 HD
ATOM     29  H   UNL     1      47.304 -18.090 -41.919  0.00  0.00    +0.000 HD
BRANCH  27  30
ATOM     30  C   UNL     1      46.213 -19.517 -41.024  0.00  0.00    +0.020 C 
ATOM     31  C   UNL     1      44.788 -19.338 -41.620  0.00  0.00    -0.032 C 
ATOM     32  C   UNL     1      44.041 -20.681 -41.675  0.00  0.00    -0.039 C 
ATOM     33  C   UNL     1      43.922 -21.252 -40.253  0.00  0.00    -0.047 C 
ATOM     34  C   UNL     1      45.321 -21.464 -39.655  0.00  0.00    -0.039 C 
ATOM     35  C   UNL     1      46.110 -22.441 -40.543  0.00  0.00    -0.047 C 
ATOM     36  C   UNL     1      46.235 -21.876 -41.968  0.00  0.00    -0.039 C 
ATOM     37  C   UNL     1      44.832 -21.662 -42.554  0.00  0.00    -0.047 C 
ATOM     38  C   UNL     1      46.978 -20.529 -41.915  0.00  0.00    -0.032 C 
ATOM     39  C   UNL     1      46.061 -20.115 -39.600  0.00  0.00    -0.032 C 
ENDBRANCH  27  30
ENDBRANCH  26  27
ENDBRANCH  25  26
ENDBRANCH  24  25
ENDBRANCH  23  24
ENDBRANCH  22  23
ENDBRANCH  21  22
ENDBRANCH   1  21
TORSDOF 17
ENDMDL
MODEL 8
REMARK VINA RESULT:    -5.408      2.276      7.063
REMARK INTER + INTRA:         -14.744
REMARK INTER:                 -10.684
REMARK INTRA:                  -4.060
REMARK UNBOUND:                -3.961
REMARK  Name = cpd170.pdb
REMARK  19 active torsions:
REMARK  status: ('A' for Active; 'I' for Inactive)
REMARK    1  A    between atoms: C_1  and  N_2
REMARK    2  A    between atoms: N_2  and  C_3
REMARK    3  A    between atoms: N_2  and  C_4
REMARK    4  A    between atoms: C_7  and  C_8
REMARK    5  A    between atoms: C_8  and  C_9
REMARK    6  A    between atoms: N_11  and  C_12
REMARK    7  A    between atoms: C_12  and  C_13
REMARK    8  A    between atoms: C_13  and  C_14
REMARK    9  A    between atoms: C_14  and  C_15
REMARK   10  A    between atoms: C_15  and  C_16
REMARK   11  A    between atoms: C_16  and  C_17
REMARK   12  A    between atoms: C_17  and  C_18
REMARK   13  A    between atoms: C_18  and  C_19
REMARK   14  A    between atoms: C_19  and  C_20
REMARK   15  A    between atoms: C_20  and  C_21
REMARK   16  A    between atoms: C_21  and  C_22
REMARK   17  A    between atoms: C_22  and  C_23
REMARK   18  A    between atoms: C_23  and  N_24
REMARK   19  A    between atoms: N_24  and  C_25
REMARK                            x       y       z     vdW  Elec       q    Type
REMARK                         _______ _______ _______ _____ _____    ______ ____
ROOT
ATOM      1  C   UNL     1      40.615 -17.850 -33.174  0.00  0.00    -0.053 C 
ENDROOT
BRANCH   1   2
ATOM      2  C   UNL     1      40.438 -19.349 -32.906  0.00  0.00    -0.053 C 
BRANCH   2   3
ATOM      3  C   UNL     1      39.052 -19.881 -33.283  0.00  0.00    -0.053 C 
BRANCH   3   4
ATOM      4  C   UNL     1      38.883 -21.380 -33.006  0.00  0.00    -0.052 C 
BRANCH   4   5
ATOM      5  C   UNL     1      40.183 -22.048 -32.561  0.00  0.00    -0.037 C 
BRANCH   5   6
ATOM      6  C   UNL     1      40.637 -23.122 -33.550  0.00  0.00    +0.012 C 
BRANCH   6   9
ATOM      7  C   UNL     1      40.533 -22.841 -35.995  0.00  0.00    +0.217 C 
ATOM      8  O   UNL     1      39.484 -23.469 -36.109  0.00  0.00    -0.275 OA
ATOM      9  N   UNL     1      41.099 -22.512 -34.779  0.00  0.00    -0.315 N 
ATOM     10  H   UNL     1      41.829 -21.852 -34.747  0.00  0.00    +0.000 HD
BRANCH   7  11
ATOM     11  C   UNL     1      41.325 -22.355 -37.200  0.00  0.00    +0.049 C 
BRANCH  11  15
ATOM     12  C   UNL     1      40.569 -18.134 -38.072  0.00  0.00    +0.029 A 
ATOM     13  C   UNL     1      39.920 -18.811 -37.024  0.00  0.00    -0.040 A 
ATOM     14  C   UNL     1      40.180 -20.156 -36.727  0.00  0.00    -0.056 A 
ATOM     15  C   UNL     1      41.092 -20.890 -37.485  0.00  0.00    -0.039 A 
ATOM     16  C   UNL     1      41.755 -20.245 -38.528  0.00  0.00    -0.056 A 
ATOM     17  C   UNL     1      41.489 -18.897 -38.813  0.00  0.00    -0.040 A 
BRANCH  12  19
ATOM     18  C   UNL     1      40.548 -15.769 -37.387  0.00  0.00    +0.000 C 
ATOM     19  N   UNL     1      40.285 -16.801 -38.390  0.00  0.00    -0.336 N 
ATOM     20  C   UNL     1      39.212 -16.503 -39.338  0.00  0.00    +0.000 C 
ENDBRANCH  12  19
ENDBRANCH  11  15
ENDBRANCH   7  11
ENDBRANCH   6   9
ENDBRANCH   5   6
ENDBRANCH   4   5
ENDBRANCH   3   4
ENDBRANCH   2   3
ENDBRANCH   1   2
BRANCH   1  21
ATOM     21  C   UNL     1      41.884 -17.517 -33.960  0.00  0.00    -0.053 C 
BRANCH  21  22
ATOM     22  C   UNL     1      42.708 -18.773 -34.264  0.00  0.00    -0.053 C 
BRANCH  22  23
ATOM     23  C   UNL     1      43.375 -18.695 -35.642  0.00  0.00    -0.053 C 
BRANCH  23  24
ATOM     24  C   UNL     1      44.384 -19.827 -35.865  0.00  0.00    -0.052 C 
BRANCH  24  25
ATOM     25  C   UNL     1      45.831 -19.416 -35.573  0.00  0.00    -0.040 C 
BRANCH  25  26
ATOM     26  C   UNL     1      46.698 -19.434 -36.840  0.00  0.00    -0.004 C 
BRANCH  26  27
ATOM     27  N   UNL     1      46.551 -20.716 -37.524  0.00  0.00    -0.311 N 
ATOM     28  H   UNL     1      45.728 -21.182 -37.143  0.00  0.00    +0.000 HD
ATOM     29  H   UNL     1      47.425 -21.218 -37.363  0.00  0.00    +0.000 HD
BRANCH  27  30
ATOM     30  C   UNL     1      46.394 -20.650 -38.988  0.00  0.00    +0.020 C 
ATOM     31  C   UNL     1      45.028 -21.314 -39.318  0.00  0.00    -0.032 C 
ATOM     32  C   UNL     1      44.760 -21.299 -40.832  0.00  0.00    -0.039 C 
ATOM     33  C   UNL     1      45.878 -22.068 -41.552  0.00  0.00    -0.047 C 
ATOM     34  C   UNL     1      47.236 -21.410 -41.262  0.00  0.00    -0.039 C 
ATOM     35  C   UNL     1      47.210 -19.953 -41.752  0.00  0.00    -0.047 C 
ATOM     36  C   UNL     1      46.093 -19.175 -41.035  0.00  0.00    -0.039 C 
ATOM     37  C   UNL     1      44.741 -19.844 -41.326  0.00  0.00    -0.047 C 
ATOM     38  C   UNL     1      46.357 -19.194 -39.519  0.00  0.00    -0.032 C 
ATOM     39  C   UNL     1      47.500 -21.432 -39.746  0.00  0.00    -0.032 C 
ENDBRANCH  27  30
ENDBRANCH  26  27
ENDBRANCH  25  26
ENDBRANCH  24  25
ENDBRANCH  23  24
ENDBRANCH  22  23
ENDBRANCH  21  22
ENDBRANCH   1  21
TORSDOF 17
ENDMDL
MODEL 9
REMARK VINA RESULT:    -5.363      2.477      7.647
REMARK INTER + INTRA:         -14.654
REMARK INTER:                  -9.806
REMARK INTRA:                  -4.848
REMARK UNBOUND:                -3.961
REMARK  Name = cpd170.pdb
REMARK  19 active torsions:
REMARK  status: ('A' for Active; 'I' for Inactive)
REMARK    1  A    between atoms: C_1  and  N_2
REMARK    2  A    between atoms: N_2  and  C_3
REMARK    3  A    between atoms: N_2  and  C_4
REMARK    4  A    between atoms: C_7  and  C_8
REMARK    5  A    between atoms: C_8  and  C_9
REMARK    6  A    between atoms: N_11  and  C_12
REMARK    7  A    between atoms: C_12  and  C_13
REMARK    8  A    between atoms: C_13  and  C_14
REMARK    9  A    between atoms: C_14  and  C_15
REMARK   10  A    between atoms: C_15  and  C_16
REMARK   11  A    between atoms: C_16  and  C_17
REMARK   12  A    between atoms: C_17  and  C_18
REMARK   13  A    between atoms: C_18  and  C_19
REMARK   14  A    between atoms: C_19  and  C_20
REMARK   15  A    between atoms: C_20  and  C_21
REMARK   16  A    between atoms: C_21  and  C_22
REMARK   17  A    between atoms: C_22  and  C_23
REMARK   18  A    between atoms: C_23  and  N_24
REMARK   19  A    between atoms: N_24  and  C_25
REMARK                            x       y       z     vdW  Elec       q    Type
REMARK                         _______ _______ _______ _____ _____    ______ ____
ROOT
ATOM      1  C   UNL     1      44.399 -16.565 -39.258  0.00  0.00    -0.053 C 
ENDROOT
BRANCH   1   2
ATOM      2  C   UNL     1      43.014 -16.683 -39.906  0.00  0.00    -0.053 C 
BRANCH   2   3
ATOM      3  C   UNL     1      41.959 -17.313 -38.990  0.00  0.00    -0.053 C 
BRANCH   3   4
ATOM      4  C   UNL     1      42.435 -18.607 -38.319  0.00  0.00    -0.052 C 
BRANCH   4   5
ATOM      5  C   UNL     1      41.567 -19.811 -38.677  0.00  0.00    -0.037 C 
BRANCH   5   6
ATOM      6  C   UNL     1      41.044 -20.525 -37.430  0.00  0.00    +0.012 C 
BRANCH   6   9
ATOM      7  C   UNL     1      41.855 -20.532 -35.103  0.00  0.00    +0.217 C 
ATOM      8  O   UNL     1      40.727 -20.499 -34.619  0.00  0.00    -0.275 OA
ATOM      9  N   UNL     1      42.104 -20.677 -36.455  0.00  0.00    -0.315 N 
ATOM     10  H   UNL     1      43.016 -20.886 -36.760  0.00  0.00    +0.000 HD
BRANCH   7  11
ATOM     11  C   UNL     1      43.109 -20.416 -34.251  0.00  0.00    +0.049 C 
BRANCH  11  15
ATOM     12  C   UNL     1      44.083 -16.258 -33.294  0.00  0.00    +0.029 A 
ATOM     13  C   UNL     1      44.651 -17.340 -32.600  0.00  0.00    -0.040 A 
ATOM     14  C   UNL     1      44.361 -18.674 -32.921  0.00  0.00    -0.056 A 
ATOM     15  C   UNL     1      43.466 -18.980 -33.947  0.00  0.00    -0.039 A 
ATOM     16  C   UNL     1      42.889 -17.929 -34.657  0.00  0.00    -0.056 A 
ATOM     17  C   UNL     1      43.191 -16.599 -34.328  0.00  0.00    -0.040 A 
BRANCH  12  19
ATOM     18  C   UNL     1      44.379 -14.562 -31.535  0.00  0.00    +0.000 C 
ATOM     19  N   UNL     1      44.347 -14.928 -32.951  0.00  0.00    -0.336 N 
ATOM     20  C   UNL     1      43.960 -13.860 -33.872  0.00  0.00    +0.000 C 
ENDBRANCH  12  19
ENDBRANCH  11  15
ENDBRANCH   7  11
ENDBRANCH   6   9
ENDBRANCH   5   6
ENDBRANCH   4   5
ENDBRANCH   3   4
ENDBRANCH   2   3
ENDBRANCH   1   2
BRANCH   1  21
ATOM     21  C   UNL     1      44.497 -15.436 -38.232  0.00  0.00    -0.053 C 
BRANCH  21  22
ATOM     22  C   UNL     1      45.291 -15.864 -36.992  0.00  0.00    -0.053 C 
BRANCH  22  23
ATOM     23  C   UNL     1      45.663 -17.350 -37.040  0.00  0.00    -0.053 C 
BRANCH  23  24
ATOM     24  C   UNL     1      46.707 -17.723 -35.982  0.00  0.00    -0.052 C 
BRANCH  24  25
ATOM     25  C   UNL     1      46.826 -19.234 -35.754  0.00  0.00    -0.040 C 
BRANCH  25  26
ATOM     26  C   UNL     1      46.000 -20.033 -36.771  0.00  0.00    -0.004 C 
BRANCH  26  27
ATOM     27  N   UNL     1      46.890 -20.787 -37.651  0.00  0.00    -0.311 N 
ATOM     28  H   UNL     1      46.920 -21.750 -37.315  0.00  0.00    +0.000 HD
ATOM     29  H   UNL     1      47.789 -20.305 -37.614  0.00  0.00    +0.000 HD
BRANCH  27  30
ATOM     30  C   UNL     1      46.513 -20.818 -39.075  0.00  0.00    +0.020 C 
ATOM     31  C   UNL     1      46.826 -19.407 -39.647  0.00  0.00    -0.032 C 
ATOM     32  C   UNL     1      46.467 -19.326 -41.141  0.00  0.00    -0.039 C 
ATOM     33  C   UNL     1      44.969 -19.618 -41.318  0.00  0.00    -0.047 C 
ATOM     34  C   UNL     1      44.642 -21.020 -40.784  0.00  0.00    -0.039 C 
ATOM     35  C   UNL     1      45.468 -22.063 -41.555  0.00  0.00    -0.047 C 
ATOM     36  C   UNL     1      46.970 -21.780 -41.382  0.00  0.00    -0.039 C 
ATOM     37  C   UNL     1      47.285 -20.373 -41.913  0.00  0.00    -0.047 C 
ATOM     38  C   UNL     1      47.330 -21.855 -39.888  0.00  0.00    -0.032 C 
ATOM     39  C   UNL     1      45.000 -21.093 -39.288  0.00  0.00    -0.032 C 
ENDBRANCH  27  30
ENDBRANCH  26  27
ENDBRANCH  25  26
ENDBRANCH  24  25
ENDBRANCH  23  24
ENDBRANCH  22  23
ENDBRANCH  21  22
ENDBRANCH   1  21
TORSDOF 17
ENDMDL
MODEL 10
REMARK VINA RESULT:    -5.299     16.911     21.422
REMARK INTER + INTRA:         -14.526
REMARK INTER:                  -9.983
REMARK INTRA:                  -4.543
REMARK UNBOUND:                -3.961
REMARK  Name = cpd170.pdb
REMARK  19 active torsions:
REMARK  status: ('A' for Active; 'I' for Inactive)
REMARK    1  A    between atoms: C_1  and  N_2
REMARK    2  A    between atoms: N_2  and  C_3
REMARK    3  A    between atoms: N_2  and  C_4
REMARK    4  A    between atoms: C_7  and  C_8
REMARK    5  A    between atoms: C_8  and  C_9
REMARK    6  A    between atoms: N_11  and  C_12
REMARK    7  A    between atoms: C_12  and  C_13
REMARK    8  A    between atoms: C_13  and  C_14
REMARK    9  A    between atoms: C_14  and  C_15
REMARK   10  A    between atoms: C_15  and  C_16
REMARK   11  A    between atoms: C_16  and  C_17
REMARK   12  A    between atoms: C_17  and  C_18
REMARK   13  A    between atoms: C_18  and  C_19
REMARK   14  A    between atoms: C_19  and  C_20
REMARK   15  A    between atoms: C_20  and  C_21
REMARK   16  A    between atoms: C_21  and  C_22
REMARK   17  A    between atoms: C_22  and  C_23
REMARK   18  A    between atoms: C_23  and  N_24
REMARK   19  A    between atoms: N_24  and  C_25
REMARK                            x       y       z     vdW  Elec       q    Type
REMARK                         _______ _______ _______ _____ _____    ______ ____
ROOT
ATOM      1  C   UNL     1      33.352 -38.133 -31.836  0.00  0.00    -0.053 C 
ENDROOT
BRANCH   1   2
ATOM      2  C   UNL     1      33.505 -36.878 -32.703  0.00  0.00    -0.053 C 
BRANCH   2   3
ATOM      3  C   UNL     1      32.600 -35.719 -32.273  0.00  0.00    -0.053 C 
BRANCH   3   4
ATOM      4  C   UNL     1      31.511 -36.139 -31.279  0.00  0.00    -0.052 C 
BRANCH   4   5
ATOM      5  C   UNL     1      30.159 -35.495 -31.577  0.00  0.00    -0.037 C 
BRANCH   5   6
ATOM      6  C   UNL     1      29.707 -34.570 -30.446  0.00  0.00    +0.012 C 
BRANCH   6   9
ATOM      7  C   UNL     1      31.486 -33.265 -29.349  0.00  0.00    +0.217 C 
ATOM      8  O   UNL     1      31.166 -32.211 -29.892  0.00  0.00    -0.275 OA
ATOM      9  N   UNL     1      30.757 -34.434 -29.458  0.00  0.00    -0.315 N 
ATOM     10  H   UNL     1      30.955 -35.186 -28.854  0.00  0.00    +0.000 HD
BRANCH   7  11
ATOM     11  C   UNL     1      32.734 -33.390 -28.489  0.00  0.00    +0.049 C 
BRANCH  11  15
ATOM     12  C   UNL     1      36.166 -35.074 -30.619  0.00  0.00    +0.029 A 
ATOM     13  C   UNL     1      35.488 -35.782 -29.611  0.00  0.00    -0.040 A 
ATOM     14  C   UNL     1      34.373 -35.255 -28.945  0.00  0.00    -0.056 A 
ATOM     15  C   UNL     1      33.899 -33.978 -29.250  0.00  0.00    -0.039 A 
ATOM     16  C   UNL     1      34.548 -33.253 -30.248  0.00  0.00    -0.056 A 
ATOM     17  C   UNL     1      35.660 -33.793 -30.909  0.00  0.00    -0.040 A 
BRANCH  12  19
ATOM     18  C   UNL     1      37.751 -36.934 -30.914  0.00  0.00    +0.000 C 
ATOM     19  N   UNL     1      37.300 -35.586 -31.259  0.00  0.00    -0.336 N 
ATOM     20  C   UNL     1      38.342 -34.668 -31.716  0.00  0.00    +0.000 C 
ENDBRANCH  12  19
ENDBRANCH  11  15
ENDBRANCH   7  11
ENDBRANCH   6   9
ENDBRANCH   5   6
ENDBRANCH   4   5
ENDBRANCH   3   4
ENDBRANCH   2   3
ENDBRANCH   1   2
BRANCH   1  21
ATOM     21  C   UNL     1      33.167 -39.415 -32.647  0.00  0.00    -0.053 C 
BRANCH  21  22
ATOM     22  C   UNL     1      34.164 -40.501 -32.227  0.00  0.00    -0.053 C 
BRANCH  22  23
ATOM     23  C   UNL     1      35.393 -39.907 -31.532  0.00  0.00    -0.053 C 
BRANCH  23  24
ATOM     24  C   UNL     1      36.073 -40.910 -30.592  0.00  0.00    -0.052 C 
BRANCH  24  25
ATOM     25  C   UNL     1      36.252 -40.379 -29.167  0.00  0.00    -0.040 C 
BRANCH  25  26
ATOM     26  C   UNL     1      35.213 -39.302 -28.822  0.00  0.00    -0.004 C 
BRANCH  26  27
ATOM     27  N   UNL     1      34.073 -39.912 -28.139  0.00  0.00    -0.311 N 
ATOM     28  H   UNL     1      34.401 -40.766 -27.687  0.00  0.00    +0.000 HD
ATOM     29  H   UNL     1      33.370 -40.068 -28.861  0.00  0.00    +0.000 HD
BRANCH  27  30
ATOM     30  C   UNL     1      33.417 -39.081 -27.114  0.00  0.00    +0.020 C 
ATOM     31  C   UNL     1      34.534 -38.224 -26.457  0.00  0.00    -0.032 C 
ATOM     32  C   UNL     1      33.956 -37.310 -25.363  0.00  0.00    -0.039 C 
ATOM     33  C   UNL     1      33.287 -38.175 -24.283  0.00  0.00    -0.047 C 
ATOM     34  C   UNL     1      32.159 -39.011 -24.907  0.00  0.00    -0.039 C 
ATOM     35  C   UNL     1      31.118 -38.071 -25.538  0.00  0.00    -0.047 C 
ATOM     36  C   UNL     1      31.780 -37.202 -26.621  0.00  0.00    -0.039 C 
ATOM     37  C   UNL     1      32.910 -36.375 -25.988  0.00  0.00    -0.047 C 
ATOM     38  C   UNL     1      32.365 -38.114 -27.714  0.00  0.00    -0.032 C 
ATOM     39  C   UNL     1      32.746 -39.925 -25.998  0.00  0.00    -0.032 C 
ENDBRANCH  27  30
ENDBRANCH  26  27
ENDBRANCH  25  26
ENDBRANCH  24  25
ENDBRANCH  23  24
ENDBRANCH  22  23
ENDBRANCH  21  22
ENDBRANCH   1  21
TORSDOF 17
ENDMDL
MODEL 11
REMARK VINA RESULT:    -5.182      2.364      8.316
REMARK INTER + INTRA:         -14.292
REMARK INTER:                 -11.266
REMARK INTRA:                  -3.026
REMARK UNBOUND:                -3.961
REMARK  Name = cpd170.pdb
REMARK  19 active torsions:
REMARK  status: ('A' for Active; 'I' for Inactive)
REMARK    1  A    between atoms: C_1  and  N_2
REMARK    2  A    between atoms: N_2  and  C_3
REMARK    3  A    between atoms: N_2  and  C_4
REMARK    4  A    between atoms: C_7  and  C_8
REMARK    5  A    between atoms: C_8  and  C_9
REMARK    6  A    between atoms: N_11  and  C_12
REMARK    7  A    between atoms: C_12  and  C_13
REMARK    8  A    between atoms: C_13  and  C_14
REMARK    9  A    between atoms: C_14  and  C_15
REMARK   10  A    between atoms: C_15  and  C_16
REMARK   11  A    between atoms: C_16  and  C_17
REMARK   12  A    between atoms: C_17  and  C_18
REMARK   13  A    between atoms: C_18  and  C_19
REMARK   14  A    between atoms: C_19  and  C_20
REMARK   15  A    between atoms: C_20  and  C_21
REMARK   16  A    between atoms: C_21  and  C_22
REMARK   17  A    between atoms: C_22  and  C_23
REMARK   18  A    between atoms: C_23  and  N_24
REMARK   19  A    between atoms: N_24  and  C_25
REMARK                            x       y       z     vdW  Elec       q    Type
REMARK                         _______ _______ _______ _____ _____    ______ ____
ROOT
ATOM      1  C   UNL     1      42.246 -17.524 -34.673  0.00  0.00    -0.053 C 
ENDROOT
BRANCH   1   2
ATOM      2  C   UNL     1      41.147 -17.773 -35.714  0.00  0.00    -0.053 C 
BRANCH   2   3
ATOM      3  C   UNL     1      41.443 -18.948 -36.651  0.00  0.00    -0.053 C 
BRANCH   3   4
ATOM      4  C   UNL     1      40.316 -19.987 -36.692  0.00  0.00    -0.052 C 
BRANCH   4   5
ATOM      5  C   UNL     1      40.617 -21.147 -37.639  0.00  0.00    -0.037 C 
BRANCH   5   6
ATOM      6  C   UNL     1      41.507 -22.202 -36.981  0.00  0.00    +0.012 C 
BRANCH   6   9
ATOM      7  C   UNL     1      39.907 -23.189 -35.389  0.00  0.00    +0.217 C 
ATOM      8  O   UNL     1      39.320 -23.840 -36.249  0.00  0.00    -0.275 OA
ATOM      9  N   UNL     1      41.059 -22.466 -35.630  0.00  0.00    -0.315 N 
ATOM     10  H   UNL     1      41.585 -22.125 -34.870  0.00  0.00    +0.000 HD
BRANCH   7  11
ATOM     11  C   UNL     1      39.417 -23.115 -33.950  0.00  0.00    +0.049 C 
BRANCH  11  15
ATOM     12  C   UNL     1      38.460 -18.994 -32.828  0.00  0.00    +0.029 A 
ATOM     13  C   UNL     1      37.668 -19.730 -33.727  0.00  0.00    -0.040 A 
ATOM     14  C   UNL     1      37.958 -21.059 -34.069  0.00  0.00    -0.056 A 
ATOM     15  C   UNL     1      39.074 -21.704 -33.534  0.00  0.00    -0.039 A 
ATOM     16  C   UNL     1      39.876 -21.002 -32.636  0.00  0.00    -0.056 A 
ATOM     17  C   UNL     1      39.573 -19.674 -32.300  0.00  0.00    -0.040 A 
BRANCH  12  19
ATOM     18  C   UNL     1      36.857 -17.126 -32.801  0.00  0.00    +0.000 C 
ATOM     19  N   UNL     1      38.189 -17.658 -32.514  0.00  0.00    -0.336 N 
ATOM     20  C   UNL     1      39.278 -16.683 -32.534  0.00  0.00    +0.000 C 
ENDBRANCH  12  19
ENDBRANCH  11  15
ENDBRANCH   7  11
ENDBRANCH   6   9
ENDBRANCH   5   6
ENDBRANCH   4   5
ENDBRANCH   3   4
ENDBRANCH   2   3
ENDBRANCH   1   2
BRANCH   1  21
ATOM     21  C   UNL     1      42.997 -18.792 -34.266  0.00  0.00    -0.053 C 
BRANCH  21  22
ATOM     22  C   UNL     1      44.477 -18.509 -33.987  0.00  0.00    -0.053 C 
BRANCH  22  23
ATOM     23  C   UNL     1      45.395 -19.381 -34.850  0.00  0.00    -0.053 C 
BRANCH  23  24
ATOM     24  C   UNL     1      46.771 -18.740 -35.068  0.00  0.00    -0.052 C 
BRANCH  24  25
ATOM     25  C   UNL     1      47.429 -19.152 -36.389  0.00  0.00    -0.040 C 
BRANCH  25  26
ATOM     26  C   UNL     1      46.857 -18.370 -37.581  0.00  0.00    -0.004 C 
BRANCH  26  27
ATOM     27  N   UNL     1      47.301 -18.980 -38.833  0.00  0.00    -0.311 N 
ATOM     28  H   UNL     1      48.015 -19.672 -38.608  0.00  0.00    +0.000 HD
ATOM     29  H   UNL     1      47.636 -18.210 -39.412  0.00  0.00    +0.000 HD
BRANCH  27  30
ATOM     30  C   UNL     1      46.256 -19.652 -39.626  0.00  0.00    +0.020 C 
ATOM     31  C   UNL     1      46.557 -19.332 -41.117  0.00  0.00    -0.032 C 
ATOM     32  C   UNL     1      45.519 -19.990 -42.042  0.00  0.00    -0.039 C 
ATOM     33  C   UNL     1      44.120 -19.462 -41.688  0.00  0.00    -0.047 C 
ATOM     34  C   UNL     1      43.790 -19.792 -40.225  0.00  0.00    -0.039 C 
ATOM     35  C   UNL     1      43.835 -21.317 -40.026  0.00  0.00    -0.047 C 
ATOM     36  C   UNL     1      45.233 -21.854 -40.376  0.00  0.00    -0.039 C 
ATOM     37  C   UNL     1      45.556 -21.512 -41.839  0.00  0.00    -0.047 C 
ATOM     38  C   UNL     1      46.274 -21.192 -39.456  0.00  0.00    -0.032 C 
ATOM     39  C   UNL     1      44.830 -19.128 -39.305  0.00  0.00    -0.032 C 
ENDBRANCH  27  30
ENDBRANCH  26  27
ENDBRANCH  25  26
ENDBRANCH  24  25
ENDBRANCH  23  24
ENDBRANCH  22  23
ENDBRANCH  21  22
ENDBRANCH   1  21
TORSDOF 17
ENDMDL
MODEL 12
REMARK VINA RESULT:    -5.140      2.051      5.006
REMARK INTER + INTRA:         -14.208
REMARK INTER:                 -10.054
REMARK INTRA:                  -4.155
REMARK UNBOUND:                -3.961
REMARK  Name = cpd170.pdb
REMARK  19 active torsions:
REMARK  status: ('A' for Active; 'I' for Inactive)
REMARK    1  A    between atoms: C_1  and  N_2
REMARK    2  A    between atoms: N_2  and  C_3
REMARK    3  A    between atoms: N_2  and  C_4
REMARK    4  A    between atoms: C_7  and  C_8
REMARK    5  A    between atoms: C_8  and  C_9
REMARK    6  A    between atoms: N_11  and  C_12
REMARK    7  A    between atoms: C_12  and  C_13
REMARK    8  A    between atoms: C_13  and  C_14
REMARK    9  A    between atoms: C_14  and  C_15
REMARK   10  A    between atoms: C_15  and  C_16
REMARK   11  A    between atoms: C_16  and  C_17
REMARK   12  A    between atoms: C_17  and  C_18
REMARK   13  A    between atoms: C_18  and  C_19
REMARK   14  A    between atoms: C_19  and  C_20
REMARK   15  A    between atoms: C_20  and  C_21
REMARK   16  A    between atoms: C_21  and  C_22
REMARK   17  A    between atoms: C_22  and  C_23
REMARK   18  A    between atoms: C_23  and  N_24
REMARK   19  A    between atoms: N_24  and  C_25
REMARK                            x       y       z     vdW  Elec       q    Type
REMARK                         _______ _______ _______ _____ _____    ______ ____
ROOT
ATOM      1  C   UNL     1      40.003 -18.849 -32.985  0.00  0.00    -0.053 C 
ENDROOT
BRANCH   1   2
ATOM      2  C   UNL     1      40.927 -19.955 -32.461  0.00  0.00    -0.053 C 
BRANCH   2   3
ATOM      3  C   UNL     1      40.703 -21.313 -33.134  0.00  0.00    -0.053 C 
BRANCH   3   4
ATOM      4  C   UNL     1      41.111 -21.331 -34.611  0.00  0.00    -0.052 C 
BRANCH   4   5
ATOM      5  C   UNL     1      39.930 -21.579 -35.548  0.00  0.00    -0.037 C 
BRANCH   5   6
ATOM      6  C   UNL     1      40.367 -22.262 -36.844  0.00  0.00    +0.012 C 
BRANCH   6   9
ATOM      7  C   UNL     1      41.451 -21.675 -38.977  0.00  0.00    +0.217 C 
ATOM      8  O   UNL     1      41.362 -22.811 -39.434  0.00  0.00    -0.275 OA
ATOM      9  N   UNL     1      40.881 -21.285 -37.780  0.00  0.00    -0.315 N 
ATOM     10  H   UNL     1      40.823 -20.327 -37.561  0.00  0.00    +0.000 HD
BRANCH   7  11
ATOM     11  C   UNL     1      42.208 -20.567 -39.694  0.00  0.00    +0.049 C 
BRANCH  11  15
ATOM     12  C   UNL     1      46.173 -21.925 -40.953  0.00  0.00    +0.029 A 
ATOM     13  C   UNL     1      45.090 -21.845 -41.845  0.00  0.00    -0.040 A 
ATOM     14  C   UNL     1      43.825 -21.386 -41.450  0.00  0.00    -0.056 A 
ATOM     15  C   UNL     1      43.587 -21.004 -40.130  0.00  0.00    -0.039 A 
ATOM     16  C   UNL     1      44.643 -21.068 -39.222  0.00  0.00    -0.056 A 
ATOM     17  C   UNL     1      45.904 -21.525 -39.631  0.00  0.00    -0.040 A 
BRANCH  12  19
ATOM     18  C   UNL     1      47.487 -23.437 -42.384  0.00  0.00    +0.000 C 
ATOM     19  N   UNL     1      47.426 -22.415 -41.339  0.00  0.00    -0.336 N 
ATOM     20  C   UNL     1      48.518 -22.437 -40.367  0.00  0.00    +0.000 C 
ENDBRANCH  12  19
ENDBRANCH  11  15
ENDBRANCH   7  11
ENDBRANCH   6   9
ENDBRANCH   5   6
ENDBRANCH   4   5
ENDBRANCH   3   4
ENDBRANCH   2   3
ENDBRANCH   1   2
BRANCH   1  21
ATOM     21  C   UNL     1      40.755 -17.622 -33.502  0.00  0.00    -0.053 C 
BRANCH  21  22
ATOM     22  C   UNL     1      40.452 -17.353 -34.980  0.00  0.00    -0.053 C 
BRANCH  22  23
ATOM     23  C   UNL     1      40.630 -15.873 -35.337  0.00  0.00    -0.053 C 
BRANCH  23  24
ATOM     24  C   UNL     1      41.121 -15.676 -36.776  0.00  0.00    -0.052 C 
BRANCH  24  25
ATOM     25  C   UNL     1      41.037 -16.948 -37.625  0.00  0.00    -0.040 C 
BRANCH  25  26
ATOM     26  C   UNL     1      42.421 -17.414 -38.098  0.00  0.00    -0.004 C 
BRANCH  26  27
ATOM     27  N   UNL     1      43.461 -16.789 -37.283  0.00  0.00    -0.311 N 
ATOM     28  H   UNL     1      43.025 -16.047 -36.736  0.00  0.00    +0.000 HD
ATOM     29  H   UNL     1      44.168 -16.461 -37.940  0.00  0.00    +0.000 HD
BRANCH  27  30
ATOM     30  C   UNL     1      44.167 -17.682 -36.348  0.00  0.00    +0.020 C 
ATOM     31  C   UNL     1      45.623 -17.813 -36.875  0.00  0.00    -0.032 C 
ATOM     32  C   UNL     1      46.458 -18.732 -35.965  0.00  0.00    -0.039 C 
ATOM     33  C   UNL     1      45.812 -20.125 -35.925  0.00  0.00    -0.047 C 
ATOM     34  C   UNL     1      44.380 -20.023 -35.379  0.00  0.00    -0.039 C 
ATOM     35  C   UNL     1      44.417 -19.426 -33.962  0.00  0.00    -0.047 C 
ATOM     36  C   UNL     1      45.061 -18.030 -33.994  0.00  0.00    -0.039 C 
ATOM     37  C   UNL     1      46.490 -18.142 -34.547  0.00  0.00    -0.047 C 
ATOM     38  C   UNL     1      44.231 -17.110 -34.908  0.00  0.00    -0.032 C 
ATOM     39  C   UNL     1      43.550 -19.105 -36.296  0.00  0.00    -0.032 C 
ENDBRANCH  27  30
ENDBRANCH  26  27
ENDBRANCH  25  26
ENDBRANCH  24  25
ENDBRANCH  23  24
ENDBRANCH  22  23
ENDBRANCH  21  22
ENDBRANCH   1  21
TORSDOF 17
ENDMDL
MODEL 13
REMARK VINA RESULT:    -5.092      2.038      3.800
REMARK INTER + INTRA:         -14.114
REMARK INTER:                  -9.959
REMARK INTRA:                  -4.155
REMARK UNBOUND:                -3.961
REMARK  Name = cpd170.pdb
REMARK  19 active torsions:
REMARK  status: ('A' for Active; 'I' for Inactive)
REMARK    1  A    between atoms: C_1  and  N_2
REMARK    2  A    between atoms: N_2  and  C_3
REMARK    3  A    between atoms: N_2  and  C_4
REMARK    4  A    between atoms: C_7  and  C_8
REMARK    5  A    between atoms: C_8  and  C_9
REMARK    6  A    between atoms: N_11  and  C_12
REMARK    7  A    between atoms: C_12  and  C_13
REMARK    8  A    between atoms: C_13  and  C_14
REMARK    9  A    between atoms: C_14  and  C_15
REMARK   10  A    between atoms: C_15  and  C_16
REMARK   11  A    between atoms: C_16  and  C_17
REMARK   12  A    between atoms: C_17  and  C_18
REMARK   13  A    between atoms: C_18  and  C_19
REMARK   14  A    between atoms: C_19  and  C_20
REMARK   15  A    between atoms: C_20  and  C_21
REMARK   16  A    between atoms: C_21  and  C_22
REMARK   17  A    between atoms: C_22  and  C_23
REMARK   18  A    between atoms: C_23  and  N_24
REMARK   19  A    between atoms: N_24  and  C_25
REMARK                            x       y       z     vdW  Elec       q    Type
REMARK                         _______ _______ _______ _____ _____    ______ ____
ROOT
ATOM      1  C   UNL     1      43.477 -18.847 -33.357  0.00  0.00    -0.053 C 
ENDROOT
BRANCH   1   2
ATOM      2  C   UNL     1      44.130 -20.122 -33.904  0.00  0.00    -0.053 C 
BRANCH   2   3
ATOM      3  C   UNL     1      45.087 -19.870 -35.073  0.00  0.00    -0.053 C 
BRANCH   3   4
ATOM      4  C   UNL     1      45.365 -18.382 -35.317  0.00  0.00    -0.052 C 
BRANCH   4   5
ATOM      5  C   UNL     1      46.840 -18.094 -35.591  0.00  0.00    -0.037 C 
BRANCH   5   6
ATOM      6  C   UNL     1      47.440 -19.095 -36.579  0.00  0.00    +0.012 C 
BRANCH   6   9
ATOM      7  C   UNL     1      46.513 -19.767 -38.761  0.00  0.00    +0.217 C 
ATOM      8  O   UNL     1      46.176 -20.881 -38.371  0.00  0.00    -0.275 OA
ATOM      9  N   UNL     1      47.017 -18.785 -37.929  0.00  0.00    -0.315 N 
ATOM     10  H   UNL     1      47.089 -17.861 -38.259  0.00  0.00    +0.000 HD
BRANCH   7  11
ATOM     11  C   UNL     1      46.406 -19.349 -40.219  0.00  0.00    +0.049 C 
BRANCH  11  15
ATOM     12  C   UNL     1      43.423 -16.193 -40.764  0.00  0.00    +0.029 A 
ATOM     13  C   UNL     1      44.753 -16.050 -41.195  0.00  0.00    -0.040 A 
ATOM     14  C   UNL     1      45.704 -17.069 -41.045  0.00  0.00    -0.056 A 
ATOM     15  C   UNL     1      45.364 -18.276 -40.434  0.00  0.00    -0.039 A 
ATOM     16  C   UNL     1      44.051 -18.450 -40.000  0.00  0.00    -0.056 A 
ATOM     17  C   UNL     1      43.108 -17.424 -40.159  0.00  0.00    -0.040 A 
BRANCH  12  19
ATOM     18  C   UNL     1      42.961 -13.783 -40.962  0.00  0.00    +0.000 C 
ATOM     19  N   UNL     1      42.483 -15.164 -40.883  0.00  0.00    -0.336 N 
ATOM     20  C   UNL     1      41.150 -15.340 -40.309  0.00  0.00    +0.000 C 
ENDBRANCH  12  19
ENDBRANCH  11  15
ENDBRANCH   7  11
ENDBRANCH   6   9
ENDBRANCH   5   6
ENDBRANCH   4   5
ENDBRANCH   3   4
ENDBRANCH   2   3
ENDBRANCH   1   2
BRANCH   1  21
ATOM     21  C   UNL     1      41.951 -18.922 -33.297  0.00  0.00    -0.053 C 
BRANCH  21  22
ATOM     22  C   UNL     1      41.457 -20.371 -33.222  0.00  0.00    -0.053 C 
BRANCH  22  23
ATOM     23  C   UNL     1      39.989 -20.449 -32.791  0.00  0.00    -0.053 C 
BRANCH  23  24
ATOM     24  C   UNL     1      39.525 -21.893 -32.561  0.00  0.00    -0.052 C 
BRANCH  24  25
ATOM     25  C   UNL     1      39.732 -22.797 -33.780  0.00  0.00    -0.040 C 
BRANCH  25  26
ATOM     26  C   UNL     1      38.772 -22.443 -34.926  0.00  0.00    -0.004 C 
BRANCH  26  27
ATOM     27  N   UNL     1      39.321 -22.911 -36.196  0.00  0.00    -0.311 N 
ATOM     28  H   UNL     1      38.544 -23.231 -36.774  0.00  0.00    +0.000 HD
ATOM     29  H   UNL     1      39.990 -23.643 -35.956  0.00  0.00    +0.000 HD
BRANCH  27  30
ATOM     30  C   UNL     1      40.081 -21.916 -36.973  0.00  0.00    +0.020 C 
ATOM     31  C   UNL     1      41.574 -22.095 -36.584  0.00  0.00    -0.032 C 
ATOM     32  C   UNL     1      42.466 -21.097 -37.343  0.00  0.00    -0.039 C 
ATOM     33  C   UNL     1      42.027 -19.665 -37.001  0.00  0.00    -0.047 C 
ATOM     34  C   UNL     1      40.560 -19.457 -37.404  0.00  0.00    -0.039 C 
ATOM     35  C   UNL     1      40.408 -19.699 -38.916  0.00  0.00    -0.047 C 
ATOM     36  C   UNL     1      40.844 -21.132 -39.267  0.00  0.00    -0.039 C 
ATOM     37  C   UNL     1      42.310 -21.332 -38.854  0.00  0.00    -0.047 C 
ATOM     38  C   UNL     1      39.957 -22.132 -38.503  0.00  0.00    -0.032 C 
ATOM     39  C   UNL     1      39.673 -20.456 -36.638  0.00  0.00    -0.032 C 
ENDBRANCH  27  30
ENDBRANCH  26  27
ENDBRANCH  25  26
ENDBRANCH  24  25
ENDBRANCH  23  24
ENDBRANCH  22  23
ENDBRANCH  21  22
ENDBRANCH   1  21
TORSDOF 17
ENDMDL
MODEL 14
REMARK VINA RESULT:    -5.079      2.615      5.437
REMARK INTER + INTRA:         -14.088
REMARK INTER:                  -9.418
REMARK INTRA:                  -4.670
REMARK UNBOUND:                -3.961
REMARK  Name = cpd170.pdb
REMARK  19 active torsions:
REMARK  status: ('A' for Active; 'I' for Inactive)
REMARK    1  A    between atoms: C_1  and  N_2
REMARK    2  A    between atoms: N_2  and  C_3
REMARK    3  A    between atoms: N_2  and  C_4
REMARK    4  A    between atoms: C_7  and  C_8
REMARK    5  A    between atoms: C_8  and  C_9
REMARK    6  A    between atoms: N_11  and  C_12
REMARK    7  A    between atoms: C_12  and  C_13
REMARK    8  A    between atoms: C_13  and  C_14
REMARK    9  A    between atoms: C_14  and  C_15
REMARK   10  A    between atoms: C_15  and  C_16
REMARK   11  A    between atoms: C_16  and  C_17
REMARK   12  A    between atoms: C_17  and  C_18
REMARK   13  A    between atoms: C_18  and  C_19
REMARK   14  A    between atoms: C_19  and  C_20
REMARK   15  A    between atoms: C_20  and  C_21
REMARK   16  A    between atoms: C_21  and  C_22
REMARK   17  A    between atoms: C_22  and  C_23
REMARK   18  A    between atoms: C_23  and  N_24
REMARK   19  A    between atoms: N_24  and  C_25
REMARK                            x       y       z     vdW  Elec       q    Type
REMARK                         _______ _______ _______ _____ _____    ______ ____
ROOT
ATOM      1  C   UNL     1      42.179 -16.975 -36.701  0.00  0.00    -0.053 C 
ENDROOT
BRANCH   1   2
ATOM      2  C   UNL     1      40.827 -17.594 -36.327  0.00  0.00    -0.053 C 
BRANCH   2   3
ATOM      3  C   UNL     1      39.995 -16.727 -35.376  0.00  0.00    -0.053 C 
BRANCH   3   4
ATOM      4  C   UNL     1      40.244 -17.041 -33.896  0.00  0.00    -0.052 C 
BRANCH   4   5
ATOM      5  C   UNL     1      40.837 -15.858 -33.133  0.00  0.00    -0.037 C 
BRANCH   5   6
ATOM      6  C   UNL     1      42.279 -16.126 -32.701  0.00  0.00    +0.012 C 
BRANCH   6   9
ATOM      7  C   UNL     1      43.884 -17.996 -32.670  0.00  0.00    +0.217 C 
ATOM      8  O   UNL     1      44.567 -17.507 -31.774  0.00  0.00    -0.275 OA
ATOM      9  N   UNL     1      42.684 -17.459 -33.096  0.00  0.00    -0.315 N 
ATOM     10  H   UNL     1      42.094 -17.992 -33.677  0.00  0.00    +0.000 HD
BRANCH   7  11
ATOM     11  C   UNL     1      44.296 -19.259 -33.409  0.00  0.00    +0.049 C 
BRANCH  11  15
ATOM     12  C   UNL     1      46.202 -18.344 -37.241  0.00  0.00    +0.029 A 
ATOM     13  C   UNL     1      46.050 -17.379 -36.230  0.00  0.00    -0.040 A 
ATOM     14  C   UNL     1      45.462 -17.676 -34.992  0.00  0.00    -0.056 A 
ATOM     15  C   UNL     1      44.982 -18.958 -34.721  0.00  0.00    -0.039 A 
ATOM     16  C   UNL     1      45.123 -19.938 -35.702  0.00  0.00    -0.056 A 
ATOM     17  C   UNL     1      45.716 -19.629 -36.935  0.00  0.00    -0.040 A 
BRANCH  12  19
ATOM     18  C   UNL     1      47.152 -16.657 -38.761  0.00  0.00    +0.000 C 
ATOM     19  N   UNL     1      46.758 -18.039 -38.488  0.00  0.00    -0.336 N 
ATOM     20  C   UNL     1      46.374 -18.830 -39.657  0.00  0.00    +0.000 C 
ENDBRANCH  12  19
ENDBRANCH  11  15
ENDBRANCH   7  11
ENDBRANCH   6   9
ENDBRANCH   5   6
ENDBRANCH   4   5
ENDBRANCH   3   4
ENDBRANCH   2   3
ENDBRANCH   1   2
BRANCH   1  21
ATOM     21  C   UNL     1      42.762 -17.527 -38.002  0.00  0.00    -0.053 C 
BRANCH  21  22
ATOM     22  C   UNL     1      41.907 -18.665 -38.569  0.00  0.00    -0.053 C 
BRANCH  22  23
ATOM     23  C   UNL     1      42.768 -19.833 -39.062  0.00  0.00    -0.053 C 
BRANCH  23  24
ATOM     24  C   UNL     1      42.526 -21.115 -38.256  0.00  0.00    -0.052 C 
BRANCH  24  25
ATOM     25  C   UNL     1      41.314 -21.916 -38.741  0.00  0.00    -0.040 C 
BRANCH  25  26
ATOM     26  C   UNL     1      40.424 -22.371 -37.575  0.00  0.00    -0.004 C 
BRANCH  26  27
ATOM     27  N   UNL     1      39.848 -21.205 -36.908  0.00  0.00    -0.311 N 
ATOM     28  H   UNL     1      38.913 -21.058 -37.287  0.00  0.00    +0.000 HD
ATOM     29  H   UNL     1      40.495 -20.437 -37.086  0.00  0.00    +0.000 HD
BRANCH  27  30
ATOM     30  C   UNL     1      39.731 -21.297 -35.442  0.00  0.00    +0.020 C 
ATOM     31  C   UNL     1      39.253 -22.742 -35.125  0.00  0.00    -0.032 C 
ATOM     32  C   UNL     1      39.097 -22.950 -33.608  0.00  0.00    -0.039 C 
ATOM     33  C   UNL     1      38.064 -21.950 -33.065  0.00  0.00    -0.047 C 
ATOM     34  C   UNL     1      38.531 -20.514 -33.343  0.00  0.00    -0.039 C 
ATOM     35  C   UNL     1      39.890 -20.279 -32.661  0.00  0.00    -0.047 C 
ATOM     36  C   UNL     1      40.929 -21.276 -33.201  0.00  0.00    -0.039 C 
ATOM     37  C   UNL     1      40.451 -22.709 -32.924  0.00  0.00    -0.047 C 
ATOM     38  C   UNL     1      41.084 -21.073 -34.719  0.00  0.00    -0.032 C 
ATOM     39  C   UNL     1      38.682 -20.311 -34.861  0.00  0.00    -0.032 C 
ENDBRANCH  27  30
ENDBRANCH  26  27
ENDBRANCH  25  26
ENDBRANCH  24  25
ENDBRANCH  23  24
ENDBRANCH  22  23
ENDBRANCH  21  22
ENDBRANCH   1  21
TORSDOF 17
ENDMDL
MODEL 15
REMARK VINA RESULT:    -5.057      2.277      4.911
REMARK INTER + INTRA:         -14.044
REMARK INTER:                  -9.895
REMARK INTRA:                  -4.148
REMARK UNBOUND:                -3.961
REMARK  Name = cpd170.pdb
REMARK  19 active torsions:
REMARK  status: ('A' for Active; 'I' for Inactive)
REMARK    1  A    between atoms: C_1  and  N_2
REMARK    2  A    between atoms: N_2  and  C_3
REMARK    3  A    between atoms: N_2  and  C_4
REMARK    4  A    between atoms: C_7  and  C_8
REMARK    5  A    between atoms: C_8  and  C_9
REMARK    6  A    between atoms: N_11  and  C_12
REMARK    7  A    between atoms: C_12  and  C_13
REMARK    8  A    between atoms: C_13  and  C_14
REMARK    9  A    between atoms: C_14  and  C_15
REMARK   10  A    between atoms: C_15  and  C_16
REMARK   11  A    between atoms: C_16  and  C_17
REMARK   12  A    between atoms: C_17  and  C_18
REMARK   13  A    between atoms: C_18  and  C_19
REMARK   14  A    between atoms: C_19  and  C_20
REMARK   15  A    between atoms: C_20  and  C_21
REMARK   16  A    between atoms: C_21  and  C_22
REMARK   17  A    between atoms: C_22  and  C_23
REMARK   18  A    between atoms: C_23  and  N_24
REMARK   19  A    between atoms: N_24  and  C_25
REMARK                            x       y       z     vdW  Elec       q    Type
REMARK                         _______ _______ _______ _____ _____    ______ ____
ROOT
ATOM      1  C   UNL     1      40.388 -19.210 -38.274  0.00  0.00    -0.053 C 
ENDROOT
BRANCH   1   2
ATOM      2  C   UNL     1      41.761 -19.408 -38.928  0.00  0.00    -0.053 C 
BRANCH   2   3
ATOM      3  C   UNL     1      42.467 -20.699 -38.497  0.00  0.00    -0.053 C 
BRANCH   3   4
ATOM      4  C   UNL     1      41.948 -21.944 -39.226  0.00  0.00    -0.052 C 
BRANCH   4   5
ATOM      5  C   UNL     1      41.411 -21.630 -40.621  0.00  0.00    -0.037 C 
BRANCH   5   6
ATOM      6  C   UNL     1      42.463 -21.874 -41.703  0.00  0.00    +0.012 C 
BRANCH   6   9
ATOM      7  C   UNL     1      44.720 -20.923 -41.973  0.00  0.00    +0.217 C 
ATOM      8  O   UNL     1      45.227 -21.995 -42.291  0.00  0.00    -0.275 OA
ATOM      9  N   UNL     1      43.362 -20.742 -41.794  0.00  0.00    -0.315 N 
ATOM     10  H   UNL     1      43.000 -19.829 -41.728  0.00  0.00    +0.000 HD
BRANCH   7  11
ATOM     11  C   UNL     1      45.549 -19.669 -41.742  0.00  0.00    +0.049 C 
BRANCH  11  15
ATOM     12  C   UNL     1      46.762 -19.123 -37.573  0.00  0.00    +0.029 A 
ATOM     13  C   UNL     1      46.064 -18.133 -38.286  0.00  0.00    -0.040 A 
ATOM     14  C   UNL     1      45.652 -18.316 -39.614  0.00  0.00    -0.056 A 
ATOM     15  C   UNL     1      45.942 -19.499 -40.293  0.00  0.00    -0.039 A 
ATOM     16  C   UNL     1      46.629 -20.502 -39.611  0.00  0.00    -0.056 A 
ATOM     17  C   UNL     1      47.033 -20.309 -38.282  0.00  0.00    -0.040 A 
BRANCH  12  19
ATOM     18  C   UNL     1      47.109 -20.041 -35.315  0.00  0.00    +0.000 C 
ATOM     19  N   UNL     1      47.203 -18.928 -36.259  0.00  0.00    -0.336 N 
ATOM     20  C   UNL     1      47.133 -17.592 -35.671  0.00  0.00    +0.000 C 
ENDBRANCH  12  19
ENDBRANCH  11  15
ENDBRANCH   7  11
ENDBRANCH   6   9
ENDBRANCH   5   6
ENDBRANCH   4   5
ENDBRANCH   3   4
ENDBRANCH   2   3
ENDBRANCH   1   2
BRANCH   1  21
ATOM     21  C   UNL     1      40.397 -18.186 -37.139  0.00  0.00    -0.053 C 
BRANCH  21  22
ATOM     22  C   UNL     1      41.754 -17.485 -37.017  0.00  0.00    -0.053 C 
BRANCH  22  23
ATOM     23  C   UNL     1      41.950 -16.861 -35.631  0.00  0.00    -0.053 C 
BRANCH  23  24
ATOM     24  C   UNL     1      43.010 -17.599 -34.805  0.00  0.00    -0.052 C 
BRANCH  24  25
ATOM     25  C   UNL     1      43.645 -18.779 -35.547  0.00  0.00    -0.040 C 
BRANCH  25  26
ATOM     26  C   UNL     1      43.461 -20.100 -34.787  0.00  0.00    -0.004 C 
BRANCH  26  27
ATOM     27  N   UNL     1      42.491 -19.922 -33.709  0.00  0.00    -0.311 N 
ATOM     28  H   UNL     1      42.335 -18.921 -33.592  0.00  0.00    +0.000 HD
ATOM     29  H   UNL     1      42.899 -20.377 -32.892  0.00  0.00    +0.000 HD
BRANCH  27  30
ATOM     30  C   UNL     1      41.180 -20.563 -33.910  0.00  0.00    +0.020 C 
ATOM     31  C   UNL     1      41.012 -21.598 -32.763  0.00  0.00    -0.032 C 
ATOM     32  C   UNL     1      39.665 -22.333 -32.876  0.00  0.00    -0.039 C 
ATOM     33  C   UNL     1      39.601 -23.065 -34.225  0.00  0.00    -0.047 C 
ATOM     34  C   UNL     1      39.737 -22.056 -35.376  0.00  0.00    -0.039 C 
ATOM     35  C   UNL     1      38.596 -21.028 -35.288  0.00  0.00    -0.047 C 
ATOM     36  C   UNL     1      38.654 -20.289 -33.941  0.00  0.00    -0.039 C 
ATOM     37  C   UNL     1      38.524 -21.307 -32.797  0.00  0.00    -0.047 C 
ATOM     38  C   UNL     1      40.004 -19.558 -33.823  0.00  0.00    -0.032 C 
ATOM     39  C   UNL     1      41.088 -21.328 -35.258  0.00  0.00    -0.032 C 
ENDBRANCH  27  30
ENDBRANCH  26  27
ENDBRANCH  25  26
ENDBRANCH  24  25
ENDBRANCH  23  24
ENDBRANCH  22  23
ENDBRANCH  21  22
ENDBRANCH   1  21
TORSDOF 17
ENDMDL
MODEL 16
REMARK VINA RESULT:    -5.011      2.314      5.650
REMARK INTER + INTRA:         -13.952
REMARK INTER:                  -9.091
REMARK INTRA:                  -4.861
REMARK UNBOUND:                -3.961
REMARK  Name = cpd170.pdb
REMARK  19 active torsions:
REMARK  status: ('A' for Active; 'I' for Inactive)
REMARK    1  A    between atoms: C_1  and  N_2
REMARK    2  A    between atoms: N_2  and  C_3
REMARK    3  A    between atoms: N_2  and  C_4
REMARK    4  A    between atoms: C_7  and  C_8
REMARK    5  A    between atoms: C_8  and  C_9
REMARK    6  A    between atoms: N_11  and  C_12
REMARK    7  A    between atoms: C_12  and  C_13
REMARK    8  A    between atoms: C_13  and  C_14
REMARK    9  A    between atoms: C_14  and  C_15
REMARK   10  A    between atoms: C_15  and  C_16
REMARK   11  A    between atoms: C_16  and  C_17
REMARK   12  A    between atoms: C_17  and  C_18
REMARK   13  A    between atoms: C_18  and  C_19
REMARK   14  A    between atoms: C_19  and  C_20
REMARK   15  A    between atoms: C_20  and  C_21
REMARK   16  A    between atoms: C_21  and  C_22
REMARK   17  A    between atoms: C_22  and  C_23
REMARK   18  A    between atoms: C_23  and  N_24
REMARK   19  A    between atoms: N_24  and  C_25
REMARK                            x       y       z     vdW  Elec       q    Type
REMARK                         _______ _______ _______ _____ _____    ______ ____
ROOT
ATOM      1  C   UNL     1      42.072 -17.947 -36.178  0.00  0.00    -0.053 C 
ENDROOT
BRANCH   1   2
ATOM      2  C   UNL     1      42.468 -18.763 -37.414  0.00  0.00    -0.053 C 
BRANCH   2   3
ATOM      3  C   UNL     1      42.768 -20.235 -37.109  0.00  0.00    -0.053 C 
BRANCH   3   4
ATOM      4  C   UNL     1      42.668 -21.140 -38.342  0.00  0.00    -0.052 C 
BRANCH   4   5
ATOM      5  C   UNL     1      42.803 -20.370 -39.653  0.00  0.00    -0.037 C 
BRANCH   5   6
ATOM      6  C   UNL     1      44.103 -20.712 -40.382  0.00  0.00    +0.012 C 
BRANCH   6   9
ATOM      7  C   UNL     1      46.251 -20.631 -39.178  0.00  0.00    +0.217 C 
ATOM      8  O   UNL     1      46.436 -21.843 -39.252  0.00  0.00    -0.275 OA
ATOM      9  N   UNL     1      45.211 -19.976 -39.809  0.00  0.00    -0.315 N 
ATOM     10  H   UNL     1      45.223 -18.994 -39.870  0.00  0.00    +0.000 HD
BRANCH   7  11
ATOM     11  C   UNL     1      47.162 -19.717 -38.373  0.00  0.00    +0.049 C 
BRANCH  11  15
ATOM     12  C   UNL     1      45.359 -18.287 -34.651  0.00  0.00    +0.029 A 
ATOM     13  C   UNL     1      45.695 -17.418 -35.703  0.00  0.00    -0.040 A 
ATOM     14  C   UNL     1      46.249 -17.876 -36.907  0.00  0.00    -0.056 A 
ATOM     15  C   UNL     1      46.509 -19.234 -37.099  0.00  0.00    -0.039 A 
ATOM     16  C   UNL     1      46.183 -20.121 -36.075  0.00  0.00    -0.056 A 
ATOM     17  C   UNL     1      45.625 -19.650 -34.877  0.00  0.00    -0.040 A 
BRANCH  12  19
ATOM     18  C   UNL     1      45.665 -16.954 -32.604  0.00  0.00    +0.000 C 
ATOM     19  N   UNL     1      44.837 -17.825 -33.437  0.00  0.00    -0.336 N 
ATOM     20  C   UNL     1      43.858 -18.642 -32.721  0.00  0.00    +0.000 C 
ENDBRANCH  12  19
ENDBRANCH  11  15
ENDBRANCH   7  11
ENDBRANCH   6   9
ENDBRANCH   5   6
ENDBRANCH   4   5
ENDBRANCH   3   4
ENDBRANCH   2   3
ENDBRANCH   1   2
BRANCH   1  21
ATOM     21  C   UNL     1      41.813 -16.471 -36.480  0.00  0.00    -0.053 C 
BRANCH  21  22
ATOM     22  C   UNL     1      41.475 -16.245 -37.958  0.00  0.00    -0.053 C 
BRANCH  22  23
ATOM     23  C   UNL     1      39.965 -16.302 -38.211  0.00  0.00    -0.053 C 
BRANCH  23  24
ATOM     24  C   UNL     1      39.581 -17.408 -39.201  0.00  0.00    -0.052 C 
BRANCH  24  25
ATOM     25  C   UNL     1      38.855 -18.586 -38.542  0.00  0.00    -0.040 C 
BRANCH  25  26
ATOM     26  C   UNL     1      38.449 -18.271 -37.095  0.00  0.00    -0.004 C 
BRANCH  26  27
ATOM     27  N   UNL     1      37.750 -19.416 -36.515  0.00  0.00    -0.311 N 
ATOM     28  H   UNL     1      37.682 -20.137 -37.233  0.00  0.00    +0.000 HD
ATOM     29  H   UNL     1      36.849 -19.058 -36.198  0.00  0.00    +0.000 HD
BRANCH  27  30
ATOM     30  C   UNL     1      38.380 -20.020 -35.328  0.00  0.00    +0.020 C 
ATOM     31  C   UNL     1      39.383 -21.085 -35.851  0.00  0.00    -0.032 C 
ATOM     32  C   UNL     1      40.103 -21.784 -34.685  0.00  0.00    -0.039 C 
ATOM     33  C   UNL     1      39.063 -22.473 -33.788  0.00  0.00    -0.047 C 
ATOM     34  C   UNL     1      38.077 -21.432 -33.236  0.00  0.00    -0.039 C 
ATOM     35  C   UNL     1      38.850 -20.381 -32.422  0.00  0.00    -0.047 C 
ATOM     36  C   UNL     1      39.893 -19.685 -33.314  0.00  0.00    -0.039 C 
ATOM     37  C   UNL     1      40.869 -20.735 -33.866  0.00  0.00    -0.047 C 
ATOM     38  C   UNL     1      39.174 -18.990 -34.484  0.00  0.00    -0.032 C 
ATOM     39  C   UNL     1      37.357 -20.740 -34.408  0.00  0.00    -0.032 C 
ENDBRANCH  27  30
ENDBRANCH  26  27
ENDBRANCH  25  26
ENDBRANCH  24  25
ENDBRANCH  23  24
ENDBRANCH  22  23
ENDBRANCH  21  22
ENDBRANCH   1  21
TORSDOF 17
ENDMDL
MODEL 17
REMARK VINA RESULT:    -5.005      2.920      8.684
REMARK INTER + INTRA:         -13.939
REMARK INTER:                  -9.534
REMARK INTRA:                  -4.406
REMARK UNBOUND:                -3.961
REMARK  Name = cpd170.pdb
REMARK  19 active torsions:
REMARK  status: ('A' for Active; 'I' for Inactive)
REMARK    1  A    between atoms: C_1  and  N_2
REMARK    2  A    between atoms: N_2  and  C_3
REMARK    3  A    between atoms: N_2  and  C_4
REMARK    4  A    between atoms: C_7  and  C_8
REMARK    5  A    between atoms: C_8  and  C_9
REMARK    6  A    between atoms: N_11  and  C_12
REMARK    7  A    between atoms: C_12  and  C_13
REMARK    8  A    between atoms: C_13  and  C_14
REMARK    9  A    between atoms: C_14  and  C_15
REMARK   10  A    between atoms: C_15  and  C_16
REMARK   11  A    between atoms: C_16  and  C_17
REMARK   12  A    between atoms: C_17  and  C_18
REMARK   13  A    between atoms: C_18  and  C_19
REMARK   14  A    between atoms: C_19  and  C_20
REMARK   15  A    between atoms: C_20  and  C_21
REMARK   16  A    between atoms: C_21  and  C_22
REMARK   17  A    between atoms: C_22  and  C_23
REMARK   18  A    between atoms: C_23  and  N_24
REMARK   19  A    between atoms: N_24  and  C_25
REMARK                            x       y       z     vdW  Elec       q    Type
REMARK                         _______ _______ _______ _____ _____    ______ ____
ROOT
ATOM      1  C   UNL     1      39.747 -17.340 -38.913  0.00  0.00    -0.053 C 
ENDROOT
BRANCH   1   2
ATOM      2  C   UNL     1      38.910 -18.345 -38.112  0.00  0.00    -0.053 C 
BRANCH   2   3
ATOM      3  C   UNL     1      39.441 -19.781 -38.182  0.00  0.00    -0.053 C 
BRANCH   3   4
ATOM      4  C   UNL     1      39.731 -20.385 -36.803  0.00  0.00    -0.052 C 
BRANCH   4   5
ATOM      5  C   UNL     1      39.314 -21.851 -36.702  0.00  0.00    -0.037 C 
BRANCH   5   6
ATOM      6  C   UNL     1      40.471 -22.741 -36.247  0.00  0.00    +0.012 C 
BRANCH   6   9
ATOM      7  C   UNL     1      40.494 -22.797 -33.783  0.00  0.00    +0.217 C 
ATOM      8  O   UNL     1      39.787 -23.798 -33.714  0.00  0.00    -0.275 OA
ATOM      9  N   UNL     1      40.984 -22.287 -34.971  0.00  0.00    -0.315 N 
ATOM     10  H   UNL     1      41.692 -21.603 -34.949  0.00  0.00    +0.000 HD
BRANCH   7  11
ATOM     11  C   UNL     1      40.909 -22.007 -32.551  0.00  0.00    +0.049 C 
BRANCH  11  15
ATOM     12  C   UNL     1      39.162 -17.998 -32.378  0.00  0.00    +0.029 A 
ATOM     13  C   UNL     1      40.552 -18.210 -32.400  0.00  0.00    -0.040 A 
ATOM     14  C   UNL     1      41.114 -19.492 -32.481  0.00  0.00    -0.056 A 
ATOM     15  C   UNL     1      40.300 -20.625 -32.525  0.00  0.00    -0.039 A 
ATOM     16  C   UNL     1      38.917 -20.447 -32.509  0.00  0.00    -0.056 A 
ATOM     17  C   UNL     1      38.368 -19.158 -32.431  0.00  0.00    -0.040 A 
BRANCH  12  19
ATOM     18  C   UNL     1      39.188 -15.783 -31.305  0.00  0.00    +0.000 C 
ATOM     19  N   UNL     1      38.602 -16.721 -32.262  0.00  0.00    -0.336 N 
ATOM     20  C   UNL     1      37.180 -16.534 -32.542  0.00  0.00    +0.000 C 
ENDBRANCH  12  19
ENDBRANCH  11  15
ENDBRANCH   7  11
ENDBRANCH   6   9
ENDBRANCH   5   6
ENDBRANCH   4   5
ENDBRANCH   3   4
ENDBRANCH   2   3
ENDBRANCH   1   2
BRANCH   1  21
ATOM     21  C   UNL     1      40.625 -16.445 -38.038  0.00  0.00    -0.053 C 
BRANCH  21  22
ATOM     22  C   UNL     1      42.062 -16.371 -38.565  0.00  0.00    -0.053 C 
BRANCH  22  23
ATOM     23  C   UNL     1      42.276 -17.298 -39.767  0.00  0.00    -0.053 C 
BRANCH  23  24
ATOM     24  C   UNL     1      43.591 -17.008 -40.500  0.00  0.00    -0.052 C 
BRANCH  24  25
ATOM     25  C   UNL     1      44.473 -18.248 -40.676  0.00  0.00    -0.040 C 
BRANCH  25  26
ATOM     26  C   UNL     1      45.539 -18.354 -39.575  0.00  0.00    -0.004 C 
BRANCH  26  27
ATOM     27  N   UNL     1      45.327 -19.571 -38.795  0.00  0.00    -0.311 N 
ATOM     28  H   UNL     1      46.195 -20.105 -38.807  0.00  0.00    +0.000 HD
ATOM     29  H   UNL     1      44.539 -20.048 -39.234  0.00  0.00    +0.000 HD
BRANCH  27  30
ATOM     30  C   UNL     1      44.939 -19.373 -37.387  0.00  0.00    +0.020 C 
ATOM     31  C   UNL     1      45.122 -17.859 -37.086  0.00  0.00    -0.032 C 
ATOM     32  C   UNL     1      44.742 -17.537 -35.630  0.00  0.00    -0.039 C 
ATOM     33  C   UNL     1      45.637 -18.349 -34.682  0.00  0.00    -0.047 C 
ATOM     34  C   UNL     1      45.450 -19.851 -34.944  0.00  0.00    -0.039 C 
ATOM     35  C   UNL     1      43.976 -20.228 -34.716  0.00  0.00    -0.047 C 
ATOM     36  C   UNL     1      43.073 -19.419 -35.662  0.00  0.00    -0.039 C 
ATOM     37  C   UNL     1      43.273 -17.919 -35.397  0.00  0.00    -0.047 C 
ATOM     38  C   UNL     1      43.456 -19.736 -37.120  0.00  0.00    -0.032 C 
ATOM     39  C   UNL     1      45.836 -20.167 -36.400  0.00  0.00    -0.032 C 
ENDBRANCH  27  30
ENDBRANCH  26  27
ENDBRANCH  25  26
ENDBRANCH  24  25
ENDBRANCH  23  24
ENDBRANCH  22  23
ENDBRANCH  21  22
ENDBRANCH   1  21
TORSDOF 17
ENDMDL
MODEL 18
REMARK VINA RESULT:    -5.000      2.268      6.936
REMARK INTER + INTRA:         -13.930
REMARK INTER:                  -9.558
REMARK INTRA:                  -4.372
REMARK UNBOUND:                -3.961
REMARK  Name = cpd170.pdb
REMARK  19 active torsions:
REMARK  status: ('A' for Active; 'I' for Inactive)
REMARK    1  A    between atoms: C_1  and  N_2
REMARK    2  A    between atoms: N_2  and  C_3
REMARK    3  A    between atoms: N_2  and  C_4
REMARK    4  A    between atoms: C_7  and  C_8
REMARK    5  A    between atoms: C_8  and  C_9
REMARK    6  A    between atoms: N_11  and  C_12
REMARK    7  A    between atoms: C_12  and  C_13
REMARK    8  A    between atoms: C_13  and  C_14
REMARK    9  A    between atoms: C_14  and  C_15
REMARK   10  A    between atoms: C_15  and  C_16
REMARK   11  A    between atoms: C_16  and  C_17
REMARK   12  A    between atoms: C_17  and  C_18
REMARK   13  A    between atoms: C_18  and  C_19
REMARK   14  A    between atoms: C_19  and  C_20
REMARK   15  A    between atoms: C_20  and  C_21
REMARK   16  A    between atoms: C_21  and  C_22
REMARK   17  A    between atoms: C_22  and  C_23
REMARK   18  A    between atoms: C_23  and  N_24
REMARK   19  A    between atoms: N_24  and  C_25
REMARK                            x       y       z     vdW  Elec       q    Type
REMARK                         _______ _______ _______ _____ _____    ______ ____
ROOT
ATOM      1  C   UNL     1      41.659 -15.859 -38.819  0.00  0.00    -0.053 C 
ENDROOT
BRANCH   1   2
ATOM      2  C   UNL     1      41.413 -15.805 -37.306  0.00  0.00    -0.053 C 
BRANCH   2   3
ATOM      3  C   UNL     1      40.276 -16.718 -36.835  0.00  0.00    -0.053 C 
BRANCH   3   4
ATOM      4  C   UNL     1      40.377 -17.094 -35.352  0.00  0.00    -0.052 C 
BRANCH   4   5
ATOM      5  C   UNL     1      41.463 -16.310 -34.617  0.00  0.00    -0.037 C 
BRANCH   5   6
ATOM      6  C   UNL     1      41.463 -16.609 -33.117  0.00  0.00    +0.012 C 
BRANCH   6   9
ATOM      7  C   UNL     1      42.329 -18.887 -32.751  0.00  0.00    +0.217 C 
ATOM      8  O   UNL     1      43.486 -18.513 -32.587  0.00  0.00    -0.275 OA
ATOM      9  N   UNL     1      41.258 -18.024 -32.886  0.00  0.00    -0.315 N 
ATOM     10  H   UNL     1      40.341 -18.376 -32.824  0.00  0.00    +0.000 HD
BRANCH   7  11
ATOM     11  C   UNL     1      41.951 -20.359 -32.822  0.00  0.00    +0.049 C 
BRANCH  11  15
ATOM     12  C   UNL     1      40.906 -21.528 -36.908  0.00  0.00    +0.029 A 
ATOM     13  C   UNL     1      42.114 -20.878 -36.599  0.00  0.00    -0.040 A 
ATOM     14  C   UNL     1      42.463 -20.525 -35.288  0.00  0.00    -0.056 A 
ATOM     15  C   UNL     1      41.600 -20.794 -34.225  0.00  0.00    -0.039 A 
ATOM     16  C   UNL     1      40.396 -21.442 -34.498  0.00  0.00    -0.056 A 
ATOM     17  C   UNL     1      40.061 -21.793 -35.815  0.00  0.00    -0.040 A 
BRANCH  12  19
ATOM     18  C   UNL     1      41.514 -22.543 -39.066  0.00  0.00    +0.000 C 
ATOM     19  N   UNL     1      40.544 -21.849 -38.220  0.00  0.00    -0.336 N 
ATOM     20  C   UNL     1      39.581 -21.004 -38.925  0.00  0.00    +0.000 C 
ENDBRANCH  12  19
ENDBRANCH  11  15
ENDBRANCH   7  11
ENDBRANCH   6   9
ENDBRANCH   5   6
ENDBRANCH   4   5
ENDBRANCH   3   4
ENDBRANCH   2   3
ENDBRANCH   1   2
BRANCH   1  21
ATOM     21  C   UNL     1      42.892 -16.675 -39.207  0.00  0.00    -0.053 C 
BRANCH  21  22
ATOM     22  C   UNL     1      43.300 -17.649 -38.096  0.00  0.00    -0.053 C 
BRANCH  22  23
ATOM     23  C   UNL     1      44.617 -17.234 -37.432  0.00  0.00    -0.053 C 
BRANCH  23  24
ATOM     24  C   UNL     1      44.759 -17.803 -36.015  0.00  0.00    -0.052 C 
BRANCH  24  25
ATOM     25  C   UNL     1      46.018 -18.656 -35.827  0.00  0.00    -0.040 C 
BRANCH  25  26
ATOM     26  C   UNL     1      45.911 -20.003 -36.559  0.00  0.00    -0.004 C 
BRANCH  26  27
ATOM     27  N   UNL     1      47.012 -20.140 -37.509  0.00  0.00    -0.311 N 
ATOM     28  H   UNL     1      47.543 -20.973 -37.254  0.00  0.00    +0.000 HD
ATOM     29  H   UNL     1      47.544 -19.272 -37.443  0.00  0.00    +0.000 HD
BRANCH  27  30
ATOM     30  C   UNL     1      46.627 -20.266 -38.926  0.00  0.00    +0.020 C 
ATOM     31  C   UNL     1      45.117 -20.633 -38.944  0.00  0.00    -0.032 C 
ATOM     32  C   UNL     1      44.605 -20.790 -40.386  0.00  0.00    -0.039 C 
ATOM     33  C   UNL     1      45.400 -21.903 -41.086  0.00  0.00    -0.047 C 
ATOM     34  C   UNL     1      46.894 -21.547 -41.105  0.00  0.00    -0.039 C 
ATOM     35  C   UNL     1      47.090 -20.218 -41.854  0.00  0.00    -0.047 C 
ATOM     36  C   UNL     1      46.299 -19.098 -41.158  0.00  0.00    -0.039 C 
ATOM     37  C   UNL     1      44.808 -19.466 -41.139  0.00  0.00    -0.047 C 
ATOM     38  C   UNL     1      46.806 -18.943 -39.713  0.00  0.00    -0.032 C 
ATOM     39  C   UNL     1      47.400 -21.395 -39.659  0.00  0.00    -0.032 C 
ENDBRANCH  27  30
ENDBRANCH  26  27
ENDBRANCH  25  26
ENDBRANCH  24  25
ENDBRANCH  23  24
ENDBRANCH  22  23
ENDBRANCH  21  22
ENDBRANCH   1  21
TORSDOF 17
ENDMDL
MODEL 19
REMARK VINA RESULT:    -4.965      2.187      6.098
REMARK INTER + INTRA:         -13.860
REMARK INTER:                  -8.679
REMARK INTRA:                  -5.181
REMARK UNBOUND:                -3.961
REMARK  Name = cpd170.pdb
REMARK  19 active torsions:
REMARK  status: ('A' for Active; 'I' for Inactive)
REMARK    1  A    between atoms: C_1  and  N_2
REMARK    2  A    between atoms: N_2  and  C_3
REMARK    3  A    between atoms: N_2  and  C_4
REMARK    4  A    between atoms: C_7  and  C_8
REMARK    5  A    between atoms: C_8  and  C_9
REMARK    6  A    between atoms: N_11  and  C_12
REMARK    7  A    between atoms: C_12  and  C_13
REMARK    8  A    between atoms: C_13  and  C_14
REMARK    9  A    between atoms: C_14  and  C_15
REMARK   10  A    between atoms: C_15  and  C_16
REMARK   11  A    between atoms: C_16  and  C_17
REMARK   12  A    between atoms: C_17  and  C_18
REMARK   13  A    between atoms: C_18  and  C_19
REMARK   14  A    between atoms: C_19  and  C_20
REMARK   15  A    between atoms: C_20  and  C_21
REMARK   16  A    between atoms: C_21  and  C_22
REMARK   17  A    between atoms: C_22  and  C_23
REMARK   18  A    between atoms: C_23  and  N_24
REMARK   19  A    between atoms: N_24  and  C_25
REMARK                            x       y       z     vdW  Elec       q    Type
REMARK                         _______ _______ _______ _____ _____    ______ ____
ROOT
ATOM      1  C   UNL     1      41.727 -17.348 -38.171  0.00  0.00    -0.053 C 
ENDROOT
BRANCH   1   2
ATOM      2  C   UNL     1      42.639 -16.987 -39.350  0.00  0.00    -0.053 C 
BRANCH   2   3
ATOM      3  C   UNL     1      43.658 -18.079 -39.695  0.00  0.00    -0.053 C 
BRANCH   3   4
ATOM      4  C   UNL     1      43.606 -19.278 -38.742  0.00  0.00    -0.052 C 
BRANCH   4   5
ATOM      5  C   UNL     1      44.084 -20.573 -39.396  0.00  0.00    -0.037 C 
BRANCH   5   6
ATOM      6  C   UNL     1      45.412 -21.051 -38.807  0.00  0.00    +0.012 C 
BRANCH   6   9
ATOM      7  C   UNL     1      46.854 -19.226 -37.994  0.00  0.00    +0.217 C 
ATOM      8  O   UNL     1      47.272 -18.942 -39.112  0.00  0.00    -0.275 OA
ATOM      9  N   UNL     1      45.852 -20.150 -37.763  0.00  0.00    -0.315 N 
ATOM     10  H   UNL     1      45.431 -20.195 -36.874  0.00  0.00    +0.000 HD
BRANCH   7  11
ATOM     11  C   UNL     1      47.404 -18.580 -36.731  0.00  0.00    +0.049 C 
BRANCH  11  15
ATOM     12  C   UNL     1      44.371 -16.142 -34.728  0.00  0.00    +0.029 A 
ATOM     13  C   UNL     1      45.113 -17.124 -34.048  0.00  0.00    -0.040 A 
ATOM     14  C   UNL     1      46.103 -17.888 -34.682  0.00  0.00    -0.056 A 
ATOM     15  C   UNL     1      46.379 -17.713 -36.038  0.00  0.00    -0.039 A 
ATOM     16  C   UNL     1      45.663 -16.743 -36.738  0.00  0.00    -0.056 A 
ATOM     17  C   UNL     1      44.678 -15.982 -36.092  0.00  0.00    -0.040 A 
BRANCH  12  19
ATOM     18  C   UNL     1      43.107 -15.625 -32.680  0.00  0.00    +0.000 C 
ATOM     19  N   UNL     1      43.360 -15.403 -34.103  0.00  0.00    -0.336 N 
ATOM     20  C   UNL     1      42.211 -14.955 -34.888  0.00  0.00    +0.000 C 
ENDBRANCH  12  19
ENDBRANCH  11  15
ENDBRANCH   7  11
ENDBRANCH   6   9
ENDBRANCH   5   6
ENDBRANCH   4   5
ENDBRANCH   3   4
ENDBRANCH   2   3
ENDBRANCH   1   2
BRANCH   1  21
ATOM     21  C   UNL     1      40.238 -17.276 -38.509  0.00  0.00    -0.053 C 
BRANCH  21  22
ATOM     22  C   UNL     1      39.508 -18.571 -38.133  0.00  0.00    -0.053 C 
BRANCH  22  23
ATOM     23  C   UNL     1      40.103 -19.787 -38.850  0.00  0.00    -0.053 C 
BRANCH  23  24
ATOM     24  C   UNL     1      39.395 -21.092 -38.468  0.00  0.00    -0.052 C 
BRANCH  24  25
ATOM     25  C   UNL     1      40.355 -22.273 -38.289  0.00  0.00    -0.040 C 
BRANCH  25  26
ATOM     26  C   UNL     1      41.429 -21.982 -37.231  0.00  0.00    -0.004 C 
BRANCH  26  27
ATOM     27  N   UNL     1      40.889 -22.224 -35.895  0.00  0.00    -0.311 N 
ATOM     28  H   UNL     1      41.423 -22.983 -35.474  0.00  0.00    +0.000 HD
ATOM     29  H   UNL     1      39.900 -22.437 -36.032  0.00  0.00    +0.000 HD
BRANCH  27  30
ATOM     30  C   UNL     1      40.926 -21.078 -34.969  0.00  0.00    +0.020 C 
ATOM     31  C   UNL     1      39.484 -20.500 -34.920  0.00  0.00    -0.032 C 
ATOM     32  C   UNL     1      39.408 -19.289 -33.974  0.00  0.00    -0.039 C 
ATOM     33  C   UNL     1      40.368 -18.198 -34.471  0.00  0.00    -0.047 C 
ATOM     34  C   UNL     1      41.805 -18.740 -34.501  0.00  0.00    -0.039 C 
ATOM     35  C   UNL     1      42.211 -19.183 -33.085  0.00  0.00    -0.047 C 
ATOM     36  C   UNL     1      41.255 -20.277 -32.580  0.00  0.00    -0.039 C 
ATOM     37  C   UNL     1      39.821 -19.727 -32.561  0.00  0.00    -0.047 C 
ATOM     38  C   UNL     1      41.326 -21.487 -33.529  0.00  0.00    -0.032 C 
ATOM     39  C   UNL     1      41.875 -19.948 -35.452  0.00  0.00    -0.032 C 
ENDBRANCH  27  30
ENDBRANCH  26  27
ENDBRANCH  25  26
ENDBRANCH  24  25
ENDBRANCH  23  24
ENDBRANCH  22  23
ENDBRANCH  21  22
ENDBRANCH   1  21
TORSDOF 17
ENDMDL
MODEL 20
REMARK VINA RESULT:    -4.923      3.045      8.037
REMARK INTER + INTRA:         -13.777
REMARK INTER:                  -9.488
REMARK INTRA:                  -4.289
REMARK UNBOUND:                -3.961
REMARK  Name = cpd170.pdb
REMARK  19 active torsions:
REMARK  status: ('A' for Active; 'I' for Inactive)
REMARK    1  A    between atoms: C_1  and  N_2
REMARK    2  A    between atoms: N_2  and  C_3
REMARK    3  A    between atoms: N_2  and  C_4
REMARK    4  A    between atoms: C_7  and  C_8
REMARK    5  A    between atoms: C_8  and  C_9
REMARK    6  A    between atoms: N_11  and  C_12
REMARK    7  A    between atoms: C_12  and  C_13
REMARK    8  A    between atoms: C_13  and  C_14
REMARK    9  A    between atoms: C_14  and  C_15
REMARK   10  A    between atoms: C_15  and  C_16
REMARK   11  A    between atoms: C_16  and  C_17
REMARK   12  A    between atoms: C_17  and  C_18
REMARK   13  A    between atoms: C_18  and  C_19
REMARK   14  A    between atoms: C_19  and  C_20
REMARK   15  A    between atoms: C_20  and  C_21
REMARK   16  A    between atoms: C_21  and  C_22
REMARK   17  A    between atoms: C_22  and  C_23
REMARK   18  A    between atoms: C_23  and  N_24
REMARK   19  A    between atoms: N_24  and  C_25
REMARK                            x       y       z     vdW  Elec       q    Type
REMARK                         _______ _______ _______ _____ _____    ______ ____
ROOT
ATOM      1  C   UNL     1      42.808 -16.157 -38.533  0.00  0.00    -0.053 C 
ENDROOT
BRANCH   1   2
ATOM      2  C   UNL     1      41.800 -16.968 -39.356  0.00  0.00    -0.053 C 
BRANCH   2   3
ATOM      3  C   UNL     1      41.232 -18.181 -38.611  0.00  0.00    -0.053 C 
BRANCH   3   4
ATOM      4  C   UNL     1      42.185 -18.739 -37.549  0.00  0.00    -0.052 C 
BRANCH   4   5
ATOM      5  C   UNL     1      41.995 -20.236 -37.313  0.00  0.00    -0.037 C 
BRANCH   5   6
ATOM      6  C   UNL     1      43.251 -20.884 -36.729  0.00  0.00    +0.012 C 
BRANCH   6   9
ATOM      7  C   UNL     1      45.198 -19.950 -35.543  0.00  0.00    +0.217 C 
ATOM      8  O   UNL     1      45.310 -20.914 -34.790  0.00  0.00    -0.275 OA
ATOM      9  N   UNL     1      44.309 -19.904 -36.599  0.00  0.00    -0.315 N 
ATOM     10  H   UNL     1      44.396 -19.193 -37.275  0.00  0.00    +0.000 HD
BRANCH   7  11
ATOM     11  C   UNL     1      46.040 -18.693 -35.385  0.00  0.00    +0.049 C 
BRANCH  11  15
ATOM     12  C   UNL     1      43.836 -15.310 -33.698  0.00  0.00    +0.029 A 
ATOM     13  C   UNL     1      44.247 -15.341 -35.042  0.00  0.00    -0.040 A 
ATOM     14  C   UNL     1      44.931 -16.435 -35.591  0.00  0.00    -0.056 A 
ATOM     15  C   UNL     1      45.251 -17.543 -34.806  0.00  0.00    -0.039 A 
ATOM     16  C   UNL     1      44.853 -17.543 -33.470  0.00  0.00    -0.056 A 
ATOM     17  C   UNL     1      44.166 -16.444 -32.933  0.00  0.00    -0.040 A 
BRANCH  12  19
ATOM     18  C   UNL     1      43.976 -13.221 -32.402  0.00  0.00    +0.000 C 
ATOM     19  N   UNL     1      43.184 -14.204 -33.141  0.00  0.00    -0.336 N 
ATOM     20  C   UNL     1      41.786 -14.328 -32.730  0.00  0.00    +0.000 C 
ENDBRANCH  12  19
ENDBRANCH  11  15
ENDBRANCH   7  11
ENDBRANCH   6   9
ENDBRANCH   5   6
ENDBRANCH   4   5
ENDBRANCH   3   4
ENDBRANCH   2   3
ENDBRANCH   1   2
BRANCH   1  21
ATOM     21  C   UNL     1      43.368 -14.945 -39.277  0.00  0.00    -0.053 C 
BRANCH  21  22
ATOM     22  C   UNL     1      44.109 -15.356 -40.554  0.00  0.00    -0.053 C 
BRANCH  22  23
ATOM     23  C   UNL     1      45.548 -14.832 -40.570  0.00  0.00    -0.053 C 
BRANCH  23  24
ATOM     24  C   UNL     1      46.575 -15.956 -40.751  0.00  0.00    -0.052 C 
BRANCH  24  25
ATOM     25  C   UNL     1      47.246 -16.382 -39.441  0.00  0.00    -0.040 C 
BRANCH  25  26
ATOM     26  C   UNL     1      46.513 -17.558 -38.779  0.00  0.00    -0.004 C 
BRANCH  26  27
ATOM     27  N   UNL     1      47.032 -18.822 -39.297  0.00  0.00    -0.311 N 
ATOM     28  H   UNL     1      47.269 -19.413 -38.500  0.00  0.00    +0.000 HD
ATOM     29  H   UNL     1      47.830 -18.574 -39.883  0.00  0.00    +0.000 HD
BRANCH  27  30
ATOM     30  C   UNL     1      46.119 -19.583 -40.168  0.00  0.00    +0.020 C 
ATOM     31  C   UNL     1      46.090 -21.036 -39.617  0.00  0.00    -0.032 C 
ATOM     32  C   UNL     1      45.159 -21.926 -40.458  0.00  0.00    -0.039 C 
ATOM     33  C   UNL     1      45.659 -21.950 -41.911  0.00  0.00    -0.047 C 
ATOM     34  C   UNL     1      45.670 -20.526 -42.485  0.00  0.00    -0.039 C 
ATOM     35  C   UNL     1      44.245 -19.948 -42.437  0.00  0.00    -0.047 C 
ATOM     36  C   UNL     1      43.737 -19.918 -40.986  0.00  0.00    -0.039 C 
ATOM     37  C   UNL     1      43.737 -21.346 -40.419  0.00  0.00    -0.047 C 
ATOM     38  C   UNL     1      44.670 -19.033 -40.140  0.00  0.00    -0.032 C 
ATOM     39  C   UNL     1      46.606 -19.642 -41.641  0.00  0.00    -0.032 C 
ENDBRANCH  27  30
ENDBRANCH  26  27
ENDBRANCH  25  26
ENDBRANCH  24  25
ENDBRANCH  23  24
ENDBRANCH  22  23
ENDBRANCH  21  22
ENDBRANCH   1  21
TORSDOF 17
ENDMDL
