@<TRIPOS>MOLECULE
*****
 36 39 0 0 0
SMALL
GASTEIGER

@<TRIPOS>ATOM
      1 O         -12.9904    5.5000    0.0000 O.2     1  UNL1       -0.2652
      2 C         -12.9904    4.5000    0.0000 C.ar    1  UNL1        0.2790
      3 C         -12.1244    4.0000    0.0000 C.ar    1  UNL1        0.0622
      4 C         -12.1244    3.0000    0.0000 C.ar    1  UNL1        0.0032
      5 C         -12.9904    2.5000    0.0000 C.ar    1  UNL1        0.0073
      6 C         -13.8564    3.0000    0.0000 C.ar    1  UNL1        0.0595
      7 N         -13.8564    4.0000    0.0000 N.ar    1  UNL1       -0.2125
      8 C         -14.7224    2.5000    0.0000 C.3     1  UNL1        0.0457
      9 C         -14.7224    1.5000    0.0000 C.3     1  UNL1        0.0081
     10 C         -13.8564    1.0000    0.0000 C.3     1  UNL1        0.0223
     11 C         -12.9904    1.5000    0.0000 C.3     1  UNL1        0.0960
     12 N         -12.1244    1.0000    0.0000 N.3     1  UNL1       -0.2150
     13 C         -11.2583    1.5000    0.0000 C.3     1  UNL1        0.0890
     14 C         -10.3923    1.0000    0.0000 C.3     1  UNL1        0.0188
     15 C          -9.5263    1.5000    0.0000 C.3     1  UNL1        0.0015
     16 C          -8.6603    1.0000    0.0000 C.3     1  UNL1        0.0000
     17 C          -7.7942    1.5000    0.0000 C.3     1  UNL1        0.0000
     18 C          -6.9282    1.0000    0.0000 C.3     1  UNL1        0.0000
     19 C          -6.0622    1.5000    0.0000 C.3     1  UNL1        0.0000
     20 C          -5.1962    1.0000    0.0000 C.3     1  UNL1        0.0000
     21 C          -4.3301    1.5000    0.0000 C.3     1  UNL1        0.0000
     22 C          -3.4641    1.0000    0.0000 C.3     1  UNL1        0.0015
     23 C          -2.5981    1.5000    0.0000 C.3     1  UNL1        0.0188
     24 C          -1.7321    1.0000    0.0000 C.3     1  UNL1        0.0890
     25 N          -0.8660    1.5000    0.0000 N.3     1  UNL1       -0.2150
     26 C          -0.0000    1.0000    0.0000 C.3     1  UNL1        0.0960
     27 C           0.8660    1.5000    0.0000 C.3     1  UNL1        0.0223
     28 C           1.7321    1.0000    0.0000 C.3     1  UNL1        0.0081
     29 C           1.7321    0.0000    0.0000 C.3     1  UNL1        0.0457
     30 C           0.8660   -0.5000    0.0000 C.ar    1  UNL1        0.0595
     31 N           0.8660   -1.5000    0.0000 N.ar    1  UNL1       -0.2125
     32 C           0.0000   -2.0000    0.0000 C.ar    1  UNL1        0.2790
     33 O           0.0000   -3.0000    0.0000 O.2     1  UNL1       -0.2652
     34 C          -0.8660   -1.5000    0.0000 C.ar    1  UNL1        0.0622
     35 C          -0.8660   -0.5000    0.0000 C.ar    1  UNL1        0.0032
     36 C           0.0000   -0.0000    0.0000 C.ar    1  UNL1        0.0073
@<TRIPOS>BOND
     1     1     2    2
     2     2     3   ar
     3     3     4   ar
     4     4     5   ar
     5     5     6   ar
     6     6     7   ar
     7     2     7   ar
     8     6     8    1
     9     8     9    1
    10     9    10    1
    11    10    11    1
    12     5    11    1
    13    11    12    1
    14    12    13    1
    15    13    14    1
    16    14    15    1
    17    15    16    1
    18    16    17    1
    19    17    18    1
    20    18    19    1
    21    19    20    1
    22    20    21    1
    23    21    22    1
    24    22    23    1
    25    23    24    1
    26    24    25    1
    27    25    26    1
    28    26    27    1
    29    27    28    1
    30    28    29    1
    31    29    30    1
    32    30    31   ar
    33    31    32   ar
    34    32    33    2
    35    32    34   ar
    36    34    35   ar
    37    35    36   ar
    38    30    36   ar
    39    26    36    1
