MODEL 1
REMARK VINA RESULT:    -9.082      0.000      0.000
REMARK INTER + INTRA:         -18.987
REMARK INTER:                 -17.045
REMARK INTRA:                  -1.942
REMARK UNBOUND:                -1.942
REMARK  Name = cpd60.pdb
REMARK  15 active torsions:
REMARK  status: ('A' for Active; 'I' for Inactive)
REMARK    1  A    between atoms: C_11  and  N_12
REMARK    2  A    between atoms: N_12  and  C_13
REMARK    3  A    between atoms: C_13  and  C_14
REMARK    4  A    between atoms: C_14  and  C_15
REMARK    5  A    between atoms: C_15  and  C_16
REMARK    6  A    between atoms: C_16  and  C_17
REMARK    7  A    between atoms: C_17  and  C_18
REMARK    8  A    between atoms: C_18  and  C_19
REMARK    9  A    between atoms: C_19  and  C_20
REMARK   10  A    between atoms: C_20  and  C_21
REMARK   11  A    between atoms: C_21  and  C_22
REMARK   12  A    between atoms: C_22  and  C_23
REMARK   13  A    between atoms: C_23  and  C_24
REMARK   14  A    between atoms: C_24  and  N_25
REMARK   15  A    between atoms: N_25  and  C_26
REMARK                            x       y       z     vdW  Elec       q    Type
REMARK                         _______ _______ _______ _____ _____    ______ ____
ROOT
ATOM      1  C   UNL     1      41.882 -35.934 -31.680  0.00  0.00    -0.053 C 
ENDROOT
BRANCH   1   2
ATOM      2  C   UNL     1      42.159 -37.413 -31.956  0.00  0.00    -0.053 C 
BRANCH   2   3
ATOM      3  C   UNL     1      43.119 -38.001 -30.922  0.00  0.00    -0.053 C 
BRANCH   3   4
ATOM      4  C   UNL     1      42.434 -39.071 -30.071  0.00  0.00    -0.053 C 
BRANCH   4   5
ATOM      5  C   UNL     1      43.446 -39.824 -29.205  0.00  0.00    -0.052 C 
BRANCH   5   6
ATOM      6  C   UNL     1      44.359 -40.709 -30.061  0.00  0.00    -0.040 C 
BRANCH   6   7
ATOM      7  C   UNL     1      45.831 -40.669 -29.626  0.00  0.00    -0.004 C 
BRANCH   7   8
ATOM      8  N   UNL     1      46.086 -39.593 -28.673  0.00  0.00    -0.309 N 
ATOM      9  H   UNL     1      45.273 -38.977 -28.671  0.00  0.00    +0.000 HD
ATOM     10  H   UNL     1      46.262 -40.049 -27.778  0.00  0.00    +0.000 HD
BRANCH   8  21
ATOM     11  O   UNL     1      47.120 -33.531 -30.453  0.00  0.00    -0.273 OA
ATOM     12  C   UNL     1      47.067 -34.757 -30.499  0.00  0.00    +0.240 C 
ATOM     13  C   UNL     1      45.724 -35.470 -30.425  0.00  0.00    +0.045 C 
ATOM     14  C   UNL     1      45.851 -36.809 -29.769  0.00  0.00    -0.069 C 
ATOM     15  C   UNL     1      47.024 -37.454 -29.655  0.00  0.00    -0.015 C 
ATOM     16  C   UNL     1      48.175 -36.765 -30.326  0.00  0.00    +0.038 C 
ATOM     17  N   UNL     1      48.182 -35.532 -30.720  0.00  0.00    -0.185 NA
ATOM     18  C   UNL     1      49.408 -37.583 -30.676  0.00  0.00    -0.012 C 
ATOM     19  C   UNL     1      49.656 -38.748 -29.737  0.00  0.00    -0.046 C 
ATOM     20  C   UNL     1      48.398 -39.595 -29.593  0.00  0.00    -0.033 C 
ATOM     21  C   UNL     1      47.275 -38.770 -28.945  0.00  0.00    +0.034 C 
ENDBRANCH   8  21
ENDBRANCH   7   8
ENDBRANCH   6   7
ENDBRANCH   5   6
ENDBRANCH   4   5
ENDBRANCH   3   4
ENDBRANCH   2   3
ENDBRANCH   1   2
BRANCH   1  22
ATOM     22  C   UNL     1      40.626 -35.756 -30.826  0.00  0.00    -0.053 C 
BRANCH  22  23
ATOM     23  C   UNL     1      39.694 -36.963 -30.948  0.00  0.00    -0.053 C 
BRANCH  23  24
ATOM     24  C   UNL     1      38.357 -36.702 -30.249  0.00  0.00    -0.052 C 
BRANCH  24  25
ATOM     25  C   UNL     1      37.942 -37.893 -29.380  0.00  0.00    -0.040 C 
BRANCH  25  26
ATOM     26  C   UNL     1      36.454 -38.249 -29.511  0.00  0.00    -0.004 C 
BRANCH  26  27
ATOM     27  N   UNL     1      35.596 -37.144 -29.087  0.00  0.00    -0.309 N 
ATOM     28  H   UNL     1      36.185 -36.323 -28.947  0.00  0.00    +0.000 HD
ATOM     29  H   UNL     1      35.128 -37.460 -28.237  0.00  0.00    +0.000 HD
BRANCH  27  30
ATOM     30  C   UNL     1      34.526 -36.781 -30.032  0.00  0.00    +0.034 C 
ATOM     31  C   UNL     1      34.435 -37.819 -31.173  0.00  0.00    -0.033 C 
ATOM     32  C   UNL     1      33.461 -37.368 -32.255  0.00  0.00    -0.046 C 
ATOM     33  C   UNL     1      33.919 -36.044 -32.868  0.00  0.00    -0.012 C 
ATOM     34  C   UNL     1      34.295 -35.026 -31.825  0.00  0.00    +0.024 A 
ATOM     35  N   UNL     1      34.345 -33.712 -32.238  0.00  0.00    -0.326 N 
ATOM     36  C   UNL     1      34.629 -32.649 -31.421  0.00  0.00    +0.249 A 
ATOM     37  O   UNL     1      34.679 -31.492 -31.823  0.00  0.00    -0.268 OA
ATOM     38  C   UNL     1      34.858 -32.977 -29.996  0.00  0.00    +0.003 A 
ATOM     39  C   UNL     1      34.806 -34.255 -29.595  0.00  0.00    -0.050 A 
ATOM     40  C   UNL     1      34.548 -35.340 -30.536  0.00  0.00    -0.011 A 
ATOM     41  H   UNL     1      34.163 -33.524 -33.187  0.00  0.00    +0.000 HD
ENDBRANCH  27  30
ENDBRANCH  26  27
ENDBRANCH  25  26
ENDBRANCH  24  25
ENDBRANCH  23  24
ENDBRANCH  22  23
ENDBRANCH   1  22
TORSDOF 15
ENDMDL
MODEL 2
REMARK VINA RESULT:    -8.342      2.468     12.542
REMARK INTER + INTRA:         -17.598
REMARK INTER:                 -16.154
REMARK INTRA:                  -1.444
REMARK UNBOUND:                -1.942
REMARK  Name = cpd60.pdb
REMARK  15 active torsions:
REMARK  status: ('A' for Active; 'I' for Inactive)
REMARK    1  A    between atoms: C_11  and  N_12
REMARK    2  A    between atoms: N_12  and  C_13
REMARK    3  A    between atoms: C_13  and  C_14
REMARK    4  A    between atoms: C_14  and  C_15
REMARK    5  A    between atoms: C_15  and  C_16
REMARK    6  A    between atoms: C_16  and  C_17
REMARK    7  A    between atoms: C_17  and  C_18
REMARK    8  A    between atoms: C_18  and  C_19
REMARK    9  A    between atoms: C_19  and  C_20
REMARK   10  A    between atoms: C_20  and  C_21
REMARK   11  A    between atoms: C_21  and  C_22
REMARK   12  A    between atoms: C_22  and  C_23
REMARK   13  A    between atoms: C_23  and  C_24
REMARK   14  A    between atoms: C_24  and  N_25
REMARK   15  A    between atoms: N_25  and  C_26
REMARK                            x       y       z     vdW  Elec       q    Type
REMARK                         _______ _______ _______ _____ _____    ______ ____
ROOT
ATOM      1  C   UNL     1      41.051 -35.282 -31.851  0.00  0.00    -0.053 C 
ENDROOT
BRANCH   1   2
ATOM      2  C   UNL     1      39.866 -36.235 -32.024  0.00  0.00    -0.053 C 
BRANCH   2   3
ATOM      3  C   UNL     1      38.790 -35.981 -30.969  0.00  0.00    -0.053 C 
BRANCH   3   4
ATOM      4  C   UNL     1      38.599 -37.201 -30.066  0.00  0.00    -0.053 C 
BRANCH   4   5
ATOM      5  C   UNL     1      37.120 -37.423 -29.740  0.00  0.00    -0.052 C 
BRANCH   5   6
ATOM      6  C   UNL     1      36.401 -36.094 -29.490  0.00  0.00    -0.040 C 
BRANCH   6   7
ATOM      7  C   UNL     1      35.139 -36.234 -28.627  0.00  0.00    -0.004 C 
BRANCH   7   8
ATOM      8  N   UNL     1      33.956 -36.511 -29.437  0.00  0.00    -0.309 N 
ATOM      9  H   UNL     1      34.080 -37.426 -29.870  0.00  0.00    +0.000 HD
ATOM     10  H   UNL     1      33.163 -36.460 -28.799  0.00  0.00    +0.000 HD
BRANCH   8  21
ATOM     11  O   UNL     1      31.668 -30.537 -29.676  0.00  0.00    -0.273 OA
ATOM     12  C   UNL     1      31.736 -31.756 -29.810  0.00  0.00    +0.240 C 
ATOM     13  C   UNL     1      31.803 -32.659 -28.587  0.00  0.00    +0.045 C 
ATOM     14  C   UNL     1      32.589 -33.901 -28.866  0.00  0.00    -0.069 C 
ATOM     15  C   UNL     1      32.828 -34.345 -30.112  0.00  0.00    -0.015 C 
ATOM     16  C   UNL     1      32.160 -33.546 -31.191  0.00  0.00    +0.038 C 
ATOM     17  N   UNL     1      31.651 -32.365 -31.040  0.00  0.00    -0.185 NA
ATOM     18  C   UNL     1      31.958 -34.190 -32.552  0.00  0.00    -0.012 C 
ATOM     19  C   UNL     1      33.016 -35.218 -32.906  0.00  0.00    -0.046 C 
ATOM     20  C   UNL     1      33.170 -36.234 -31.782  0.00  0.00    -0.033 C 
ATOM     21  C   UNL     1      33.674 -35.540 -30.506  0.00  0.00    +0.034 C 
ENDBRANCH   8  21
ENDBRANCH   7   8
ENDBRANCH   6   7
ENDBRANCH   5   6
ENDBRANCH   4   5
ENDBRANCH   3   4
ENDBRANCH   2   3
ENDBRANCH   1   2
BRANCH   1  22
ATOM     22  C   UNL     1      42.103 -35.871 -30.911  0.00  0.00    -0.053 C 
BRANCH  22  23
ATOM     23  C   UNL     1      42.906 -36.978 -31.598  0.00  0.00    -0.053 C 
BRANCH  23  24
ATOM     24  C   UNL     1      44.216 -37.253 -30.855  0.00  0.00    -0.052 C 
BRANCH  24  25
ATOM     25  C   UNL     1      45.009 -35.962 -30.629  0.00  0.00    -0.040 C 
BRANCH  25  26
ATOM     26  C   UNL     1      46.362 -36.195 -29.942  0.00  0.00    -0.004 C 
BRANCH  26  27
ATOM     27  N   UNL     1      46.245 -37.129 -28.822  0.00  0.00    -0.309 N 
ATOM     28  H   UNL     1      45.283 -37.468 -28.794  0.00  0.00    +0.000 HD
ATOM     29  H   UNL     1      46.518 -36.606 -27.989  0.00  0.00    +0.000 HD
BRANCH  27  30
ATOM     30  C   UNL     1      47.139 -38.297 -28.883  0.00  0.00    +0.034 C 
ATOM     31  C   UNL     1      48.397 -37.976 -29.720  0.00  0.00    -0.033 C 
ATOM     32  C   UNL     1      49.245 -39.222 -29.947  0.00  0.00    -0.046 C 
ATOM     33  C   UNL     1      48.443 -40.283 -30.703  0.00  0.00    -0.012 C 
ATOM     34  C   UNL     1      47.070 -40.491 -30.121  0.00  0.00    +0.024 A 
ATOM     35  N   UNL     1      46.428 -41.660 -30.465  0.00  0.00    -0.326 N 
ATOM     36  C   UNL     1      45.194 -42.037 -30.001  0.00  0.00    +0.249 A 
ATOM     37  O   UNL     1      44.644 -43.079 -30.337  0.00  0.00    -0.268 OA
ATOM     38  C   UNL     1      44.559 -41.109 -29.038  0.00  0.00    +0.003 A 
ATOM     39  C   UNL     1      45.187 -39.973 -28.702  0.00  0.00    -0.050 A 
ATOM     40  C   UNL     1      46.479 -39.616 -29.279  0.00  0.00    -0.011 A 
ATOM     41  H   UNL     1      46.887 -42.269 -31.088  0.00  0.00    +0.000 HD
ENDBRANCH  27  30
ENDBRANCH  26  27
ENDBRANCH  25  26
ENDBRANCH  24  25
ENDBRANCH  23  24
ENDBRANCH  22  23
ENDBRANCH   1  22
TORSDOF 15
ENDMDL
MODEL 3
REMARK VINA RESULT:    -8.265      2.468     12.274
REMARK INTER + INTRA:         -17.455
REMARK INTER:                 -16.217
REMARK INTRA:                  -1.238
REMARK UNBOUND:                -1.942
REMARK  Name = cpd60.pdb
REMARK  15 active torsions:
REMARK  status: ('A' for Active; 'I' for Inactive)
REMARK    1  A    between atoms: C_11  and  N_12
REMARK    2  A    between atoms: N_12  and  C_13
REMARK    3  A    between atoms: C_13  and  C_14
REMARK    4  A    between atoms: C_14  and  C_15
REMARK    5  A    between atoms: C_15  and  C_16
REMARK    6  A    between atoms: C_16  and  C_17
REMARK    7  A    between atoms: C_17  and  C_18
REMARK    8  A    between atoms: C_18  and  C_19
REMARK    9  A    between atoms: C_19  and  C_20
REMARK   10  A    between atoms: C_20  and  C_21
REMARK   11  A    between atoms: C_21  and  C_22
REMARK   12  A    between atoms: C_22  and  C_23
REMARK   13  A    between atoms: C_23  and  C_24
REMARK   14  A    between atoms: C_24  and  N_25
REMARK   15  A    between atoms: N_25  and  C_26
REMARK                            x       y       z     vdW  Elec       q    Type
REMARK                         _______ _______ _______ _____ _____    ______ ____
ROOT
ATOM      1  C   UNL     1      39.896 -35.881 -31.549  0.00  0.00    -0.053 C 
ENDROOT
BRANCH   1   2
ATOM      2  C   UNL     1      39.893 -36.941 -30.446  0.00  0.00    -0.053 C 
BRANCH   2   3
ATOM      3  C   UNL     1      38.551 -36.980 -29.715  0.00  0.00    -0.053 C 
BRANCH   3   4
ATOM      4  C   UNL     1      38.561 -38.017 -28.590  0.00  0.00    -0.053 C 
BRANCH   4   5
ATOM      5  C   UNL     1      37.185 -38.130 -27.929  0.00  0.00    -0.052 C 
BRANCH   5   6
ATOM      6  C   UNL     1      36.187 -38.847 -28.844  0.00  0.00    -0.040 C 
BRANCH   6   7
ATOM      7  C   UNL     1      34.811 -38.169 -28.899  0.00  0.00    -0.004 C 
BRANCH   7   8
ATOM      8  N   UNL     1      34.896 -36.745 -28.588  0.00  0.00    -0.309 N 
ATOM      9  H   UNL     1      35.351 -36.649 -27.680  0.00  0.00    +0.000 HD
ATOM     10  H   UNL     1      35.416 -36.322 -29.358  0.00  0.00    +0.000 HD
BRANCH   8  21
ATOM     11  O   UNL     1      32.631 -31.260 -30.990  0.00  0.00    -0.273 OA
ATOM     12  C   UNL     1      33.030 -32.089 -30.176  0.00  0.00    +0.240 C 
ATOM     13  C   UNL     1      34.469 -32.582 -30.228  0.00  0.00    +0.045 C 
ATOM     14  C   UNL     1      34.580 -33.996 -29.751  0.00  0.00    -0.069 C 
ATOM     15  C   UNL     1      33.636 -34.585 -28.998  0.00  0.00    -0.015 C 
ATOM     16  C   UNL     1      32.512 -33.678 -28.596  0.00  0.00    +0.038 C 
ATOM     17  N   UNL     1      32.249 -32.529 -29.134  0.00  0.00    -0.185 NA
ATOM     18  C   UNL     1      31.660 -34.063 -27.397  0.00  0.00    -0.012 C 
ATOM     19  C   UNL     1      31.548 -35.560 -27.182  0.00  0.00    -0.046 C 
ATOM     20  C   UNL     1      32.929 -36.202 -27.164  0.00  0.00    -0.033 C 
ATOM     21  C   UNL     1      33.613 -36.027 -28.530  0.00  0.00    +0.034 C 
ENDBRANCH   8  21
ENDBRANCH   7   8
ENDBRANCH   6   7
ENDBRANCH   5   6
ENDBRANCH   4   5
ENDBRANCH   3   4
ENDBRANCH   2   3
ENDBRANCH   1   2
BRANCH   1  22
ATOM     22  C   UNL     1      41.319 -35.567 -32.013  0.00  0.00    -0.053 C 
BRANCH  22  23
ATOM     23  C   UNL     1      42.306 -36.637 -31.542  0.00  0.00    -0.053 C 
BRANCH  23  24
ATOM     24  C   UNL     1      43.524 -36.004 -30.865  0.00  0.00    -0.052 C 
BRANCH  24  25
ATOM     25  C   UNL     1      44.687 -36.996 -30.772  0.00  0.00    -0.040 C 
BRANCH  25  26
ATOM     26  C   UNL     1      45.933 -36.408 -30.093  0.00  0.00    -0.004 C 
BRANCH  26  27
ATOM     27  N   UNL     1      46.198 -37.049 -28.805  0.00  0.00    -0.309 N 
ATOM     28  H   UNL     1      45.308 -37.374 -28.426  0.00  0.00    +0.000 HD
ATOM     29  H   UNL     1      46.654 -36.343 -28.227  0.00  0.00    +0.000 HD
BRANCH  27  30
ATOM     30  C   UNL     1      47.120 -38.196 -28.852  0.00  0.00    +0.034 C 
ATOM     31  C   UNL     1      48.415 -37.821 -29.606  0.00  0.00    -0.033 C 
ATOM     32  C   UNL     1      49.302 -39.042 -29.825  0.00  0.00    -0.046 C 
ATOM     33  C   UNL     1      48.568 -40.093 -30.657  0.00  0.00    -0.012 C 
ATOM     34  C   UNL     1      47.170 -40.349 -30.161  0.00  0.00    +0.024 A 
ATOM     35  N   UNL     1      46.574 -41.519 -30.577  0.00  0.00    -0.326 N 
ATOM     36  C   UNL     1      45.325 -41.937 -30.195  0.00  0.00    +0.249 A 
ATOM     37  O   UNL     1      44.818 -42.978 -30.594  0.00  0.00    -0.268 OA
ATOM     38  C   UNL     1      44.617 -41.054 -29.241  0.00  0.00    +0.003 A 
ATOM     39  C   UNL     1      45.200 -39.917 -28.835  0.00  0.00    -0.050 A 
ATOM     40  C   UNL     1      46.513 -39.515 -29.326  0.00  0.00    -0.011 A 
ATOM     41  H   UNL     1      47.081 -42.098 -31.192  0.00  0.00    +0.000 HD
ENDBRANCH  27  30
ENDBRANCH  26  27
ENDBRANCH  25  26
ENDBRANCH  24  25
ENDBRANCH  23  24
ENDBRANCH  22  23
ENDBRANCH   1  22
TORSDOF 15
ENDMDL
MODEL 4
REMARK VINA RESULT:    -7.997      3.409     12.458
REMARK INTER + INTRA:         -16.951
REMARK INTER:                 -15.695
REMARK INTRA:                  -1.257
REMARK UNBOUND:                -1.942
REMARK  Name = cpd60.pdb
REMARK  15 active torsions:
REMARK  status: ('A' for Active; 'I' for Inactive)
REMARK    1  A    between atoms: C_11  and  N_12
REMARK    2  A    between atoms: N_12  and  C_13
REMARK    3  A    between atoms: C_13  and  C_14
REMARK    4  A    between atoms: C_14  and  C_15
REMARK    5  A    between atoms: C_15  and  C_16
REMARK    6  A    between atoms: C_16  and  C_17
REMARK    7  A    between atoms: C_17  and  C_18
REMARK    8  A    between atoms: C_18  and  C_19
REMARK    9  A    between atoms: C_19  and  C_20
REMARK   10  A    between atoms: C_20  and  C_21
REMARK   11  A    between atoms: C_21  and  C_22
REMARK   12  A    between atoms: C_22  and  C_23
REMARK   13  A    between atoms: C_23  and  C_24
REMARK   14  A    between atoms: C_24  and  N_25
REMARK   15  A    between atoms: N_25  and  C_26
REMARK                            x       y       z     vdW  Elec       q    Type
REMARK                         _______ _______ _______ _____ _____    ______ ____
ROOT
ATOM      1  C   UNL     1      40.253 -35.458 -31.629  0.00  0.00    -0.053 C 
ENDROOT
BRANCH   1   2
ATOM      2  C   UNL     1      39.878 -36.671 -30.775  0.00  0.00    -0.053 C 
BRANCH   2   3
ATOM      3  C   UNL     1      38.364 -36.884 -30.745  0.00  0.00    -0.053 C 
BRANCH   3   4
ATOM      4  C   UNL     1      37.632 -35.783 -31.516  0.00  0.00    -0.053 C 
BRANCH   4   5
ATOM      5  C   UNL     1      36.474 -35.209 -30.696  0.00  0.00    -0.052 C 
BRANCH   5   6
ATOM      6  C   UNL     1      35.126 -35.493 -31.366  0.00  0.00    -0.040 C 
BRANCH   6   7
ATOM      7  C   UNL     1      34.476 -36.804 -30.899  0.00  0.00    -0.004 C 
BRANCH   7   8
ATOM      8  N   UNL     1      35.118 -37.329 -29.698  0.00  0.00    -0.309 N 
ATOM      9  H   UNL     1      36.103 -37.487 -29.912  0.00  0.00    +0.000 HD
ATOM     10  H   UNL     1      34.960 -36.633 -28.970  0.00  0.00    +0.000 HD
BRANCH   8  21
ATOM     11  O   UNL     1      32.843 -39.309 -24.051  0.00  0.00    -0.273 OA
ATOM     12  C   UNL     1      33.582 -39.198 -25.026  0.00  0.00    +0.240 C 
ATOM     13  C   UNL     1      34.271 -37.872 -25.318  0.00  0.00    +0.045 C 
ATOM     14  C   UNL     1      34.475 -37.674 -26.786  0.00  0.00    -0.069 C 
ATOM     15  C   UNL     1      34.446 -38.688 -27.668  0.00  0.00    -0.015 C 
ATOM     16  C   UNL     1      34.289 -40.043 -27.045  0.00  0.00    +0.038 C 
ATOM     17  N   UNL     1      33.904 -40.267 -25.829  0.00  0.00    -0.185 NA
ATOM     18  C   UNL     1      34.706 -41.265 -27.847  0.00  0.00    -0.012 C 
ATOM     19  C   UNL     1      34.558 -41.091 -29.347  0.00  0.00    -0.046 C 
ATOM     20  C   UNL     1      35.245 -39.812 -29.806  0.00  0.00    -0.033 C 
ATOM     21  C   UNL     1      34.562 -38.588 -29.176  0.00  0.00    +0.034 C 
ENDBRANCH   8  21
ENDBRANCH   7   8
ENDBRANCH   6   7
ENDBRANCH   5   6
ENDBRANCH   4   5
ENDBRANCH   3   4
ENDBRANCH   2   3
ENDBRANCH   1   2
BRANCH   1  22
ATOM     22  C   UNL     1      41.724 -35.506 -32.043  0.00  0.00    -0.053 C 
BRANCH  22  23
ATOM     23  C   UNL     1      42.473 -36.619 -31.308  0.00  0.00    -0.053 C 
BRANCH  23  24
ATOM     24  C   UNL     1      43.805 -36.112 -30.747  0.00  0.00    -0.052 C 
BRANCH  24  25
ATOM     25  C   UNL     1      44.861 -37.221 -30.734  0.00  0.00    -0.040 C 
BRANCH  25  26
ATOM     26  C   UNL     1      45.961 -36.998 -29.686  0.00  0.00    -0.004 C 
BRANCH  26  27
ATOM     27  N   UNL     1      46.090 -38.143 -28.786  0.00  0.00    -0.309 N 
ATOM     28  H   UNL     1      45.327 -38.790 -28.987  0.00  0.00    +0.000 HD
ATOM     29  H   UNL     1      46.064 -37.763 -27.840  0.00  0.00    +0.000 HD
BRANCH  27  30
ATOM     30  C   UNL     1      47.357 -38.886 -28.893  0.00  0.00    +0.034 C 
ATOM     31  C   UNL     1      48.549 -37.912 -29.019  0.00  0.00    -0.033 C 
ATOM     32  C   UNL     1      49.846 -38.658 -29.313  0.00  0.00    -0.046 C 
ATOM     33  C   UNL     1      49.733 -39.426 -30.630  0.00  0.00    -0.012 C 
ATOM     34  C   UNL     1      48.456 -40.217 -30.729  0.00  0.00    +0.024 A 
ATOM     35  N   UNL     1      48.428 -41.225 -31.668  0.00  0.00    -0.326 N 
ATOM     36  C   UNL     1      47.369 -42.071 -31.872  0.00  0.00    +0.249 A 
ATOM     37  O   UNL     1      47.371 -42.950 -32.726  0.00  0.00    -0.268 OA
ATOM     38  C   UNL     1      46.209 -41.876 -30.973  0.00  0.00    +0.003 A 
ATOM     39  C   UNL     1      46.240 -40.898 -30.057  0.00  0.00    -0.050 A 
ATOM     40  C   UNL     1      47.384 -40.002 -29.935  0.00  0.00    -0.011 A 
ATOM     41  H   UNL     1      49.225 -41.345 -32.234  0.00  0.00    +0.000 HD
ENDBRANCH  27  30
ENDBRANCH  26  27
ENDBRANCH  25  26
ENDBRANCH  24  25
ENDBRANCH  23  24
ENDBRANCH  22  23
ENDBRANCH   1  22
TORSDOF 15
ENDMDL
MODEL 5
REMARK VINA RESULT:    -7.874      3.020     12.044
REMARK INTER + INTRA:         -16.721
REMARK INTER:                 -14.993
REMARK INTRA:                  -1.728
REMARK UNBOUND:                -1.942
REMARK  Name = cpd60.pdb
REMARK  15 active torsions:
REMARK  status: ('A' for Active; 'I' for Inactive)
REMARK    1  A    between atoms: C_11  and  N_12
REMARK    2  A    between atoms: N_12  and  C_13
REMARK    3  A    between atoms: C_13  and  C_14
REMARK    4  A    between atoms: C_14  and  C_15
REMARK    5  A    between atoms: C_15  and  C_16
REMARK    6  A    between atoms: C_16  and  C_17
REMARK    7  A    between atoms: C_17  and  C_18
REMARK    8  A    between atoms: C_18  and  C_19
REMARK    9  A    between atoms: C_19  and  C_20
REMARK   10  A    between atoms: C_20  and  C_21
REMARK   11  A    between atoms: C_21  and  C_22
REMARK   12  A    between atoms: C_22  and  C_23
REMARK   13  A    between atoms: C_23  and  C_24
REMARK   14  A    between atoms: C_24  and  N_25
REMARK   15  A    between atoms: N_25  and  C_26
REMARK                            x       y       z     vdW  Elec       q    Type
REMARK                         _______ _______ _______ _____ _____    ______ ____
ROOT
ATOM      1  C   UNL     1      40.308 -35.240 -31.419  0.00  0.00    -0.053 C 
ENDROOT
BRANCH   1   2
ATOM      2  C   UNL     1      40.018 -36.582 -30.743  0.00  0.00    -0.053 C 
BRANCH   2   3
ATOM      3  C   UNL     1      38.528 -36.919 -30.793  0.00  0.00    -0.053 C 
BRANCH   3   4
ATOM      4  C   UNL     1      37.745 -35.867 -31.580  0.00  0.00    -0.053 C 
BRANCH   4   5
ATOM      5  C   UNL     1      36.655 -35.227 -30.718  0.00  0.00    -0.052 C 
BRANCH   5   6
ATOM      6  C   UNL     1      35.260 -35.678 -31.163  0.00  0.00    -0.040 C 
BRANCH   6   7
ATOM      7  C   UNL     1      34.138 -35.210 -30.224  0.00  0.00    -0.004 C 
BRANCH   7   8
ATOM      8  N   UNL     1      34.147 -35.943 -28.962  0.00  0.00    -0.309 N 
ATOM      9  H   UNL     1      35.111 -35.989 -28.632  0.00  0.00    +0.000 HD
ATOM     10  H   UNL     1      33.520 -35.433 -28.339  0.00  0.00    +0.000 HD
BRANCH   8  21
ATOM     11  O   UNL     1      36.586 -41.789 -28.036  0.00  0.00    -0.273 OA
ATOM     12  C   UNL     1      36.108 -40.812 -28.606  0.00  0.00    +0.240 C 
ATOM     13  C   UNL     1      36.877 -39.499 -28.652  0.00  0.00    +0.045 C 
ATOM     14  C   UNL     1      35.952 -38.324 -28.677  0.00  0.00    -0.069 C 
ATOM     15  C   UNL     1      34.660 -38.423 -29.035  0.00  0.00    -0.015 C 
ATOM     16  C   UNL     1      34.252 -39.789 -29.499  0.00  0.00    +0.038 C 
ATOM     17  N   UNL     1      34.928 -40.877 -29.309  0.00  0.00    -0.185 NA
ATOM     18  C   UNL     1      33.001 -39.923 -30.353  0.00  0.00    -0.012 C 
ATOM     19  C   UNL     1      31.951 -38.866 -30.068  0.00  0.00    -0.046 C 
ATOM     20  C   UNL     1      32.566 -37.474 -30.124  0.00  0.00    -0.033 C 
ATOM     21  C   UNL     1      33.623 -37.317 -29.019  0.00  0.00    +0.034 C 
ENDBRANCH   8  21
ENDBRANCH   7   8
ENDBRANCH   6   7
ENDBRANCH   5   6
ENDBRANCH   4   5
ENDBRANCH   3   4
ENDBRANCH   2   3
ENDBRANCH   1   2
BRANCH   1  22
ATOM     22  C   UNL     1      41.760 -35.161 -31.892  0.00  0.00    -0.053 C 
BRANCH  22  23
ATOM     23  C   UNL     1      42.620 -36.242 -31.235  0.00  0.00    -0.053 C 
BRANCH  23  24
ATOM     24  C   UNL     1      43.923 -35.654 -30.687  0.00  0.00    -0.052 C 
BRANCH  24  25
ATOM     25  C   UNL     1      45.029 -36.712 -30.629  0.00  0.00    -0.040 C 
BRANCH  25  26
ATOM     26  C   UNL     1      46.219 -36.296 -29.753  0.00  0.00    -0.004 C 
BRANCH  26  27
ATOM     27  N   UNL     1      46.331 -37.135 -28.560  0.00  0.00    -0.309 N 
ATOM     28  H   UNL     1      45.402 -37.495 -28.339  0.00  0.00    +0.000 HD
ATOM     29  H   UNL     1      46.721 -36.538 -27.830  0.00  0.00    +0.000 HD
BRANCH  27  30
ATOM     30  C   UNL     1      47.246 -38.282 -28.681  0.00  0.00    +0.034 C 
ATOM     31  C   UNL     1      48.543 -37.866 -29.410  0.00  0.00    -0.033 C 
ATOM     32  C   UNL     1      49.424 -39.075 -29.708  0.00  0.00    -0.046 C 
ATOM     33  C   UNL     1      48.683 -40.066 -30.607  0.00  0.00    -0.012 C 
ATOM     34  C   UNL     1      47.284 -40.345 -30.128  0.00  0.00    +0.024 A 
ATOM     35  N   UNL     1      46.681 -41.483 -30.619  0.00  0.00    -0.326 N 
ATOM     36  C   UNL     1      45.430 -41.917 -30.265  0.00  0.00    +0.249 A 
ATOM     37  O   UNL     1      44.917 -42.928 -30.731  0.00  0.00    -0.268 OA
ATOM     38  C   UNL     1      44.727 -41.094 -29.255  0.00  0.00    +0.003 A 
ATOM     39  C   UNL     1      45.316 -39.990 -28.776  0.00  0.00    -0.050 A 
ATOM     40  C   UNL     1      46.631 -39.563 -29.241  0.00  0.00    -0.011 A 
ATOM     41  H   UNL     1      47.185 -42.023 -31.271  0.00  0.00    +0.000 HD
ENDBRANCH  27  30
ENDBRANCH  26  27
ENDBRANCH  25  26
ENDBRANCH  24  25
ENDBRANCH  23  24
ENDBRANCH  22  23
ENDBRANCH   1  22
TORSDOF 15
ENDMDL
MODEL 6
REMARK VINA RESULT:    -7.696      3.029     12.729
REMARK INTER + INTRA:         -16.388
REMARK INTER:                 -14.780
REMARK INTRA:                  -1.608
REMARK UNBOUND:                -1.942
REMARK  Name = cpd60.pdb
REMARK  15 active torsions:
REMARK  status: ('A' for Active; 'I' for Inactive)
REMARK    1  A    between atoms: C_11  and  N_12
REMARK    2  A    between atoms: N_12  and  C_13
REMARK    3  A    between atoms: C_13  and  C_14
REMARK    4  A    between atoms: C_14  and  C_15
REMARK    5  A    between atoms: C_15  and  C_16
REMARK    6  A    between atoms: C_16  and  C_17
REMARK    7  A    between atoms: C_17  and  C_18
REMARK    8  A    between atoms: C_18  and  C_19
REMARK    9  A    between atoms: C_19  and  C_20
REMARK   10  A    between atoms: C_20  and  C_21
REMARK   11  A    between atoms: C_21  and  C_22
REMARK   12  A    between atoms: C_22  and  C_23
REMARK   13  A    between atoms: C_23  and  C_24
REMARK   14  A    between atoms: C_24  and  N_25
REMARK   15  A    between atoms: N_25  and  C_26
REMARK                            x       y       z     vdW  Elec       q    Type
REMARK                         _______ _______ _______ _____ _____    ______ ____
ROOT
ATOM      1  C   UNL     1      40.304 -35.953 -32.141  0.00  0.00    -0.053 C 
ENDROOT
BRANCH   1   2
ATOM      2  C   UNL     1      39.767 -36.868 -31.038  0.00  0.00    -0.053 C 
BRANCH   2   3
ATOM      3  C   UNL     1      38.325 -36.515 -30.675  0.00  0.00    -0.053 C 
BRANCH   3   4
ATOM      4  C   UNL     1      37.795 -35.375 -31.547  0.00  0.00    -0.053 C 
BRANCH   4   5
ATOM      5  C   UNL     1      36.593 -34.689 -30.893  0.00  0.00    -0.052 C 
BRANCH   5   6
ATOM      6  C   UNL     1      35.288 -35.060 -31.605  0.00  0.00    -0.040 C 
BRANCH   6   7
ATOM      7  C   UNL     1      34.205 -33.977 -31.498  0.00  0.00    -0.004 C 
BRANCH   7   8
ATOM      8  N   UNL     1      34.010 -33.539 -30.119  0.00  0.00    -0.309 N 
ATOM      9  H   UNL     1      34.857 -33.764 -29.596  0.00  0.00    +0.000 HD
ATOM     10  H   UNL     1      33.810 -32.540 -30.170  0.00  0.00    +0.000 HD
BRANCH   8  21
ATOM     11  O   UNL     1      33.308 -37.929 -25.513  0.00  0.00    -0.273 OA
ATOM     12  C   UNL     1      33.270 -37.397 -26.620  0.00  0.00    +0.240 C 
ATOM     13  C   UNL     1      34.561 -37.022 -27.334  0.00  0.00    +0.045 C 
ATOM     14  C   UNL     1      34.378 -35.814 -28.197  0.00  0.00    -0.069 C 
ATOM     15  C   UNL     1      33.171 -35.390 -28.607  0.00  0.00    -0.015 C 
ATOM     16  C   UNL     1      32.035 -36.284 -28.208  0.00  0.00    +0.038 C 
ATOM     17  N   UNL     1      32.093 -37.210 -27.304  0.00  0.00    -0.185 NA
ATOM     18  C   UNL     1      30.729 -36.189 -28.981  0.00  0.00    -0.012 C 
ATOM     19  C   UNL     1      30.454 -34.809 -29.548  0.00  0.00    -0.046 C 
ATOM     20  C   UNL     1      31.654 -34.308 -30.340  0.00  0.00    -0.033 C 
ATOM     21  C   UNL     1      32.869 -34.142 -29.413  0.00  0.00    +0.034 C 
ENDBRANCH   8  21
ENDBRANCH   7   8
ENDBRANCH   6   7
ENDBRANCH   5   6
ENDBRANCH   4   5
ENDBRANCH   3   4
ENDBRANCH   2   3
ENDBRANCH   1   2
BRANCH   1  22
ATOM     22  C   UNL     1      41.804 -36.161 -32.351  0.00  0.00    -0.053 C 
BRANCH  22  23
ATOM     23  C   UNL     1      42.471 -36.717 -31.091  0.00  0.00    -0.053 C 
BRANCH  23  24
ATOM     24  C   UNL     1      43.720 -35.910 -30.725  0.00  0.00    -0.052 C 
BRANCH  24  25
ATOM     25  C   UNL     1      44.979 -36.780 -30.776  0.00  0.00    -0.040 C 
BRANCH  25  26
ATOM     26  C   UNL     1      46.116 -36.253 -29.889  0.00  0.00    -0.004 C 
BRANCH  26  27
ATOM     27  N   UNL     1      46.247 -37.032 -28.659  0.00  0.00    -0.309 N 
ATOM     28  H   UNL     1      45.320 -37.375 -28.403  0.00  0.00    +0.000 HD
ATOM     29  H   UNL     1      46.654 -36.402 -27.967  0.00  0.00    +0.000 HD
BRANCH  27  30
ATOM     30  C   UNL     1      47.154 -38.189 -28.741  0.00  0.00    +0.034 C 
ATOM     31  C   UNL     1      48.447 -37.812 -29.499  0.00  0.00    -0.033 C 
ATOM     32  C   UNL     1      49.317 -39.038 -29.754  0.00  0.00    -0.046 C 
ATOM     33  C   UNL     1      48.562 -40.060 -30.604  0.00  0.00    -0.012 C 
ATOM     34  C   UNL     1      47.166 -40.311 -30.101  0.00  0.00    +0.024 A 
ATOM     35  N   UNL     1      46.552 -41.464 -30.538  0.00  0.00    -0.326 N 
ATOM     36  C   UNL     1      45.302 -41.876 -30.154  0.00  0.00    +0.249 A 
ATOM     37  O   UNL     1      44.778 -42.901 -30.573  0.00  0.00    -0.268 OA
ATOM     38  C   UNL     1      44.613 -41.007 -29.173  0.00  0.00    +0.003 A 
ATOM     39  C   UNL     1      45.213 -39.887 -28.746  0.00  0.00    -0.050 A 
ATOM     40  C   UNL     1      46.527 -39.489 -29.241  0.00  0.00    -0.011 A 
ATOM     41  H   UNL     1      47.046 -42.034 -31.172  0.00  0.00    +0.000 HD
ENDBRANCH  27  30
ENDBRANCH  26  27
ENDBRANCH  25  26
ENDBRANCH  24  25
ENDBRANCH  23  24
ENDBRANCH  22  23
ENDBRANCH   1  22
TORSDOF 15
ENDMDL
MODEL 7
REMARK VINA RESULT:    -7.338     16.322     20.327
REMARK INTER + INTRA:         -15.715
REMARK INTER:                 -12.153
REMARK INTRA:                  -3.562
REMARK UNBOUND:                -1.942
REMARK  Name = cpd60.pdb
REMARK  15 active torsions:
REMARK  status: ('A' for Active; 'I' for Inactive)
REMARK    1  A    between atoms: C_11  and  N_12
REMARK    2  A    between atoms: N_12  and  C_13
REMARK    3  A    between atoms: C_13  and  C_14
REMARK    4  A    between atoms: C_14  and  C_15
REMARK    5  A    between atoms: C_15  and  C_16
REMARK    6  A    between atoms: C_16  and  C_17
REMARK    7  A    between atoms: C_17  and  C_18
REMARK    8  A    between atoms: C_18  and  C_19
REMARK    9  A    between atoms: C_19  and  C_20
REMARK   10  A    between atoms: C_20  and  C_21
REMARK   11  A    between atoms: C_21  and  C_22
REMARK   12  A    between atoms: C_22  and  C_23
REMARK   13  A    between atoms: C_23  and  C_24
REMARK   14  A    between atoms: C_24  and  N_25
REMARK   15  A    between atoms: N_25  and  C_26
REMARK                            x       y       z     vdW  Elec       q    Type
REMARK                         _______ _______ _______ _____ _____    ______ ____
ROOT
ATOM      1  C   UNL     1      43.796 -20.237 -35.888  0.00  0.00    -0.053 C 
ENDROOT
BRANCH   1   2
ATOM      2  C   UNL     1      43.244 -19.763 -37.233  0.00  0.00    -0.053 C 
BRANCH   2   3
ATOM      3  C   UNL     1      43.509 -20.788 -38.336  0.00  0.00    -0.053 C 
BRANCH   3   4
ATOM      4  C   UNL     1      42.334 -20.871 -39.312  0.00  0.00    -0.053 C 
BRANCH   4   5
ATOM      5  C   UNL     1      41.658 -22.243 -39.251  0.00  0.00    -0.052 C 
BRANCH   5   6
ATOM      6  C   UNL     1      40.219 -22.130 -38.739  0.00  0.00    -0.040 C 
BRANCH   6   7
ATOM      7  C   UNL     1      40.095 -22.313 -37.219  0.00  0.00    -0.004 C 
BRANCH   7   8
ATOM      8  N   UNL     1      39.751 -21.062 -36.549  0.00  0.00    -0.309 N 
ATOM      9  H   UNL     1      40.350 -20.328 -36.929  0.00  0.00    +0.000 HD
ATOM     10  H   UNL     1      38.757 -20.916 -36.724  0.00  0.00    +0.000 HD
BRANCH   8  21
ATOM     11  O   UNL     1      40.674 -16.578 -32.075  0.00  0.00    -0.273 OA
ATOM     12  C   UNL     1      40.889 -17.530 -32.820  0.00  0.00    +0.240 C 
ATOM     13  C   UNL     1      40.914 -17.332 -34.329  0.00  0.00    +0.045 C 
ATOM     14  C   UNL     1      40.451 -18.558 -35.049  0.00  0.00    -0.069 C 
ATOM     15  C   UNL     1      40.428 -19.773 -34.476  0.00  0.00    -0.015 C 
ATOM     16  C   UNL     1      40.996 -19.811 -33.089  0.00  0.00    +0.038 C 
ATOM     17  N   UNL     1      41.216 -18.777 -32.341  0.00  0.00    -0.185 NA
ATOM     18  C   UNL     1      41.457 -21.147 -32.528  0.00  0.00    -0.012 C 
ATOM     19  C   UNL     1      40.688 -22.336 -33.073  0.00  0.00    -0.046 C 
ATOM     20  C   UNL     1      40.662 -22.304 -34.595  0.00  0.00    -0.033 C 
ATOM     21  C   UNL     1      39.906 -21.059 -35.086  0.00  0.00    +0.034 C 
ENDBRANCH   8  21
ENDBRANCH   7   8
ENDBRANCH   6   7
ENDBRANCH   5   6
ENDBRANCH   4   5
ENDBRANCH   3   4
ENDBRANCH   2   3
ENDBRANCH   1   2
BRANCH   1  22
ATOM     22  C   UNL     1      44.138 -19.054 -34.981  0.00  0.00    -0.053 C 
BRANCH  22  23
ATOM     23  C   UNL     1      44.905 -17.972 -35.743  0.00  0.00    -0.053 C 
BRANCH  23  24
ATOM     24  C   UNL     1      46.408 -18.063 -35.468  0.00  0.00    -0.052 C 
BRANCH  24  25
ATOM     25  C   UNL     1      47.218 -17.957 -36.763  0.00  0.00    -0.040 C 
BRANCH  25  26
ATOM     26  C   UNL     1      46.416 -18.348 -38.013  0.00  0.00    -0.004 C 
BRANCH  26  27
ATOM     27  N   UNL     1      47.222 -19.131 -38.949  0.00  0.00    -0.309 N 
ATOM     28  H   UNL     1      47.263 -20.090 -38.603  0.00  0.00    +0.000 HD
ATOM     29  H   UNL     1      48.132 -18.673 -38.990  0.00  0.00    +0.000 HD
BRANCH  27  30
ATOM     30  C   UNL     1      46.720 -19.168 -40.332  0.00  0.00    +0.034 C 
ATOM     31  C   UNL     1      45.352 -18.457 -40.433  0.00  0.00    -0.033 C 
ATOM     32  C   UNL     1      44.731 -18.640 -41.813  0.00  0.00    -0.046 C 
ATOM     33  C   UNL     1      44.505 -20.125 -42.102  0.00  0.00    -0.012 C 
ATOM     34  C   UNL     1      45.712 -20.966 -41.782  0.00  0.00    +0.024 A 
ATOM     35  N   UNL     1      45.757 -22.219 -42.353  0.00  0.00    -0.326 N 
ATOM     36  C   UNL     1      46.793 -23.105 -42.207  0.00  0.00    +0.249 A 
ATOM     37  O   UNL     1      46.797 -24.218 -42.718  0.00  0.00    -0.268 OA
ATOM     38  C   UNL     1      47.937 -22.627 -41.398  0.00  0.00    +0.003 A 
ATOM     39  C   UNL     1      47.893 -21.406 -40.847  0.00  0.00    -0.050 A 
ATOM     40  C   UNL     1      46.730 -20.539 -41.005  0.00  0.00    -0.011 A 
ATOM     41  H   UNL     1      44.991 -22.498 -42.906  0.00  0.00    +0.000 HD
ENDBRANCH  27  30
ENDBRANCH  26  27
ENDBRANCH  25  26
ENDBRANCH  24  25
ENDBRANCH  23  24
ENDBRANCH  22  23
ENDBRANCH   1  22
TORSDOF 15
ENDMDL
MODEL 8
REMARK VINA RESULT:    -7.083     16.230     19.081
REMARK INTER + INTRA:         -15.236
REMARK INTER:                 -11.335
REMARK INTRA:                  -3.901
REMARK UNBOUND:                -1.942
REMARK  Name = cpd60.pdb
REMARK  15 active torsions:
REMARK  status: ('A' for Active; 'I' for Inactive)
REMARK    1  A    between atoms: C_11  and  N_12
REMARK    2  A    between atoms: N_12  and  C_13
REMARK    3  A    between atoms: C_13  and  C_14
REMARK    4  A    between atoms: C_14  and  C_15
REMARK    5  A    between atoms: C_15  and  C_16
REMARK    6  A    between atoms: C_16  and  C_17
REMARK    7  A    between atoms: C_17  and  C_18
REMARK    8  A    between atoms: C_18  and  C_19
REMARK    9  A    between atoms: C_19  and  C_20
REMARK   10  A    between atoms: C_20  and  C_21
REMARK   11  A    between atoms: C_21  and  C_22
REMARK   12  A    between atoms: C_22  and  C_23
REMARK   13  A    between atoms: C_23  and  C_24
REMARK   14  A    between atoms: C_24  and  N_25
REMARK   15  A    between atoms: N_25  and  C_26
REMARK                            x       y       z     vdW  Elec       q    Type
REMARK                         _______ _______ _______ _____ _____    ______ ____
ROOT
ATOM      1  C   UNL     1      41.809 -21.866 -38.254  0.00  0.00    -0.053 C 
ENDROOT
BRANCH   1   2
ATOM      2  C   UNL     1      42.536 -21.546 -39.560  0.00  0.00    -0.053 C 
BRANCH   2   3
ATOM      3  C   UNL     1      42.377 -20.073 -39.939  0.00  0.00    -0.053 C 
BRANCH   3   4
ATOM      4  C   UNL     1      42.435 -19.172 -38.705  0.00  0.00    -0.053 C 
BRANCH   4   5
ATOM      5  C   UNL     1      42.337 -17.695 -39.092  0.00  0.00    -0.052 C 
BRANCH   5   6
ATOM      6  C   UNL     1      43.157 -17.395 -40.350  0.00  0.00    -0.040 C 
BRANCH   6   7
ATOM      7  C   UNL     1      44.554 -16.834 -40.051  0.00  0.00    -0.004 C 
BRANCH   7   8
ATOM      8  N   UNL     1      45.579 -17.459 -40.881  0.00  0.00    -0.309 N 
ATOM      9  H   UNL     1      45.137 -17.763 -41.749  0.00  0.00    +0.000 HD
ATOM     10  H   UNL     1      46.302 -16.752 -41.011  0.00  0.00    +0.000 HD
BRANCH   8  21
ATOM     11  O   UNL     1      46.505 -23.557 -42.598  0.00  0.00    -0.273 OA
ATOM     12  C   UNL     1      46.085 -22.578 -41.985  0.00  0.00    +0.240 C 
ATOM     13  C   UNL     1      45.199 -21.558 -42.686  0.00  0.00    +0.045 C 
ATOM     14  C   UNL     1      45.396 -20.186 -42.123  0.00  0.00    -0.069 C 
ATOM     15  C   UNL     1      45.943 -19.966 -40.915  0.00  0.00    -0.015 C 
ATOM     16  C   UNL     1      46.249 -21.213 -40.141  0.00  0.00    +0.038 C 
ATOM     17  N   UNL     1      46.301 -22.409 -40.638  0.00  0.00    -0.185 NA
ATOM     18  C   UNL     1      46.416 -21.111 -38.634  0.00  0.00    -0.012 C 
ATOM     19  C   UNL     1      46.952 -19.770 -38.168  0.00  0.00    -0.046 C 
ATOM     20  C   UNL     1      46.129 -18.632 -38.757  0.00  0.00    -0.033 C 
ATOM     21  C   UNL     1      46.258 -18.622 -40.288  0.00  0.00    +0.034 C 
ENDBRANCH   8  21
ENDBRANCH   7   8
ENDBRANCH   6   7
ENDBRANCH   5   6
ENDBRANCH   4   5
ENDBRANCH   3   4
ENDBRANCH   2   3
ENDBRANCH   1   2
BRANCH   1  22
ATOM     22  C   UNL     1      40.411 -22.426 -38.521  0.00  0.00    -0.053 C 
BRANCH  22  23
ATOM     23  C   UNL     1      39.331 -21.561 -37.867  0.00  0.00    -0.053 C 
BRANCH  23  24
ATOM     24  C   UNL     1      39.553 -21.448 -36.357  0.00  0.00    -0.052 C 
BRANCH  24  25
ATOM     25  C   UNL     1      39.376 -22.803 -35.665  0.00  0.00    -0.040 C 
BRANCH  25  26
ATOM     26  C   UNL     1      39.122 -22.684 -34.156  0.00  0.00    -0.004 C 
BRANCH  26  27
ATOM     27  N   UNL     1      40.371 -22.538 -33.408  0.00  0.00    -0.309 N 
ATOM     28  H   UNL     1      41.143 -22.740 -34.043  0.00  0.00    +0.000 HD
ATOM     29  H   UNL     1      40.307 -23.186 -32.623  0.00  0.00    +0.000 HD
BRANCH  27  30
ATOM     30  C   UNL     1      40.599 -21.207 -32.822  0.00  0.00    +0.034 C 
ATOM     31  C   UNL     1      39.258 -20.555 -32.415  0.00  0.00    -0.033 C 
ATOM     32  C   UNL     1      39.456 -19.109 -31.976  0.00  0.00    -0.046 C 
ATOM     33  C   UNL     1      40.047 -18.280 -33.118  0.00  0.00    -0.012 C 
ATOM     34  C   UNL     1      41.220 -18.958 -33.774  0.00  0.00    +0.024 A 
ATOM     35  N   UNL     1      42.049 -18.157 -34.529  0.00  0.00    -0.326 N 
ATOM     36  C   UNL     1      43.184 -18.589 -35.165  0.00  0.00    +0.249 A 
ATOM     37  O   UNL     1      43.893 -17.854 -35.840  0.00  0.00    -0.268 OA
ATOM     38  C   UNL     1      43.522 -20.018 -34.972  0.00  0.00    +0.003 A 
ATOM     39  C   UNL     1      42.717 -20.795 -34.235  0.00  0.00    -0.050 A 
ATOM     40  C   UNL     1      41.496 -20.272 -33.630  0.00  0.00    -0.011 A 
ATOM     41  H   UNL     1      41.810 -17.205 -34.617  0.00  0.00    +0.000 HD
ENDBRANCH  27  30
ENDBRANCH  26  27
ENDBRANCH  25  26
ENDBRANCH  24  25
ENDBRANCH  23  24
ENDBRANCH  22  23
ENDBRANCH   1  22
TORSDOF 15
ENDMDL
MODEL 9
REMARK VINA RESULT:    -7.055     16.338     20.161
REMARK INTER + INTRA:         -15.184
REMARK INTER:                 -12.257
REMARK INTRA:                  -2.926
REMARK UNBOUND:                -1.942
REMARK  Name = cpd60.pdb
REMARK  15 active torsions:
REMARK  status: ('A' for Active; 'I' for Inactive)
REMARK    1  A    between atoms: C_11  and  N_12
REMARK    2  A    between atoms: N_12  and  C_13
REMARK    3  A    between atoms: C_13  and  C_14
REMARK    4  A    between atoms: C_14  and  C_15
REMARK    5  A    between atoms: C_15  and  C_16
REMARK    6  A    between atoms: C_16  and  C_17
REMARK    7  A    between atoms: C_17  and  C_18
REMARK    8  A    between atoms: C_18  and  C_19
REMARK    9  A    between atoms: C_19  and  C_20
REMARK   10  A    between atoms: C_20  and  C_21
REMARK   11  A    between atoms: C_21  and  C_22
REMARK   12  A    between atoms: C_22  and  C_23
REMARK   13  A    between atoms: C_23  and  C_24
REMARK   14  A    between atoms: C_24  and  N_25
REMARK   15  A    between atoms: N_25  and  C_26
REMARK                            x       y       z     vdW  Elec       q    Type
REMARK                         _______ _______ _______ _____ _____    ______ ____
ROOT
ATOM      1  C   UNL     1      41.902 -19.691 -38.854  0.00  0.00    -0.053 C 
ENDROOT
BRANCH   1   2
ATOM      2  C   UNL     1      40.904 -20.708 -39.410  0.00  0.00    -0.053 C 
BRANCH   2   3
ATOM      3  C   UNL     1      40.758 -21.911 -38.477  0.00  0.00    -0.053 C 
BRANCH   3   4
ATOM      4  C   UNL     1      39.360 -21.969 -37.859  0.00  0.00    -0.053 C 
BRANCH   4   5
ATOM      5  C   UNL     1      39.424 -21.862 -36.333  0.00  0.00    -0.052 C 
BRANCH   5   6
ATOM      6  C   UNL     1      40.615 -22.645 -35.771  0.00  0.00    -0.040 C 
BRANCH   6   7
ATOM      7  C   UNL     1      40.595 -22.774 -34.242  0.00  0.00    -0.004 C 
BRANCH   7   8
ATOM      8  N   UNL     1      41.456 -21.783 -33.603  0.00  0.00    -0.309 N 
ATOM      9  H   UNL     1      41.636 -22.093 -32.648  0.00  0.00    +0.000 HD
ATOM     10  H   UNL     1      42.293 -21.726 -34.184  0.00  0.00    +0.000 HD
BRANCH   8  21
ATOM     11  O   UNL     1      43.968 -15.914 -33.124  0.00  0.00    -0.273 OA
ATOM     12  C   UNL     1      43.362 -16.941 -32.828  0.00  0.00    +0.240 C 
ATOM     13  C   UNL     1      44.107 -18.264 -32.715  0.00  0.00    +0.045 C 
ATOM     14  C   UNL     1      43.231 -19.418 -33.089  0.00  0.00    -0.069 C 
ATOM     15  C   UNL     1      41.889 -19.337 -33.105  0.00  0.00    -0.015 C 
ATOM     16  C   UNL     1      41.345 -18.026 -32.623  0.00  0.00    +0.038 C 
ATOM     17  N   UNL     1      42.030 -16.935 -32.488  0.00  0.00    -0.185 NA
ATOM     18  C   UNL     1      39.901 -17.968 -32.151  0.00  0.00    -0.012 C 
ATOM     19  C   UNL     1      38.991 -18.967 -32.842  0.00  0.00    -0.046 C 
ATOM     20  C   UNL     1      39.586 -20.367 -32.773  0.00  0.00    -0.033 C 
ATOM     21  C   UNL     1      40.917 -20.415 -33.541  0.00  0.00    +0.034 C 
ENDBRANCH   8  21
ENDBRANCH   7   8
ENDBRANCH   6   7
ENDBRANCH   5   6
ENDBRANCH   4   5
ENDBRANCH   3   4
ENDBRANCH   2   3
ENDBRANCH   1   2
BRANCH   1  22
ATOM     22  C   UNL     1      42.986 -20.376 -38.021  0.00  0.00    -0.053 C 
BRANCH  22  23
ATOM     23  C   UNL     1      43.493 -19.459 -36.906  0.00  0.00    -0.053 C 
BRANCH  23  24
ATOM     24  C   UNL     1      44.793 -19.994 -36.300  0.00  0.00    -0.052 C 
BRANCH  24  25
ATOM     25  C   UNL     1      45.945 -19.003 -36.492  0.00  0.00    -0.040 C 
BRANCH  25  26
ATOM     26  C   UNL     1      45.985 -18.387 -37.898  0.00  0.00    -0.004 C 
BRANCH  26  27
ATOM     27  N   UNL     1      46.871 -19.134 -38.790  0.00  0.00    -0.309 N 
ATOM     28  H   UNL     1      46.916 -20.097 -38.456  0.00  0.00    +0.000 HD
ATOM     29  H   UNL     1      47.770 -18.651 -38.765  0.00  0.00    +0.000 HD
BRANCH  27  30
ATOM     30  C   UNL     1      46.462 -19.161 -40.204  0.00  0.00    +0.034 C 
ATOM     31  C   UNL     1      45.085 -18.483 -40.383  0.00  0.00    -0.033 C 
ATOM     32  C   UNL     1      44.560 -18.661 -41.804  0.00  0.00    -0.046 C 
ATOM     33  C   UNL     1      44.392 -20.146 -42.128  0.00  0.00    -0.012 C 
ATOM     34  C   UNL     1      45.597 -20.961 -41.741  0.00  0.00    +0.024 A 
ATOM     35  N   UNL     1      45.713 -22.203 -42.326  0.00  0.00    -0.326 N 
ATOM     36  C   UNL     1      46.760 -23.065 -42.125  0.00  0.00    +0.249 A 
ATOM     37  O   UNL     1      46.826 -24.169 -42.651  0.00  0.00    -0.268 OA
ATOM     38  C   UNL     1      47.836 -22.570 -41.237  0.00  0.00    +0.003 A 
ATOM     39  C   UNL     1      47.724 -21.360 -40.672  0.00  0.00    -0.050 A 
ATOM     40  C   UNL     1      46.552 -20.520 -40.894  0.00  0.00    -0.011 A 
ATOM     41  H   UNL     1      44.992 -22.492 -42.932  0.00  0.00    +0.000 HD
ENDBRANCH  27  30
ENDBRANCH  26  27
ENDBRANCH  25  26
ENDBRANCH  24  25
ENDBRANCH  23  24
ENDBRANCH  22  23
ENDBRANCH   1  22
TORSDOF 15
ENDMDL
MODEL 10
REMARK VINA RESULT:    -6.961     15.976     20.187
REMARK INTER + INTRA:         -15.006
REMARK INTER:                 -11.067
REMARK INTRA:                  -3.939
REMARK UNBOUND:                -1.942
REMARK  Name = cpd60.pdb
REMARK  15 active torsions:
REMARK  status: ('A' for Active; 'I' for Inactive)
REMARK    1  A    between atoms: C_11  and  N_12
REMARK    2  A    between atoms: N_12  and  C_13
REMARK    3  A    between atoms: C_13  and  C_14
REMARK    4  A    between atoms: C_14  and  C_15
REMARK    5  A    between atoms: C_15  and  C_16
REMARK    6  A    between atoms: C_16  and  C_17
REMARK    7  A    between atoms: C_17  and  C_18
REMARK    8  A    between atoms: C_18  and  C_19
REMARK    9  A    between atoms: C_19  and  C_20
REMARK   10  A    between atoms: C_20  and  C_21
REMARK   11  A    between atoms: C_21  and  C_22
REMARK   12  A    between atoms: C_22  and  C_23
REMARK   13  A    between atoms: C_23  and  C_24
REMARK   14  A    between atoms: C_24  and  N_25
REMARK   15  A    between atoms: N_25  and  C_26
REMARK                            x       y       z     vdW  Elec       q    Type
REMARK                         _______ _______ _______ _____ _____    ______ ____
ROOT
ATOM      1  C   UNL     1      43.371 -19.433 -33.991  0.00  0.00    -0.053 C 
ENDROOT
BRANCH   1   2
ATOM      2  C   UNL     1      42.271 -19.530 -35.051  0.00  0.00    -0.053 C 
BRANCH   2   3
ATOM      3  C   UNL     1      42.553 -20.657 -36.044  0.00  0.00    -0.053 C 
BRANCH   3   4
ATOM      4  C   UNL     1      42.869 -20.106 -37.436  0.00  0.00    -0.053 C 
BRANCH   4   5
ATOM      5  C   UNL     1      42.555 -21.135 -38.524  0.00  0.00    -0.052 C 
BRANCH   5   6
ATOM      6  C   UNL     1      41.514 -22.152 -38.043  0.00  0.00    -0.040 C 
BRANCH   6   7
ATOM      7  C   UNL     1      40.282 -22.242 -38.954  0.00  0.00    -0.004 C 
BRANCH   7   8
ATOM      8  N   UNL     1      39.064 -21.830 -38.260  0.00  0.00    -0.309 N 
ATOM      9  H   UNL     1      38.436 -21.417 -38.949  0.00  0.00    +0.000 HD
ATOM     10  H   UNL     1      38.697 -22.673 -37.818  0.00  0.00    +0.000 HD
BRANCH   8  21
ATOM     11  O   UNL     1      39.417 -22.138 -31.876  0.00  0.00    -0.273 OA
ATOM     12  C   UNL     1      38.989 -21.891 -33.000  0.00  0.00    +0.240 C 
ATOM     13  C   UNL     1      38.630 -23.025 -33.950  0.00  0.00    +0.045 C 
ATOM     14  C   UNL     1      38.854 -22.635 -35.376  0.00  0.00    -0.069 C 
ATOM     15  C   UNL     1      38.946 -21.355 -35.775  0.00  0.00    -0.015 C 
ATOM     16  C   UNL     1      38.708 -20.351 -34.686  0.00  0.00    +0.038 C 
ATOM     17  N   UNL     1      38.717 -20.608 -33.417  0.00  0.00    -0.185 NA
ATOM     18  C   UNL     1      38.320 -18.934 -35.076  0.00  0.00    -0.012 C 
ATOM     19  C   UNL     1      38.884 -18.492 -36.413  0.00  0.00    -0.046 C 
ATOM     20  C   UNL     1      38.562 -19.517 -37.493  0.00  0.00    -0.033 C 
ATOM     21  C   UNL     1      39.248 -20.855 -37.174  0.00  0.00    +0.034 C 
ENDBRANCH   8  21
ENDBRANCH   7   8
ENDBRANCH   6   7
ENDBRANCH   5   6
ENDBRANCH   4   5
ENDBRANCH   3   4
ENDBRANCH   2   3
ENDBRANCH   1   2
BRANCH   1  22
ATOM     22  C   UNL     1      44.184 -18.148 -34.152  0.00  0.00    -0.053 C 
BRANCH  22  23
ATOM     23  C   UNL     1      45.383 -18.360 -35.078  0.00  0.00    -0.053 C 
BRANCH  23  24
ATOM     24  C   UNL     1      45.996 -19.749 -34.879  0.00  0.00    -0.052 C 
BRANCH  24  25
ATOM     25  C   UNL     1      46.533 -20.313 -36.198  0.00  0.00    -0.040 C 
BRANCH  25  26
ATOM     26  C   UNL     1      47.495 -19.357 -36.918  0.00  0.00    -0.004 C 
BRANCH  26  27
ATOM     27  N   UNL     1      47.623 -19.688 -38.337  0.00  0.00    -0.309 N 
ATOM     28  H   UNL     1      48.386 -20.358 -38.437  0.00  0.00    +0.000 HD
ATOM     29  H   UNL     1      47.790 -18.805 -38.819  0.00  0.00    +0.000 HD
BRANCH  27  30
ATOM     30  C   UNL     1      46.421 -20.271 -38.957  0.00  0.00    +0.034 C 
ATOM     31  C   UNL     1      46.778 -21.567 -39.720  0.00  0.00    -0.033 C 
ATOM     32  C   UNL     1      45.587 -22.086 -40.517  0.00  0.00    -0.046 C 
ATOM     33  C   UNL     1      45.142 -21.048 -41.549  0.00  0.00    -0.012 C 
ATOM     34  C   UNL     1      45.017 -19.667 -40.960  0.00  0.00    +0.024 A 
ATOM     35  N   UNL     1      44.270 -18.759 -41.678  0.00  0.00    -0.326 N 
ATOM     36  C   UNL     1      44.015 -17.472 -41.280  0.00  0.00    +0.249 A 
ATOM     37  O   UNL     1      43.357 -16.684 -41.948  0.00  0.00    -0.268 OA
ATOM     38  C   UNL     1      44.572 -17.085 -39.964  0.00  0.00    +0.003 A 
ATOM     39  C   UNL     1      45.296 -17.972 -39.266  0.00  0.00    -0.050 A 
ATOM     40  C   UNL     1      45.568 -19.309 -39.781  0.00  0.00    -0.011 A 
ATOM     41  H   UNL     1      43.892 -19.055 -42.538  0.00  0.00    +0.000 HD
ENDBRANCH  27  30
ENDBRANCH  26  27
ENDBRANCH  25  26
ENDBRANCH  24  25
ENDBRANCH  23  24
ENDBRANCH  22  23
ENDBRANCH   1  22
TORSDOF 15
ENDMDL
MODEL 11
REMARK VINA RESULT:    -6.854     16.053     20.183
REMARK INTER + INTRA:         -14.806
REMARK INTER:                 -11.998
REMARK INTRA:                  -2.808
REMARK UNBOUND:                -1.942
REMARK  Name = cpd60.pdb
REMARK  15 active torsions:
REMARK  status: ('A' for Active; 'I' for Inactive)
REMARK    1  A    between atoms: C_11  and  N_12
REMARK    2  A    between atoms: N_12  and  C_13
REMARK    3  A    between atoms: C_13  and  C_14
REMARK    4  A    between atoms: C_14  and  C_15
REMARK    5  A    between atoms: C_15  and  C_16
REMARK    6  A    between atoms: C_16  and  C_17
REMARK    7  A    between atoms: C_17  and  C_18
REMARK    8  A    between atoms: C_18  and  C_19
REMARK    9  A    between atoms: C_19  and  C_20
REMARK   10  A    between atoms: C_20  and  C_21
REMARK   11  A    between atoms: C_21  and  C_22
REMARK   12  A    between atoms: C_22  and  C_23
REMARK   13  A    between atoms: C_23  and  C_24
REMARK   14  A    between atoms: C_24  and  N_25
REMARK   15  A    between atoms: N_25  and  C_26
REMARK                            x       y       z     vdW  Elec       q    Type
REMARK                         _______ _______ _______ _____ _____    ______ ____
ROOT
ATOM      1  C   UNL     1      43.829 -16.698 -34.613  0.00  0.00    -0.053 C 
ENDROOT
BRANCH   1   2
ATOM      2  C   UNL     1      42.359 -16.330 -34.824  0.00  0.00    -0.053 C 
BRANCH   2   3
ATOM      3  C   UNL     1      41.920 -15.223 -33.866  0.00  0.00    -0.053 C 
BRANCH   3   4
ATOM      4  C   UNL     1      41.197 -15.797 -32.647  0.00  0.00    -0.053 C 
BRANCH   4   5
ATOM      5  C   UNL     1      39.927 -16.546 -33.057  0.00  0.00    -0.052 C 
BRANCH   5   6
ATOM      6  C   UNL     1      39.485 -17.528 -31.967  0.00  0.00    -0.040 C 
BRANCH   6   7
ATOM      7  C   UNL     1      38.528 -18.616 -32.475  0.00  0.00    -0.004 C 
BRANCH   7   8
ATOM      8  N   UNL     1      38.898 -19.083 -33.808  0.00  0.00    -0.309 N 
ATOM      9  H   UNL     1      38.044 -19.369 -34.288  0.00  0.00    +0.000 HD
ATOM     10  H   UNL     1      39.381 -18.303 -34.253  0.00  0.00    +0.000 HD
BRANCH   8  21
ATOM     11  O   UNL     1      41.207 -22.923 -38.379  0.00  0.00    -0.273 OA
ATOM     12  C   UNL     1      40.578 -22.546 -37.395  0.00  0.00    +0.240 C 
ATOM     13  C   UNL     1      39.467 -21.516 -37.543  0.00  0.00    +0.045 C 
ATOM     14  C   UNL     1      39.344 -20.665 -36.320  0.00  0.00    -0.069 C 
ATOM     15  C   UNL     1      39.841 -21.030 -35.126  0.00  0.00    -0.015 C 
ATOM     16  C   UNL     1      40.442 -22.404 -35.103  0.00  0.00    +0.038 C 
ATOM     17  N   UNL     1      40.766 -23.096 -36.149  0.00  0.00    -0.185 NA
ATOM     18  C   UNL     1      40.601 -23.106 -33.764  0.00  0.00    -0.012 C 
ATOM     19  C   UNL     1      40.813 -22.158 -32.598  0.00  0.00    -0.046 C 
ATOM     20  C   UNL     1      39.738 -21.080 -32.584  0.00  0.00    -0.033 C 
ATOM     21  C   UNL     1      39.839 -20.213 -33.849  0.00  0.00    +0.034 C 
ENDBRANCH   8  21
ENDBRANCH   7   8
ENDBRANCH   6   7
ENDBRANCH   5   6
ENDBRANCH   4   5
ENDBRANCH   3   4
ENDBRANCH   2   3
ENDBRANCH   1   2
BRANCH   1  22
ATOM     22  C   UNL     1      43.968 -18.070 -33.951  0.00  0.00    -0.053 C 
BRANCH  22  23
ATOM     23  C   UNL     1      42.893 -19.039 -34.448  0.00  0.00    -0.053 C 
BRANCH  23  24
ATOM     24  C   UNL     1      43.466 -20.021 -35.473  0.00  0.00    -0.052 C 
BRANCH  24  25
ATOM     25  C   UNL     1      43.045 -19.648 -36.898  0.00  0.00    -0.040 C 
BRANCH  25  26
ATOM     26  C   UNL     1      43.822 -20.413 -37.979  0.00  0.00    -0.004 C 
BRANCH  26  27
ATOM     27  N   UNL     1      45.132 -19.811 -38.229  0.00  0.00    -0.309 N 
ATOM     28  H   UNL     1      45.845 -20.447 -37.870  0.00  0.00    +0.000 HD
ATOM     29  H   UNL     1      45.120 -18.905 -37.762  0.00  0.00    +0.000 HD
BRANCH  27  30
ATOM     30  C   UNL     1      45.437 -19.537 -39.644  0.00  0.00    +0.034 C 
ATOM     31  C   UNL     1      44.306 -18.708 -40.292  0.00  0.00    -0.033 C 
ATOM     32  C   UNL     1      44.513 -18.569 -41.796  0.00  0.00    -0.046 C 
ATOM     33  C   UNL     1      44.520 -19.945 -42.463  0.00  0.00    -0.012 C 
ATOM     34  C   UNL     1      45.402 -20.930 -41.743  0.00  0.00    +0.024 A 
ATOM     35  N   UNL     1      45.782 -22.048 -42.453  0.00  0.00    -0.326 N 
ATOM     36  C   UNL     1      46.612 -23.030 -41.977  0.00  0.00    +0.249 A 
ATOM     37  O   UNL     1      46.920 -24.020 -42.629  0.00  0.00    -0.268 OA
ATOM     38  C   UNL     1      47.141 -22.815 -40.611  0.00  0.00    +0.003 A 
ATOM     39  C   UNL     1      46.774 -21.725 -39.923  0.00  0.00    -0.050 A 
ATOM     40  C   UNL     1      45.844 -20.748 -40.480  0.00  0.00    -0.011 A 
ATOM     41  H   UNL     1      45.432 -22.150 -43.368  0.00  0.00    +0.000 HD
ENDBRANCH  27  30
ENDBRANCH  26  27
ENDBRANCH  25  26
ENDBRANCH  24  25
ENDBRANCH  23  24
ENDBRANCH  22  23
ENDBRANCH   1  22
TORSDOF 15
ENDMDL
MODEL 12
REMARK VINA RESULT:    -6.712     16.234     20.386
REMARK INTER + INTRA:         -14.539
REMARK INTER:                 -11.743
REMARK INTRA:                  -2.796
REMARK UNBOUND:                -1.942
REMARK  Name = cpd60.pdb
REMARK  15 active torsions:
REMARK  status: ('A' for Active; 'I' for Inactive)
REMARK    1  A    between atoms: C_11  and  N_12
REMARK    2  A    between atoms: N_12  and  C_13
REMARK    3  A    between atoms: C_13  and  C_14
REMARK    4  A    between atoms: C_14  and  C_15
REMARK    5  A    between atoms: C_15  and  C_16
REMARK    6  A    between atoms: C_16  and  C_17
REMARK    7  A    between atoms: C_17  and  C_18
REMARK    8  A    between atoms: C_18  and  C_19
REMARK    9  A    between atoms: C_19  and  C_20
REMARK   10  A    between atoms: C_20  and  C_21
REMARK   11  A    between atoms: C_21  and  C_22
REMARK   12  A    between atoms: C_22  and  C_23
REMARK   13  A    between atoms: C_23  and  C_24
REMARK   14  A    between atoms: C_24  and  N_25
REMARK   15  A    between atoms: N_25  and  C_26
REMARK                            x       y       z     vdW  Elec       q    Type
REMARK                         _______ _______ _______ _____ _____    ______ ____
ROOT
ATOM      1  C   UNL     1      45.028 -18.304 -35.669  0.00  0.00    -0.053 C 
ENDROOT
BRANCH   1   2
ATOM      2  C   UNL     1      44.474 -17.015 -36.280  0.00  0.00    -0.053 C 
BRANCH   2   3
ATOM      3  C   UNL     1      44.901 -15.789 -35.473  0.00  0.00    -0.053 C 
BRANCH   3   4
ATOM      4  C   UNL     1      44.234 -15.769 -34.096  0.00  0.00    -0.053 C 
BRANCH   4   5
ATOM      5  C   UNL     1      42.714 -15.645 -34.218  0.00  0.00    -0.052 C 
BRANCH   5   6
ATOM      6  C   UNL     1      42.036 -15.768 -32.850  0.00  0.00    -0.040 C 
BRANCH   6   7
ATOM      7  C   UNL     1      40.701 -16.525 -32.894  0.00  0.00    -0.004 C 
BRANCH   7   8
ATOM      8  N   UNL     1      40.885 -17.959 -32.691  0.00  0.00    -0.309 N 
ATOM      9  H   UNL     1      41.774 -18.225 -33.115  0.00  0.00    +0.000 HD
ATOM     10  H   UNL     1      40.848 -18.105 -31.682  0.00  0.00    +0.000 HD
BRANCH   8  21
ATOM     11  O   UNL     1      39.643 -24.239 -32.652  0.00  0.00    -0.273 OA
ATOM     12  C   UNL     1      39.958 -23.125 -33.061  0.00  0.00    +0.240 C 
ATOM     13  C   UNL     1      41.209 -22.439 -32.532  0.00  0.00    +0.045 C 
ATOM     14  C   UNL     1      41.054 -20.951 -32.520  0.00  0.00    -0.069 C 
ATOM     15  C   UNL     1      40.130 -20.311 -33.257  0.00  0.00    -0.015 C 
ATOM     16  C   UNL     1      39.335 -21.204 -34.162  0.00  0.00    +0.038 C 
ATOM     17  N   UNL     1      39.272 -22.494 -34.072  0.00  0.00    -0.185 NA
ATOM     18  C   UNL     1      38.620 -20.582 -35.351  0.00  0.00    -0.012 C 
ATOM     19  C   UNL     1      38.189 -19.146 -35.122  0.00  0.00    -0.046 C 
ATOM     20  C   UNL     1      39.361 -18.309 -34.626  0.00  0.00    -0.033 C 
ATOM     21  C   UNL     1      39.837 -18.823 -33.259  0.00  0.00    +0.034 C 
ENDBRANCH   8  21
ENDBRANCH   7   8
ENDBRANCH   6   7
ENDBRANCH   5   6
ENDBRANCH   4   5
ENDBRANCH   3   4
ENDBRANCH   2   3
ENDBRANCH   1   2
BRANCH   1  22
ATOM     22  C   UNL     1      43.907 -19.170 -35.093  0.00  0.00    -0.053 C 
BRANCH  22  23
ATOM     23  C   UNL     1      42.609 -18.999 -35.885  0.00  0.00    -0.053 C 
BRANCH  23  24
ATOM     24  C   UNL     1      42.186 -20.314 -36.544  0.00  0.00    -0.052 C 
BRANCH  24  25
ATOM     25  C   UNL     1      41.976 -20.139 -38.051  0.00  0.00    -0.040 C 
BRANCH  25  26
ATOM     26  C   UNL     1      42.858 -21.068 -38.898  0.00  0.00    -0.004 C 
BRANCH  26  27
ATOM     27  N   UNL     1      44.268 -20.685 -38.828  0.00  0.00    -0.309 N 
ATOM     28  H   UNL     1      44.794 -21.484 -38.471  0.00  0.00    +0.000 HD
ATOM     29  H   UNL     1      44.309 -19.866 -38.221  0.00  0.00    +0.000 HD
BRANCH  27  30
ATOM     30  C   UNL     1      44.872 -20.276 -40.107  0.00  0.00    +0.034 C 
ATOM     31  C   UNL     1      43.800 -19.683 -41.048  0.00  0.00    -0.033 C 
ATOM     32  C   UNL     1      44.368 -19.422 -42.439  0.00  0.00    -0.046 C 
ATOM     33  C   UNL     1      44.864 -20.726 -43.065  0.00  0.00    -0.012 C 
ATOM     34  C   UNL     1      45.719 -21.529 -42.122  0.00  0.00    +0.024 A 
ATOM     35  N   UNL     1      46.518 -22.498 -42.690  0.00  0.00    -0.326 N 
ATOM     36  C   UNL     1      47.389 -23.297 -41.995  0.00  0.00    +0.249 A 
ATOM     37  O   UNL     1      48.076 -24.159 -42.529  0.00  0.00    -0.268 OA
ATOM     38  C   UNL     1      47.469 -23.043 -40.538  0.00  0.00    +0.003 A 
ATOM     39  C   UNL     1      46.693 -22.098 -39.988  0.00  0.00    -0.050 A 
ATOM     40  C   UNL     1      45.752 -21.322 -40.788  0.00  0.00    -0.011 A 
ATOM     41  H   UNL     1      46.460 -22.625 -43.665  0.00  0.00    +0.000 HD
ENDBRANCH  27  30
ENDBRANCH  26  27
ENDBRANCH  25  26
ENDBRANCH  24  25
ENDBRANCH  23  24
ENDBRANCH  22  23
ENDBRANCH   1  22
TORSDOF 15
ENDMDL
MODEL 13
REMARK VINA RESULT:    -6.627     16.823     20.798
REMARK INTER + INTRA:         -14.380
REMARK INTER:                 -10.077
REMARK INTRA:                  -4.304
REMARK UNBOUND:                -1.942
REMARK  Name = cpd60.pdb
REMARK  15 active torsions:
REMARK  status: ('A' for Active; 'I' for Inactive)
REMARK    1  A    between atoms: C_11  and  N_12
REMARK    2  A    between atoms: N_12  and  C_13
REMARK    3  A    between atoms: C_13  and  C_14
REMARK    4  A    between atoms: C_14  and  C_15
REMARK    5  A    between atoms: C_15  and  C_16
REMARK    6  A    between atoms: C_16  and  C_17
REMARK    7  A    between atoms: C_17  and  C_18
REMARK    8  A    between atoms: C_18  and  C_19
REMARK    9  A    between atoms: C_19  and  C_20
REMARK   10  A    between atoms: C_20  and  C_21
REMARK   11  A    between atoms: C_21  and  C_22
REMARK   12  A    between atoms: C_22  and  C_23
REMARK   13  A    between atoms: C_23  and  C_24
REMARK   14  A    between atoms: C_24  and  N_25
REMARK   15  A    between atoms: N_25  and  C_26
REMARK                            x       y       z     vdW  Elec       q    Type
REMARK                         _______ _______ _______ _____ _____    ______ ____
ROOT
ATOM      1  C   UNL     1      45.658 -19.207 -37.274  0.00  0.00    -0.053 C 
ENDROOT
BRANCH   1   2
ATOM      2  C   UNL     1      45.404 -17.828 -36.663  0.00  0.00    -0.053 C 
BRANCH   2   3
ATOM      3  C   UNL     1      45.994 -17.726 -35.256  0.00  0.00    -0.053 C 
BRANCH   3   4
ATOM      4  C   UNL     1      44.894 -17.637 -34.197  0.00  0.00    -0.053 C 
BRANCH   4   5
ATOM      5  C   UNL     1      44.237 -18.999 -33.965  0.00  0.00    -0.052 C 
BRANCH   5   6
ATOM      6  C   UNL     1      43.132 -18.910 -32.908  0.00  0.00    -0.040 C 
BRANCH   6   7
ATOM      7  C   UNL     1      41.892 -18.139 -33.383  0.00  0.00    -0.004 C 
BRANCH   7   8
ATOM      8  N   UNL     1      41.762 -18.166 -34.837  0.00  0.00    -0.309 N 
ATOM      9  H   UNL     1      41.904 -17.216 -35.182  0.00  0.00    +0.000 HD
ATOM     10  H   UNL     1      42.459 -18.833 -35.167  0.00  0.00    +0.000 HD
BRANCH   8  21
ATOM     11  O   UNL     1      39.194 -23.900 -36.063  0.00  0.00    -0.273 OA
ATOM     12  C   UNL     1      39.673 -22.784 -36.246  0.00  0.00    +0.240 C 
ATOM     13  C   UNL     1      41.115 -22.495 -35.855  0.00  0.00    +0.045 C 
ATOM     14  C   UNL     1      41.295 -21.067 -35.446  0.00  0.00    -0.069 C 
ATOM     15  C   UNL     1      40.425 -20.100 -35.780  0.00  0.00    -0.015 C 
ATOM     16  C   UNL     1      39.313 -20.553 -36.678  0.00  0.00    +0.038 C 
ATOM     17  N   UNL     1      38.983 -21.787 -36.896  0.00  0.00    -0.185 NA
ATOM     18  C   UNL     1      38.563 -19.510 -37.491  0.00  0.00    -0.012 C 
ATOM     19  C   UNL     1      38.503 -18.147 -36.828  0.00  0.00    -0.046 C 
ATOM     20  C   UNL     1      39.896 -17.693 -36.414  0.00  0.00    -0.033 C 
ATOM     21  C   UNL     1      40.471 -18.645 -35.353  0.00  0.00    +0.034 C 
ENDBRANCH   8  21
ENDBRANCH   7   8
ENDBRANCH   6   7
ENDBRANCH   5   6
ENDBRANCH   4   5
ENDBRANCH   3   4
ENDBRANCH   2   3
ENDBRANCH   1   2
BRANCH   1  22
ATOM     22  C   UNL     1      44.345 -19.910 -37.619  0.00  0.00    -0.053 C 
BRANCH  22  23
ATOM     23  C   UNL     1      43.233 -18.901 -37.912  0.00  0.00    -0.053 C 
BRANCH  23  24
ATOM     24  C   UNL     1      42.263 -19.438 -38.967  0.00  0.00    -0.052 C 
BRANCH  24  25
ATOM     25  C   UNL     1      42.239 -20.969 -38.973  0.00  0.00    -0.040 C 
BRANCH  25  26
ATOM     26  C   UNL     1      42.906 -21.581 -40.214  0.00  0.00    -0.004 C 
BRANCH  26  27
ATOM     27  N   UNL     1      43.166 -20.571 -41.239  0.00  0.00    -0.309 N 
ATOM     28  H   UNL     1      42.949 -19.656 -40.843  0.00  0.00    +0.000 HD
ATOM     29  H   UNL     1      42.580 -20.820 -42.036  0.00  0.00    +0.000 HD
BRANCH  27  30
ATOM     30  C   UNL     1      44.548 -20.532 -41.746  0.00  0.00    +0.034 C 
ATOM     31  C   UNL     1      45.232 -21.905 -41.563  0.00  0.00    -0.033 C 
ATOM     32  C   UNL     1      46.715 -21.837 -41.912  0.00  0.00    -0.046 C 
ATOM     33  C   UNL     1      47.431 -20.837 -41.002  0.00  0.00    -0.012 C 
ATOM     34  C   UNL     1      46.697 -19.528 -40.893  0.00  0.00    +0.024 A 
ATOM     35  N   UNL     1      47.424 -18.452 -40.432  0.00  0.00    -0.326 N 
ATOM     36  C   UNL     1      46.935 -17.177 -40.306  0.00  0.00    +0.249 A 
ATOM     37  O   UNL     1      47.604 -16.244 -39.879  0.00  0.00    -0.268 OA
ATOM     38  C   UNL     1      45.532 -16.982 -40.739  0.00  0.00    +0.003 A 
ATOM     39  C   UNL     1      44.828 -18.029 -41.191  0.00  0.00    -0.050 A 
ATOM     40  C   UNL     1      45.403 -19.368 -41.248  0.00  0.00    -0.011 A 
ATOM     41  H   UNL     1      48.361 -18.609 -40.175  0.00  0.00    +0.000 HD
ENDBRANCH  27  30
ENDBRANCH  26  27
ENDBRANCH  25  26
ENDBRANCH  24  25
ENDBRANCH  23  24
ENDBRANCH  22  23
ENDBRANCH   1  22
TORSDOF 15
ENDMDL
MODEL 14
REMARK VINA RESULT:    -6.626     16.031     18.896
REMARK INTER + INTRA:         -14.379
REMARK INTER:                 -11.261
REMARK INTRA:                  -3.118
REMARK UNBOUND:                -1.942
REMARK  Name = cpd60.pdb
REMARK  15 active torsions:
REMARK  status: ('A' for Active; 'I' for Inactive)
REMARK    1  A    between atoms: C_11  and  N_12
REMARK    2  A    between atoms: N_12  and  C_13
REMARK    3  A    between atoms: C_13  and  C_14
REMARK    4  A    between atoms: C_14  and  C_15
REMARK    5  A    between atoms: C_15  and  C_16
REMARK    6  A    between atoms: C_16  and  C_17
REMARK    7  A    between atoms: C_17  and  C_18
REMARK    8  A    between atoms: C_18  and  C_19
REMARK    9  A    between atoms: C_19  and  C_20
REMARK   10  A    between atoms: C_20  and  C_21
REMARK   11  A    between atoms: C_21  and  C_22
REMARK   12  A    between atoms: C_22  and  C_23
REMARK   13  A    between atoms: C_23  and  C_24
REMARK   14  A    between atoms: C_24  and  N_25
REMARK   15  A    between atoms: N_25  and  C_26
REMARK                            x       y       z     vdW  Elec       q    Type
REMARK                         _______ _______ _______ _____ _____    ______ ____
ROOT
ATOM      1  C   UNL     1      43.644 -16.235 -36.951  0.00  0.00    -0.053 C 
ENDROOT
BRANCH   1   2
ATOM      2  C   UNL     1      44.743 -15.865 -35.953  0.00  0.00    -0.053 C 
BRANCH   2   3
ATOM      3  C   UNL     1      45.958 -16.781 -36.099  0.00  0.00    -0.053 C 
BRANCH   3   4
ATOM      4  C   UNL     1      46.150 -17.652 -34.856  0.00  0.00    -0.053 C 
BRANCH   4   5
ATOM      5  C   UNL     1      46.013 -19.138 -35.194  0.00  0.00    -0.052 C 
BRANCH   5   6
ATOM      6  C   UNL     1      46.869 -19.513 -36.408  0.00  0.00    -0.040 C 
BRANCH   6   7
ATOM      7  C   UNL     1      46.147 -20.429 -37.406  0.00  0.00    -0.004 C 
BRANCH   7   8
ATOM      8  N   UNL     1      46.120 -19.854 -38.748  0.00  0.00    -0.309 N 
ATOM      9  H   UNL     1      45.612 -18.971 -38.701  0.00  0.00    +0.000 HD
ATOM     10  H   UNL     1      47.095 -19.755 -39.029  0.00  0.00    +0.000 HD
BRANCH   8  21
ATOM     11  O   UNL     1      48.007 -24.697 -42.485  0.00  0.00    -0.273 OA
ATOM     12  C   UNL     1      47.644 -23.576 -42.140  0.00  0.00    +0.240 C 
ATOM     13  C   UNL     1      48.522 -22.735 -41.224  0.00  0.00    +0.045 C 
ATOM     14  C   UNL     1      47.701 -21.837 -40.353  0.00  0.00    -0.069 C 
ATOM     15  C   UNL     1      46.427 -21.516 -40.636  0.00  0.00    -0.015 C 
ATOM     16  C   UNL     1      45.932 -22.053 -41.945  0.00  0.00    +0.038 C 
ATOM     17  N   UNL     1      46.503 -22.990 -42.634  0.00  0.00    -0.185 NA
ATOM     18  C   UNL     1      44.722 -21.395 -42.590  0.00  0.00    -0.012 C 
ATOM     19  C   UNL     1      43.750 -20.793 -41.593  0.00  0.00    -0.046 C 
ATOM     20  C   UNL     1      44.482 -19.876 -40.621  0.00  0.00    -0.033 C 
ATOM     21  C   UNL     1      45.487 -20.685 -39.785  0.00  0.00    +0.034 C 
ENDBRANCH   8  21
ENDBRANCH   7   8
ENDBRANCH   6   7
ENDBRANCH   5   6
ENDBRANCH   4   5
ENDBRANCH   3   4
ENDBRANCH   2   3
ENDBRANCH   1   2
BRANCH   1  22
ATOM     22  C   UNL     1      42.357 -16.644 -36.233  0.00  0.00    -0.053 C 
BRANCH  22  23
ATOM     23  C   UNL     1      42.205 -18.165 -36.188  0.00  0.00    -0.053 C 
BRANCH  23  24
ATOM     24  C   UNL     1      42.878 -18.824 -37.395  0.00  0.00    -0.052 C 
BRANCH  24  25
ATOM     25  C   UNL     1      42.524 -20.311 -37.486  0.00  0.00    -0.040 C 
BRANCH  25  26
ATOM     26  C   UNL     1      41.461 -20.617 -38.551  0.00  0.00    -0.004 C 
BRANCH  26  27
ATOM     27  N   UNL     1      40.538 -21.662 -38.108  0.00  0.00    -0.309 N 
ATOM     28  H   UNL     1      41.074 -22.353 -37.583  0.00  0.00    +0.000 HD
ATOM     29  H   UNL     1      40.108 -22.035 -38.954  0.00  0.00    +0.000 HD
BRANCH  27  30
ATOM     30  C   UNL     1      39.430 -21.201 -37.256  0.00  0.00    +0.034 C 
ATOM     31  C   UNL     1      39.084 -19.727 -37.565  0.00  0.00    -0.033 C 
ATOM     32  C   UNL     1      38.066 -19.177 -36.572  0.00  0.00    -0.046 C 
ATOM     33  C   UNL     1      38.624 -19.234 -35.149  0.00  0.00    -0.012 C 
ATOM     34  C   UNL     1      39.238 -20.569 -34.824  0.00  0.00    +0.024 A 
ATOM     35  N   UNL     1      39.413 -20.856 -33.487  0.00  0.00    -0.326 N 
ATOM     36  C   UNL     1      39.918 -22.035 -33.003  0.00  0.00    +0.249 A 
ATOM     37  O   UNL     1      40.074 -22.254 -31.807  0.00  0.00    -0.268 OA
ATOM     38  C   UNL     1      40.254 -23.056 -34.021  0.00  0.00    +0.003 A 
ATOM     39  C   UNL     1      40.080 -22.776 -35.320  0.00  0.00    -0.050 A 
ATOM     40  C   UNL     1      39.584 -21.477 -35.761  0.00  0.00    -0.011 A 
ATOM     41  H   UNL     1      39.157 -20.165 -32.834  0.00  0.00    +0.000 HD
ENDBRANCH  27  30
ENDBRANCH  26  27
ENDBRANCH  25  26
ENDBRANCH  24  25
ENDBRANCH  23  24
ENDBRANCH  22  23
ENDBRANCH   1  22
TORSDOF 15
ENDMDL
MODEL 15
REMARK VINA RESULT:    -6.542     16.512     19.305
REMARK INTER + INTRA:         -14.221
REMARK INTER:                 -10.383
REMARK INTRA:                  -3.837
REMARK UNBOUND:                -1.942
REMARK  Name = cpd60.pdb
REMARK  15 active torsions:
REMARK  status: ('A' for Active; 'I' for Inactive)
REMARK    1  A    between atoms: C_11  and  N_12
REMARK    2  A    between atoms: N_12  and  C_13
REMARK    3  A    between atoms: C_13  and  C_14
REMARK    4  A    between atoms: C_14  and  C_15
REMARK    5  A    between atoms: C_15  and  C_16
REMARK    6  A    between atoms: C_16  and  C_17
REMARK    7  A    between atoms: C_17  and  C_18
REMARK    8  A    between atoms: C_18  and  C_19
REMARK    9  A    between atoms: C_19  and  C_20
REMARK   10  A    between atoms: C_20  and  C_21
REMARK   11  A    between atoms: C_21  and  C_22
REMARK   12  A    between atoms: C_22  and  C_23
REMARK   13  A    between atoms: C_23  and  C_24
REMARK   14  A    between atoms: C_24  and  N_25
REMARK   15  A    between atoms: N_25  and  C_26
REMARK                            x       y       z     vdW  Elec       q    Type
REMARK                         _______ _______ _______ _____ _____    ______ ____
ROOT
ATOM      1  C   UNL     1      42.698 -16.218 -40.472  0.00  0.00    -0.053 C 
ENDROOT
BRANCH   1   2
ATOM      2  C   UNL     1      43.981 -17.050 -40.440  0.00  0.00    -0.053 C 
BRANCH   2   3
ATOM      3  C   UNL     1      44.198 -17.790 -41.759  0.00  0.00    -0.053 C 
BRANCH   3   4
ATOM      4  C   UNL     1      44.425 -19.285 -41.528  0.00  0.00    -0.053 C 
BRANCH   4   5
ATOM      5  C   UNL     1      43.698 -19.768 -40.272  0.00  0.00    -0.052 C 
BRANCH   5   6
ATOM      6  C   UNL     1      44.549 -20.772 -39.489  0.00  0.00    -0.040 C 
BRANCH   6   7
ATOM      7  C   UNL     1      46.060 -20.549 -39.650  0.00  0.00    -0.004 C 
BRANCH   7   8
ATOM      8  N   UNL     1      46.766 -20.685 -38.379  0.00  0.00    -0.309 N 
ATOM      9  H   UNL     1      46.256 -21.359 -37.808  0.00  0.00    +0.000 HD
ATOM     10  H   UNL     1      47.714 -20.977 -38.617  0.00  0.00    +0.000 HD
BRANCH   8  21
ATOM     11  O   UNL     1      44.782 -18.670 -32.636  0.00  0.00    -0.273 OA
ATOM     12  C   UNL     1      44.885 -18.766 -33.856  0.00  0.00    +0.240 C 
ATOM     13  C   UNL     1      44.482 -20.054 -34.560  0.00  0.00    +0.045 C 
ATOM     14  C   UNL     1      45.306 -20.286 -35.787  0.00  0.00    -0.069 C 
ATOM     15  C   UNL     1      45.990 -19.306 -36.401  0.00  0.00    -0.015 C 
ATOM     16  C   UNL     1      45.781 -17.944 -35.809  0.00  0.00    +0.038 C 
ATOM     17  N   UNL     1      45.263 -17.705 -34.646  0.00  0.00    -0.185 NA
ATOM     18  C   UNL     1      46.098 -16.725 -36.660  0.00  0.00    -0.012 C 
ATOM     19  C   UNL     1      47.204 -16.958 -37.672  0.00  0.00    -0.046 C 
ATOM     20  C   UNL     1      46.918 -18.205 -38.498  0.00  0.00    -0.033 C 
ATOM     21  C   UNL     1      46.912 -19.448 -37.596  0.00  0.00    +0.034 C 
ENDBRANCH   8  21
ENDBRANCH   7   8
ENDBRANCH   6   7
ENDBRANCH   5   6
ENDBRANCH   4   5
ENDBRANCH   3   4
ENDBRANCH   2   3
ENDBRANCH   1   2
BRANCH   1  22
ATOM     22  C   UNL     1      41.988 -16.242 -39.117  0.00  0.00    -0.053 C 
BRANCH  22  23
ATOM     23  C   UNL     1      42.835 -16.948 -38.057  0.00  0.00    -0.053 C 
BRANCH  23  24
ATOM     24  C   UNL     1      42.429 -16.514 -36.646  0.00  0.00    -0.052 C 
BRANCH  24  25
ATOM     25  C   UNL     1      41.909 -17.700 -35.828  0.00  0.00    -0.040 C 
BRANCH  25  26
ATOM     26  C   UNL     1      40.543 -17.435 -35.179  0.00  0.00    -0.004 C 
BRANCH  26  27
ATOM     27  N   UNL     1      39.594 -18.513 -35.458  0.00  0.00    -0.309 N 
ATOM     28  H   UNL     1      38.951 -18.188 -36.181  0.00  0.00    +0.000 HD
ATOM     29  H   UNL     1      39.138 -18.724 -34.570  0.00  0.00    +0.000 HD
BRANCH  27  30
ATOM     30  C   UNL     1      40.196 -19.775 -35.918  0.00  0.00    +0.034 C 
ATOM     31  C   UNL     1      39.576 -20.214 -37.264  0.00  0.00    -0.033 C 
ATOM     32  C   UNL     1      40.052 -21.606 -37.666  0.00  0.00    -0.046 C 
ATOM     33  C   UNL     1      39.645 -22.634 -36.610  0.00  0.00    -0.012 C 
ATOM     34  C   UNL     1      39.968 -22.183 -35.211  0.00  0.00    +0.024 A 
ATOM     35  N   UNL     1      40.005 -23.163 -34.242  0.00  0.00    -0.326 N 
ATOM     36  C   UNL     1      40.321 -22.946 -32.926  0.00  0.00    +0.249 A 
ATOM     37  O   UNL     1      40.332 -23.837 -32.086  0.00  0.00    -0.268 OA
ATOM     38  C   UNL     1      40.673 -21.552 -32.572  0.00  0.00    +0.003 A 
ATOM     39  C   UNL     1      40.640 -20.601 -33.516  0.00  0.00    -0.050 A 
ATOM     40  C   UNL     1      40.243 -20.901 -34.887  0.00  0.00    -0.011 A 
ATOM     41  H   UNL     1      39.790 -24.084 -34.515  0.00  0.00    +0.000 HD
ENDBRANCH  27  30
ENDBRANCH  26  27
ENDBRANCH  25  26
ENDBRANCH  24  25
ENDBRANCH  23  24
ENDBRANCH  22  23
ENDBRANCH   1  22
TORSDOF 15
ENDMDL
MODEL 16
REMARK VINA RESULT:    -6.523     16.154     19.136
REMARK INTER + INTRA:         -14.184
REMARK INTER:                 -10.664
REMARK INTRA:                  -3.520
REMARK UNBOUND:                -1.942
REMARK  Name = cpd60.pdb
REMARK  15 active torsions:
REMARK  status: ('A' for Active; 'I' for Inactive)
REMARK    1  A    between atoms: C_11  and  N_12
REMARK    2  A    between atoms: N_12  and  C_13
REMARK    3  A    between atoms: C_13  and  C_14
REMARK    4  A    between atoms: C_14  and  C_15
REMARK    5  A    between atoms: C_15  and  C_16
REMARK    6  A    between atoms: C_16  and  C_17
REMARK    7  A    between atoms: C_17  and  C_18
REMARK    8  A    between atoms: C_18  and  C_19
REMARK    9  A    between atoms: C_19  and  C_20
REMARK   10  A    between atoms: C_20  and  C_21
REMARK   11  A    between atoms: C_21  and  C_22
REMARK   12  A    between atoms: C_22  and  C_23
REMARK   13  A    between atoms: C_23  and  C_24
REMARK   14  A    between atoms: C_24  and  N_25
REMARK   15  A    between atoms: N_25  and  C_26
REMARK                            x       y       z     vdW  Elec       q    Type
REMARK                         _______ _______ _______ _____ _____    ______ ____
ROOT
ATOM      1  C   UNL     1      42.419 -17.898 -32.756  0.00  0.00    -0.053 C 
ENDROOT
BRANCH   1   2
ATOM      2  C   UNL     1      43.412 -18.754 -33.545  0.00  0.00    -0.053 C 
BRANCH   2   3
ATOM      3  C   UNL     1      44.739 -18.023 -33.747  0.00  0.00    -0.053 C 
BRANCH   3   4
ATOM      4  C   UNL     1      45.221 -18.134 -35.194  0.00  0.00    -0.053 C 
BRANCH   4   5
ATOM      5  C   UNL     1      46.207 -19.292 -35.363  0.00  0.00    -0.052 C 
BRANCH   5   6
ATOM      6  C   UNL     1      46.079 -19.933 -36.749  0.00  0.00    -0.040 C 
BRANCH   6   7
ATOM      7  C   UNL     1      47.145 -19.454 -37.744  0.00  0.00    -0.004 C 
BRANCH   7   8
ATOM      8  N   UNL     1      46.565 -19.126 -39.044  0.00  0.00    -0.309 N 
ATOM      9  H   UNL     1      45.977 -18.301 -38.925  0.00  0.00    +0.000 HD
ATOM     10  H   UNL     1      47.354 -18.985 -39.674  0.00  0.00    +0.000 HD
BRANCH   8  21
ATOM     11  O   UNL     1      47.747 -24.376 -42.512  0.00  0.00    -0.273 OA
ATOM     12  C   UNL     1      47.365 -23.247 -42.216  0.00  0.00    +0.240 C 
ATOM     13  C   UNL     1      48.370 -22.181 -41.801  0.00  0.00    +0.045 C 
ATOM     14  C   UNL     1      47.774 -21.218 -40.824  0.00  0.00    -0.069 C 
ATOM     15  C   UNL     1      46.448 -21.066 -40.669  0.00  0.00    -0.015 C 
ATOM     16  C   UNL     1      45.619 -21.870 -41.626  0.00  0.00    +0.038 C 
ATOM     17  N   UNL     1      46.051 -22.861 -42.340  0.00  0.00    -0.185 NA
ATOM     18  C   UNL     1      44.181 -21.447 -41.874  0.00  0.00    -0.012 C 
ATOM     19  C   UNL     1      43.530 -20.764 -40.686  0.00  0.00    -0.046 C 
ATOM     20  C   UNL     1      44.408 -19.627 -40.178  0.00  0.00    -0.033 C 
ATOM     21  C   UNL     1      45.744 -20.181 -39.659  0.00  0.00    +0.034 C 
ENDBRANCH   8  21
ENDBRANCH   7   8
ENDBRANCH   6   7
ENDBRANCH   5   6
ENDBRANCH   4   5
ENDBRANCH   3   4
ENDBRANCH   2   3
ENDBRANCH   1   2
BRANCH   1  22
ATOM     22  C   UNL     1      41.713 -16.889 -33.663  0.00  0.00    -0.053 C 
BRANCH  22  23
ATOM     23  C   UNL     1      40.408 -16.394 -33.036  0.00  0.00    -0.053 C 
BRANCH  23  24
ATOM     24  C   UNL     1      39.372 -16.057 -34.111  0.00  0.00    -0.052 C 
BRANCH  24  25
ATOM     25  C   UNL     1      39.821 -16.548 -35.491  0.00  0.00    -0.040 C 
BRANCH  25  26
ATOM     26  C   UNL     1      38.695 -17.217 -36.292  0.00  0.00    -0.004 C 
BRANCH  26  27
ATOM     27  N   UNL     1      38.943 -18.646 -36.482  0.00  0.00    -0.309 N 
ATOM     28  H   UNL     1      38.794 -18.863 -37.468  0.00  0.00    +0.000 HD
ATOM     29  H   UNL     1      38.299 -19.130 -35.856  0.00  0.00    +0.000 HD
BRANCH  27  30
ATOM     30  C   UNL     1      40.293 -19.104 -36.114  0.00  0.00    +0.034 C 
ATOM     31  C   UNL     1      41.087 -19.522 -37.372  0.00  0.00    -0.033 C 
ATOM     32  C   UNL     1      42.417 -20.168 -36.999  0.00  0.00    -0.046 C 
ATOM     33  C   UNL     1      42.182 -21.424 -36.159  0.00  0.00    -0.012 C 
ATOM     34  C   UNL     1      41.200 -21.196 -35.041  0.00  0.00    +0.024 A 
ATOM     35  N   UNL     1      41.211 -22.116 -34.016  0.00  0.00    -0.326 N 
ATOM     36  C   UNL     1      40.418 -22.049 -32.899  0.00  0.00    +0.249 A 
ATOM     37  O   UNL     1      40.442 -22.892 -32.011  0.00  0.00    -0.268 OA
ATOM     38  C   UNL     1      39.527 -20.869 -32.815  0.00  0.00    +0.003 A 
ATOM     39  C   UNL     1      39.521 -19.973 -33.812  0.00  0.00    -0.050 A 
ATOM     40  C   UNL     1      40.359 -20.141 -34.994  0.00  0.00    -0.011 A 
ATOM     41  H   UNL     1      41.832 -22.877 -34.090  0.00  0.00    +0.000 HD
ENDBRANCH  27  30
ENDBRANCH  26  27
ENDBRANCH  25  26
ENDBRANCH  24  25
ENDBRANCH  23  24
ENDBRANCH  22  23
ENDBRANCH   1  22
TORSDOF 15
ENDMDL
MODEL 17
REMARK VINA RESULT:    -6.451     17.627     20.449
REMARK INTER + INTRA:         -14.050
REMARK INTER:                  -9.722
REMARK INTRA:                  -4.328
REMARK UNBOUND:                -1.942
REMARK  Name = cpd60.pdb
REMARK  15 active torsions:
REMARK  status: ('A' for Active; 'I' for Inactive)
REMARK    1  A    between atoms: C_11  and  N_12
REMARK    2  A    between atoms: N_12  and  C_13
REMARK    3  A    between atoms: C_13  and  C_14
REMARK    4  A    between atoms: C_14  and  C_15
REMARK    5  A    between atoms: C_15  and  C_16
REMARK    6  A    between atoms: C_16  and  C_17
REMARK    7  A    between atoms: C_17  and  C_18
REMARK    8  A    between atoms: C_18  and  C_19
REMARK    9  A    between atoms: C_19  and  C_20
REMARK   10  A    between atoms: C_20  and  C_21
REMARK   11  A    between atoms: C_21  and  C_22
REMARK   12  A    between atoms: C_22  and  C_23
REMARK   13  A    between atoms: C_23  and  C_24
REMARK   14  A    between atoms: C_24  and  N_25
REMARK   15  A    between atoms: N_25  and  C_26
REMARK                            x       y       z     vdW  Elec       q    Type
REMARK                         _______ _______ _______ _____ _____    ______ ____
ROOT
ATOM      1  C   UNL     1      45.795 -18.553 -37.416  0.00  0.00    -0.053 C 
ENDROOT
BRANCH   1   2
ATOM      2  C   UNL     1      46.045 -19.966 -36.885  0.00  0.00    -0.053 C 
BRANCH   2   3
ATOM      3  C   UNL     1      46.247 -20.962 -38.027  0.00  0.00    -0.053 C 
BRANCH   3   4
ATOM      4  C   UNL     1      47.065 -20.347 -39.164  0.00  0.00    -0.053 C 
BRANCH   4   5
ATOM      5  C   UNL     1      46.620 -20.889 -40.524  0.00  0.00    -0.052 C 
BRANCH   5   6
ATOM      6  C   UNL     1      45.149 -21.315 -40.497  0.00  0.00    -0.040 C 
BRANCH   6   7
ATOM      7  C   UNL     1      44.236 -20.414 -41.340  0.00  0.00    -0.004 C 
BRANCH   7   8
ATOM      8  N   UNL     1      44.915 -19.189 -41.753  0.00  0.00    -0.309 N 
ATOM      9  H   UNL     1      45.892 -19.262 -41.471  0.00  0.00    +0.000 HD
ATOM     10  H   UNL     1      44.780 -19.122 -42.762  0.00  0.00    +0.000 HD
BRANCH   8  21
ATOM     11  O   UNL     1      47.374 -13.547 -39.992  0.00  0.00    -0.273 OA
ATOM     12  C   UNL     1      46.852 -14.657 -39.915  0.00  0.00    +0.240 C 
ATOM     13  C   UNL     1      47.626 -15.898 -40.334  0.00  0.00    +0.045 C 
ATOM     14  C   UNL     1      46.715 -16.954 -40.875  0.00  0.00    -0.069 C 
ATOM     15  C   UNL     1      45.393 -16.969 -40.632  0.00  0.00    -0.015 C 
ATOM     16  C   UNL     1      44.927 -15.895 -39.693  0.00  0.00    +0.038 C 
ATOM     17  N   UNL     1      45.608 -14.845 -39.361  0.00  0.00    -0.185 NA
ATOM     18  C   UNL     1      43.597 -16.080 -38.981  0.00  0.00    -0.012 C 
ATOM     19  C   UNL     1      42.591 -16.899 -39.768  0.00  0.00    -0.046 C 
ATOM     20  C   UNL     1      43.211 -18.212 -40.225  0.00  0.00    -0.033 C 
ATOM     21  C   UNL     1      44.374 -17.941 -41.192  0.00  0.00    +0.034 C 
ENDBRANCH   8  21
ENDBRANCH   7   8
ENDBRANCH   6   7
ENDBRANCH   5   6
ENDBRANCH   4   5
ENDBRANCH   3   4
ENDBRANCH   2   3
ENDBRANCH   1   2
BRANCH   1  22
ATOM     22  C   UNL     1      46.863 -17.577 -36.920  0.00  0.00    -0.053 C 
BRANCH  22  23
ATOM     23  C   UNL     1      46.253 -16.484 -36.041  0.00  0.00    -0.053 C 
BRANCH  23  24
ATOM     24  C   UNL     1      44.798 -16.805 -35.690  0.00  0.00    -0.052 C 
BRANCH  24  25
ATOM     25  C   UNL     1      44.624 -17.016 -34.183  0.00  0.00    -0.040 C 
BRANCH  25  26
ATOM     26  C   UNL     1      44.087 -18.409 -33.824  0.00  0.00    -0.004 C 
BRANCH  26  27
ATOM     27  N   UNL     1      42.802 -18.675 -34.469  0.00  0.00    -0.309 N 
ATOM     28  H   UNL     1      42.615 -17.916 -35.125  0.00  0.00    +0.000 HD
ATOM     29  H   UNL     1      42.117 -18.742 -33.716  0.00  0.00    +0.000 HD
BRANCH  27  30
ATOM     30  C   UNL     1      42.721 -19.946 -35.208  0.00  0.00    +0.034 C 
ATOM     31  C   UNL     1      42.474 -19.685 -36.711  0.00  0.00    -0.033 C 
ATOM     32  C   UNL     1      42.206 -20.984 -37.463  0.00  0.00    -0.046 C 
ATOM     33  C   UNL     1      40.964 -21.678 -36.902  0.00  0.00    -0.012 C 
ATOM     34  C   UNL     1      40.974 -21.752 -35.398  0.00  0.00    +0.024 A 
ATOM     35  N   UNL     1      40.126 -22.673 -34.823  0.00  0.00    -0.326 N 
ATOM     36  C   UNL     1      40.029 -22.908 -33.476  0.00  0.00    +0.249 A 
ATOM     37  O   UNL     1      39.255 -23.726 -32.994  0.00  0.00    -0.268 OA
ATOM     38  C   UNL     1      40.943 -22.118 -32.619  0.00  0.00    +0.003 A 
ATOM     39  C   UNL     1      41.770 -21.225 -33.181  0.00  0.00    -0.050 A 
ATOM     40  C   UNL     1      41.778 -20.995 -34.622  0.00  0.00    -0.011 A 
ATOM     41  H   UNL     1      39.549 -23.201 -35.421  0.00  0.00    +0.000 HD
ENDBRANCH  27  30
ENDBRANCH  26  27
ENDBRANCH  25  26
ENDBRANCH  24  25
ENDBRANCH  23  24
ENDBRANCH  22  23
ENDBRANCH   1  22
TORSDOF 15
ENDMDL
MODEL 18
REMARK VINA RESULT:    -6.439     16.589     20.748
REMARK INTER + INTRA:         -14.028
REMARK INTER:                  -9.682
REMARK INTRA:                  -4.346
REMARK UNBOUND:                -1.942
REMARK  Name = cpd60.pdb
REMARK  15 active torsions:
REMARK  status: ('A' for Active; 'I' for Inactive)
REMARK    1  A    between atoms: C_11  and  N_12
REMARK    2  A    between atoms: N_12  and  C_13
REMARK    3  A    between atoms: C_13  and  C_14
REMARK    4  A    between atoms: C_14  and  C_15
REMARK    5  A    between atoms: C_15  and  C_16
REMARK    6  A    between atoms: C_16  and  C_17
REMARK    7  A    between atoms: C_17  and  C_18
REMARK    8  A    between atoms: C_18  and  C_19
REMARK    9  A    between atoms: C_19  and  C_20
REMARK   10  A    between atoms: C_20  and  C_21
REMARK   11  A    between atoms: C_21  and  C_22
REMARK   12  A    between atoms: C_22  and  C_23
REMARK   13  A    between atoms: C_23  and  C_24
REMARK   14  A    between atoms: C_24  and  N_25
REMARK   15  A    between atoms: N_25  and  C_26
REMARK                            x       y       z     vdW  Elec       q    Type
REMARK                         _______ _______ _______ _____ _____    ______ ____
ROOT
ATOM      1  C   UNL     1      40.361 -18.352 -38.231  0.00  0.00    -0.053 C 
ENDROOT
BRANCH   1   2
ATOM      2  C   UNL     1      39.553 -18.261 -36.935  0.00  0.00    -0.053 C 
BRANCH   2   3
ATOM      3  C   UNL     1      40.077 -17.146 -36.030  0.00  0.00    -0.053 C 
BRANCH   3   4
ATOM      4  C   UNL     1      40.762 -17.716 -34.786  0.00  0.00    -0.053 C 
BRANCH   4   5
ATOM      5  C   UNL     1      42.219 -17.259 -34.698  0.00  0.00    -0.052 C 
BRANCH   5   6
ATOM      6  C   UNL     1      43.080 -18.287 -33.956  0.00  0.00    -0.040 C 
BRANCH   6   7
ATOM      7  C   UNL     1      42.320 -19.038 -32.854  0.00  0.00    -0.004 C 
BRANCH   7   8
ATOM      8  N   UNL     1      42.478 -20.485 -32.976  0.00  0.00    -0.309 N 
ATOM      9  H   UNL     1      43.243 -20.662 -33.628  0.00  0.00    +0.000 HD
ATOM     10  H   UNL     1      42.652 -20.827 -32.031  0.00  0.00    +0.000 HD
BRANCH   8  21
ATOM     11  O   UNL     1      40.687 -23.096 -38.539  0.00  0.00    -0.273 OA
ATOM     12  C   UNL     1      40.721 -22.335 -37.577  0.00  0.00    +0.240 C 
ATOM     13  C   UNL     1      41.945 -21.465 -37.329  0.00  0.00    +0.045 C 
ATOM     14  C   UNL     1      42.151 -21.213 -35.869  0.00  0.00    -0.069 C 
ATOM     15  C   UNL     1      41.174 -21.369 -34.960  0.00  0.00    -0.015 C 
ATOM     16  C   UNL     1      39.838 -21.721 -35.543  0.00  0.00    +0.038 C 
ATOM     17  N   UNL     1      39.638 -22.152 -36.748  0.00  0.00    -0.185 NA
ATOM     18  C   UNL     1      38.591 -21.465 -34.712  0.00  0.00    -0.012 C 
ATOM     19  C   UNL     1      38.823 -21.565 -33.216  0.00  0.00    -0.046 C 
ATOM     20  C   UNL     1      40.006 -20.701 -32.800  0.00  0.00    -0.033 C 
ATOM     21  C   UNL     1      41.296 -21.217 -33.456  0.00  0.00    +0.034 C 
ENDBRANCH   8  21
ENDBRANCH   7   8
ENDBRANCH   6   7
ENDBRANCH   5   6
ENDBRANCH   4   5
ENDBRANCH   3   4
ENDBRANCH   2   3
ENDBRANCH   1   2
BRANCH   1  22
ATOM     22  C   UNL     1      41.013 -17.012 -38.573  0.00  0.00    -0.053 C 
BRANCH  22  23
ATOM     23  C   UNL     1      42.226 -17.200 -39.486  0.00  0.00    -0.053 C 
BRANCH  23  24
ATOM     24  C   UNL     1      43.178 -18.261 -38.928  0.00  0.00    -0.052 C 
BRANCH  24  25
ATOM     25  C   UNL     1      43.566 -19.281 -40.003  0.00  0.00    -0.040 C 
BRANCH  25  26
ATOM     26  C   UNL     1      44.630 -20.282 -39.531  0.00  0.00    -0.004 C 
BRANCH  26  27
ATOM     27  N   UNL     1      45.981 -19.738 -39.668  0.00  0.00    -0.309 N 
ATOM     28  H   UNL     1      45.912 -18.838 -40.143  0.00  0.00    +0.000 HD
ATOM     29  H   UNL     1      46.515 -20.435 -40.188  0.00  0.00    +0.000 HD
BRANCH  27  30
ATOM     30  C   UNL     1      46.706 -19.531 -38.403  0.00  0.00    +0.034 C 
ATOM     31  C   UNL     1      46.108 -20.413 -37.284  0.00  0.00    -0.033 C 
ATOM     32  C   UNL     1      46.722 -20.081 -35.928  0.00  0.00    -0.046 C 
ATOM     33  C   UNL     1      46.451 -18.622 -35.563  0.00  0.00    -0.012 C 
ATOM     34  C   UNL     1      46.753 -17.677 -36.696  0.00  0.00    +0.024 A 
ATOM     35  N   UNL     1      46.915 -16.350 -36.364  0.00  0.00    -0.326 N 
ATOM     36  C   UNL     1      47.232 -15.357 -37.254  0.00  0.00    +0.249 A 
ATOM     37  O   UNL     1      47.356 -14.182 -36.928  0.00  0.00    -0.268 OA
ATOM     38  C   UNL     1      47.439 -15.792 -38.654  0.00  0.00    +0.003 A 
ATOM     39  C   UNL     1      47.285 -17.084 -38.974  0.00  0.00    -0.050 A 
ATOM     40  C   UNL     1      46.895 -18.076 -37.978  0.00  0.00    -0.011 A 
ATOM     41  H   UNL     1      46.795 -16.097 -35.419  0.00  0.00    +0.000 HD
ENDBRANCH  27  30
ENDBRANCH  26  27
ENDBRANCH  25  26
ENDBRANCH  24  25
ENDBRANCH  23  24
ENDBRANCH  22  23
ENDBRANCH   1  22
TORSDOF 15
ENDMDL
MODEL 19
REMARK VINA RESULT:    -6.399     16.980     19.742
REMARK INTER + INTRA:         -13.952
REMARK INTER:                  -9.363
REMARK INTRA:                  -4.588
REMARK UNBOUND:                -1.942
REMARK  Name = cpd60.pdb
REMARK  15 active torsions:
REMARK  status: ('A' for Active; 'I' for Inactive)
REMARK    1  A    between atoms: C_11  and  N_12
REMARK    2  A    between atoms: N_12  and  C_13
REMARK    3  A    between atoms: C_13  and  C_14
REMARK    4  A    between atoms: C_14  and  C_15
REMARK    5  A    between atoms: C_15  and  C_16
REMARK    6  A    between atoms: C_16  and  C_17
REMARK    7  A    between atoms: C_17  and  C_18
REMARK    8  A    between atoms: C_18  and  C_19
REMARK    9  A    between atoms: C_19  and  C_20
REMARK   10  A    between atoms: C_20  and  C_21
REMARK   11  A    between atoms: C_21  and  C_22
REMARK   12  A    between atoms: C_22  and  C_23
REMARK   13  A    between atoms: C_23  and  C_24
REMARK   14  A    between atoms: C_24  and  N_25
REMARK   15  A    between atoms: N_25  and  C_26
REMARK                            x       y       z     vdW  Elec       q    Type
REMARK                         _______ _______ _______ _____ _____    ______ ____
ROOT
ATOM      1  C   UNL     1      43.337 -21.031 -39.231  0.00  0.00    -0.053 C 
ENDROOT
BRANCH   1   2
ATOM      2  C   UNL     1      44.069 -19.688 -39.225  0.00  0.00    -0.053 C 
BRANCH   2   3
ATOM      3  C   UNL     1      44.321 -19.185 -40.646  0.00  0.00    -0.053 C 
BRANCH   3   4
ATOM      4  C   UNL     1      45.114 -17.877 -40.641  0.00  0.00    -0.053 C 
BRANCH   4   5
ATOM      5  C   UNL     1      44.181 -16.663 -40.614  0.00  0.00    -0.052 C 
BRANCH   5   6
ATOM      6  C   UNL     1      44.090 -16.066 -39.206  0.00  0.00    -0.040 C 
BRANCH   6   7
ATOM      7  C   UNL     1      45.242 -15.108 -38.872  0.00  0.00    -0.004 C 
BRANCH   7   8
ATOM      8  N   UNL     1      45.825 -15.396 -37.565  0.00  0.00    -0.309 N 
ATOM      9  H   UNL     1      46.785 -15.053 -37.567  0.00  0.00    +0.000 HD
ATOM     10  H   UNL     1      45.222 -14.934 -36.883  0.00  0.00    +0.000 HD
BRANCH   8  21
ATOM     11  O   UNL     1      43.625 -18.813 -32.618  0.00  0.00    -0.273 OA
ATOM     12  C   UNL     1      44.410 -18.260 -33.385  0.00  0.00    +0.240 C 
ATOM     13  C   UNL     1      44.410 -16.743 -33.517  0.00  0.00    +0.045 C 
ATOM     14  C   UNL     1      44.809 -16.315 -34.894  0.00  0.00    -0.069 C 
ATOM     15  C   UNL     1      45.472 -17.120 -35.742  0.00  0.00    -0.015 C 
ATOM     16  C   UNL     1      45.862 -18.445 -35.158  0.00  0.00    +0.038 C 
ATOM     17  N   UNL     1      45.378 -18.954 -34.070  0.00  0.00    -0.185 NA
ATOM     18  C   UNL     1      46.986 -19.227 -35.817  0.00  0.00    -0.012 C 
ATOM     19  C   UNL     1      47.106 -18.985 -37.310  0.00  0.00    -0.046 C 
ATOM     20  C   UNL     1      47.165 -17.492 -37.605  0.00  0.00    -0.033 C 
ATOM     21  C   UNL     1      45.853 -16.815 -37.178  0.00  0.00    +0.034 C 
ENDBRANCH   8  21
ENDBRANCH   7   8
ENDBRANCH   6   7
ENDBRANCH   5   6
ENDBRANCH   4   5
ENDBRANCH   3   4
ENDBRANCH   2   3
ENDBRANCH   1   2
BRANCH   1  22
ATOM     22  C   UNL     1      42.108 -20.988 -40.141  0.00  0.00    -0.053 C 
BRANCH  22  23
ATOM     23  C   UNL     1      40.814 -20.935 -39.326  0.00  0.00    -0.053 C 
BRANCH  23  24
ATOM     24  C   UNL     1      40.543 -22.271 -38.630  0.00  0.00    -0.052 C 
BRANCH  24  25
ATOM     25  C   UNL     1      39.539 -22.109 -37.486  0.00  0.00    -0.040 C 
BRANCH  25  26
ATOM     26  C   UNL     1      40.018 -22.732 -36.167  0.00  0.00    -0.004 C 
BRANCH  26  27
ATOM     27  N   UNL     1      41.375 -22.305 -35.830  0.00  0.00    -0.309 N 
ATOM     28  H   UNL     1      41.774 -21.847 -36.650  0.00  0.00    +0.000 HD
ATOM     29  H   UNL     1      41.876 -23.149 -35.550  0.00  0.00    +0.000 HD
BRANCH  27  30
ATOM     30  C   UNL     1      41.478 -21.375 -34.693  0.00  0.00    +0.034 C 
ATOM     31  C   UNL     1      40.509 -21.790 -33.563  0.00  0.00    -0.033 C 
ATOM     32  C   UNL     1      40.466 -20.742 -32.456  0.00  0.00    -0.046 C 
ATOM     33  C   UNL     1      39.984 -19.401 -33.011  0.00  0.00    -0.012 C 
ATOM     34  C   UNL     1      40.689 -19.017 -34.285  0.00  0.00    +0.024 A 
ATOM     35  N   UNL     1      40.620 -17.690 -34.649  0.00  0.00    -0.326 N 
ATOM     36  C   UNL     1      41.232 -17.151 -35.751  0.00  0.00    +0.249 A 
ATOM     37  O   UNL     1      41.140 -15.968 -36.055  0.00  0.00    -0.268 OA
ATOM     38  C   UNL     1      42.041 -18.091 -36.560  0.00  0.00    +0.003 A 
ATOM     39  C   UNL     1      42.109 -19.381 -36.202  0.00  0.00    -0.050 A 
ATOM     40  C   UNL     1      41.387 -19.891 -35.041  0.00  0.00    -0.011 A 
ATOM     41  H   UNL     1      40.094 -17.084 -34.076  0.00  0.00    +0.000 HD
ENDBRANCH  27  30
ENDBRANCH  26  27
ENDBRANCH  25  26
ENDBRANCH  24  25
ENDBRANCH  23  24
ENDBRANCH  22  23
ENDBRANCH   1  22
TORSDOF 15
ENDMDL
MODEL 20
REMARK VINA RESULT:    -6.108     16.196     20.454
REMARK INTER + INTRA:         -13.406
REMARK INTER:                  -9.175
REMARK INTRA:                  -4.230
REMARK UNBOUND:                -1.942
REMARK  Name = cpd60.pdb
REMARK  15 active torsions:
REMARK  status: ('A' for Active; 'I' for Inactive)
REMARK    1  A    between atoms: C_11  and  N_12
REMARK    2  A    between atoms: N_12  and  C_13
REMARK    3  A    between atoms: C_13  and  C_14
REMARK    4  A    between atoms: C_14  and  C_15
REMARK    5  A    between atoms: C_15  and  C_16
REMARK    6  A    between atoms: C_16  and  C_17
REMARK    7  A    between atoms: C_17  and  C_18
REMARK    8  A    between atoms: C_18  and  C_19
REMARK    9  A    between atoms: C_19  and  C_20
REMARK   10  A    between atoms: C_20  and  C_21
REMARK   11  A    between atoms: C_21  and  C_22
REMARK   12  A    between atoms: C_22  and  C_23
REMARK   13  A    between atoms: C_23  and  C_24
REMARK   14  A    between atoms: C_24  and  N_25
REMARK   15  A    between atoms: N_25  and  C_26
REMARK                            x       y       z     vdW  Elec       q    Type
REMARK                         _______ _______ _______ _____ _____    ______ ____
ROOT
ATOM      1  C   UNL     1      43.483 -20.929 -36.580  0.00  0.00    -0.053 C 
ENDROOT
BRANCH   1   2
ATOM      2  C   UNL     1      44.243 -19.921 -35.717  0.00  0.00    -0.053 C 
BRANCH   2   3
ATOM      3  C   UNL     1      43.285 -19.026 -34.931  0.00  0.00    -0.053 C 
BRANCH   3   4
ATOM      4  C   UNL     1      43.469 -17.553 -35.301  0.00  0.00    -0.053 C 
BRANCH   4   5
ATOM      5  C   UNL     1      43.350 -16.653 -34.069  0.00  0.00    -0.052 C 
BRANCH   5   6
ATOM      6  C   UNL     1      42.419 -17.269 -33.020  0.00  0.00    -0.040 C 
BRANCH   6   7
ATOM      7  C   UNL     1      40.941 -16.907 -33.225  0.00  0.00    -0.004 C 
BRANCH   7   8
ATOM      8  N   UNL     1      40.061 -17.738 -32.409  0.00  0.00    -0.309 N 
ATOM      9  H   UNL     1      40.645 -18.295 -31.785  0.00  0.00    +0.000 HD
ATOM     10  H   UNL     1      39.437 -17.092 -31.925  0.00  0.00    +0.000 HD
BRANCH   8  21
ATOM     11  O   UNL     1      39.779 -24.081 -33.229  0.00  0.00    -0.273 OA
ATOM     12  C   UNL     1      39.943 -22.888 -33.475  0.00  0.00    +0.240 C 
ATOM     13  C   UNL     1      41.048 -22.107 -32.779  0.00  0.00    +0.045 C 
ATOM     14  C   UNL     1      40.670 -20.671 -32.596  0.00  0.00    -0.069 C 
ATOM     15  C   UNL     1      39.699 -20.078 -33.311  0.00  0.00    -0.015 C 
ATOM     16  C   UNL     1      39.096 -20.948 -34.373  0.00  0.00    +0.038 C 
ATOM     17  N   UNL     1      39.223 -22.235 -34.447  0.00  0.00    -0.185 NA
ATOM     18  C   UNL     1      38.358 -20.284 -35.524  0.00  0.00    -0.012 C 
ATOM     19  C   UNL     1      37.704 -18.966 -35.152  0.00  0.00    -0.046 C 
ATOM     20  C   UNL     1      38.709 -18.044 -34.476  0.00  0.00    -0.033 C 
ATOM     21  C   UNL     1      39.186 -18.660 -33.151  0.00  0.00    +0.034 C 
ENDBRANCH   8  21
ENDBRANCH   7   8
ENDBRANCH   6   7
ENDBRANCH   5   6
ENDBRANCH   4   5
ENDBRANCH   3   4
ENDBRANCH   2   3
ENDBRANCH   1   2
BRANCH   1  22
ATOM     22  C   UNL     1      41.970 -20.758 -36.429  0.00  0.00    -0.053 C 
BRANCH  22  23
ATOM     23  C   UNL     1      41.224 -21.305 -37.648  0.00  0.00    -0.053 C 
BRANCH  23  24
ATOM     24  C   UNL     1      40.997 -20.210 -38.693  0.00  0.00    -0.052 C 
BRANCH  24  25
ATOM     25  C   UNL     1      40.970 -18.821 -38.047  0.00  0.00    -0.040 C 
BRANCH  25  26
ATOM     26  C   UNL     1      41.601 -17.732 -38.927  0.00  0.00    -0.004 C 
BRANCH  26  27
ATOM     27  N   UNL     1      42.733 -18.248 -39.696  0.00  0.00    -0.309 N 
ATOM     28  H   UNL     1      42.873 -17.635 -40.500  0.00  0.00    +0.000 HD
ATOM     29  H   UNL     1      42.488 -19.205 -39.951  0.00  0.00    +0.000 HD
BRANCH  27  30
ATOM     30  C   UNL     1      44.005 -18.333 -38.960  0.00  0.00    +0.034 C 
ATOM     31  C   UNL     1      44.587 -16.922 -38.717  0.00  0.00    -0.033 C 
ATOM     32  C   UNL     1      45.988 -16.996 -38.120  0.00  0.00    -0.046 C 
ATOM     33  C   UNL     1      46.935 -17.730 -39.070  0.00  0.00    -0.012 C 
ATOM     34  C   UNL     1      46.348 -19.016 -39.588  0.00  0.00    +0.024 A 
ATOM     35  N   UNL     1      47.235 -19.926 -40.122  0.00  0.00    -0.326 N 
ATOM     36  C   UNL     1      46.889 -21.161 -40.604  0.00  0.00    +0.249 A 
ATOM     37  O   UNL     1      47.701 -21.942 -41.085  0.00  0.00    -0.268 OA
ATOM     38  C   UNL     1      45.456 -21.516 -40.492  0.00  0.00    +0.003 A 
ATOM     39  C   UNL     1      44.595 -20.632 -39.969  0.00  0.00    -0.050 A 
ATOM     40  C   UNL     1      45.032 -19.313 -39.524  0.00  0.00    -0.011 A 
ATOM     41  H   UNL     1      48.185 -19.670 -40.160  0.00  0.00    +0.000 HD
ENDBRANCH  27  30
ENDBRANCH  26  27
ENDBRANCH  25  26
ENDBRANCH  24  25
ENDBRANCH  23  24
ENDBRANCH  22  23
ENDBRANCH   1  22
TORSDOF 15
ENDMDL
