REMARK  Name = cpd60.pdb
REMARK  15 active torsions:
REMARK  status: ('A' for Active; 'I' for Inactive)
REMARK    1  A    between atoms: C_11  and  N_12
REMARK    2  A    between atoms: N_12  and  C_13
REMARK    3  A    between atoms: C_13  and  C_14
REMARK    4  A    between atoms: C_14  and  C_15
REMARK    5  A    between atoms: C_15  and  C_16
REMARK    6  A    between atoms: C_16  and  C_17
REMARK    7  A    between atoms: C_17  and  C_18
REMARK    8  A    between atoms: C_18  and  C_19
REMARK    9  A    between atoms: C_19  and  C_20
REMARK   10  A    between atoms: C_20  and  C_21
REMARK   11  A    between atoms: C_21  and  C_22
REMARK   12  A    between atoms: C_22  and  C_23
REMARK   13  A    between atoms: C_23  and  C_24
REMARK   14  A    between atoms: C_24  and  N_25
REMARK   15  A    between atoms: N_25  and  C_26
REMARK                            x       y       z     vdW  Elec       q    Type
REMARK                         _______ _______ _______ _____ _____    ______ ____
ROOT
ATOM      1  C   UNL     1      -5.900   1.724  -0.219  0.00  0.00    -0.053 C 
ENDROOT
BRANCH   1   2
ATOM      2  C   UNL     1      -6.992   0.724   0.166  0.00  0.00    -0.053 C 
BRANCH   2   3
ATOM      3  C   UNL     1      -8.385   1.333   0.008  0.00  0.00    -0.053 C 
BRANCH   3   4
ATOM      4  C   UNL     1      -9.477   0.328   0.379  0.00  0.00    -0.053 C 
BRANCH   4   5
ATOM      5  C   UNL     1     -10.870   0.946   0.239  0.00  0.00    -0.052 C 
BRANCH   5   6
ATOM      6  C   UNL     1     -11.964  -0.064   0.599  0.00  0.00    -0.040 C 
BRANCH   6   7
ATOM      7  C   UNL     1     -13.376   0.539   0.602  0.00  0.00    -0.004 C 
BRANCH   7   8
ATOM      8  N   UNL     1     -13.816   0.895  -0.744  0.00  0.00    -0.309 N 
ATOM      9  H   UNL     1     -13.079   1.451  -1.178  0.00  0.00    +0.000 HD
ATOM     10  H   UNL     1     -14.002   0.012  -1.219  0.00  0.00    +0.000 HD
BRANCH   8  21
ATOM     11  O   UNL     1     -15.387   7.090  -0.379  0.00  0.00    -0.273 OA
ATOM     12  C   UNL     1     -15.289   5.902  -0.083  0.00  0.00    +0.240 C 
ATOM     13  C   UNL     1     -13.922   5.290   0.188  0.00  0.00    +0.045 C 
ATOM     14  C   UNL     1     -13.883   3.846  -0.200  0.00  0.00    -0.069 C 
ATOM     15  C   UNL     1     -14.993   3.105  -0.358  0.00  0.00    -0.015 C 
ATOM     16  C   UNL     1     -16.266   3.821  -0.018  0.00  0.00    +0.038 C 
ATOM     17  N   UNL     1     -16.390   5.103   0.118  0.00  0.00    -0.185 NA
ATOM     18  C   UNL     1     -17.502   2.995   0.299  0.00  0.00    -0.012 C 
ATOM     19  C   UNL     1     -17.544   1.658  -0.417  0.00  0.00    -0.046 C 
ATOM     20  C   UNL     1     -16.244   0.895  -0.200  0.00  0.00    -0.033 C 
ATOM     21  C   UNL     1     -15.068   1.664  -0.823  0.00  0.00    +0.034 C 
ENDBRANCH   8  21
ENDBRANCH   7   8
ENDBRANCH   6   7
ENDBRANCH   5   6
ENDBRANCH   4   5
ENDBRANCH   3   4
ENDBRANCH   2   3
ENDBRANCH   1   2
BRANCH   1  22
ATOM     22  C   UNL     1      -4.507   1.118  -0.044  0.00  0.00    -0.053 C 
BRANCH  22  23
ATOM     23  C   UNL     1      -3.414   2.110  -0.446  0.00  0.00    -0.053 C 
BRANCH  23  24
ATOM     24  C   UNL     1      -2.021   1.503  -0.259  0.00  0.00    -0.052 C 
BRANCH  24  25
ATOM     25  C   UNL     1      -0.925   2.485  -0.684  0.00  0.00    -0.040 C 
BRANCH  25  26
ATOM     26  C   UNL     1       0.487   1.886  -0.609  0.00  0.00    -0.004 C 
BRANCH  26  27
ATOM     27  N   UNL     1       0.916   1.687   0.775  0.00  0.00    -0.309 N 
ATOM     28  H   UNL     1       0.151   1.240   1.281  0.00  0.00    +0.000 HD
ATOM     29  H   UNL     1       1.156   2.612   1.132  0.00  0.00    +0.000 HD
BRANCH  27  30
ATOM     30  C   UNL     1       2.121   0.858   0.946  0.00  0.00    +0.034 C 
ATOM     31  C   UNL     1       3.361   1.577   0.369  0.00  0.00    -0.033 C 
ATOM     32  C   UNL     1       4.582   0.664   0.371  0.00  0.00    -0.046 C 
ATOM     33  C   UNL     1       4.323  -0.575  -0.487  0.00  0.00    -0.012 C 
ATOM     34  C   UNL     1       2.994  -1.216  -0.188  0.00  0.00    +0.024 A 
ATOM     35  N   UNL     1       2.832  -2.519  -0.606  0.00  0.00    -0.326 N 
ATOM     36  C   UNL     1       1.709  -3.274  -0.387  0.00  0.00    +0.249 A 
ATOM     37  O   UNL     1       1.591  -4.427  -0.784  0.00  0.00    -0.268 OA
ATOM     38  C   UNL     1       0.633  -2.614   0.387  0.00  0.00    +0.003 A 
ATOM     39  C   UNL     1       0.794  -1.348   0.796  0.00  0.00    -0.050 A 
ATOM     40  C   UNL     1       2.000  -0.591   0.479  0.00  0.00    -0.011 A 
ATOM     41  H   UNL     1       3.576  -2.938  -1.097  0.00  0.00    +0.000 HD
ENDBRANCH  27  30
ENDBRANCH  26  27
ENDBRANCH  25  26
ENDBRANCH  24  25
ENDBRANCH  23  24
ENDBRANCH  22  23
ENDBRANCH   1  22
TORSDOF 15
