@<TRIPOS>MOLECULE
*****
 36 40 0 0 0
SMALL
GASTEIGER

@<TRIPOS>ATOM
      1 C           1.6167    1.3222    0.0000 C.3     1  UNL1        0.0174
      2 C           1.7509    0.3313    0.0000 C.3     1  UNL1        0.0600
      3 C           0.9599   -0.2804    0.0000 C.3     1  UNL1        0.0455
      4 C           0.9898   -1.2800    0.0000 C.3     1  UNL1        0.1532
      5 O           1.8160   -1.8433    0.0000 O.3     1  UNL1       -0.2231
      6 C           0.0484   -1.6173    0.0000 C.3     1  UNL1        0.0330
      7 C          -0.5633   -0.8262    0.0000 C.3     1  UNL1        0.0034
      8 C          -1.4140   -1.3519    0.0000 C.3     1  UNL1        0.0001
      9 C          -1.5605   -0.7515    0.0000 C.3     1  UNL1        0.0073
     10 C          -1.9944   -1.6525    0.0000 C.3     1  UNL1        0.0008
     11 C          -2.9693   -1.8750    0.0000 C.3     1  UNL1        0.0042
     12 C          -3.7512   -1.2515    0.0000 C.3     1  UNL1        0.0233
     13 C          -3.7512   -0.2515    0.0000 C.2     1  UNL1       -0.0481
     14 C          -4.6172    0.2485    0.0000 C.2     1  UNL1       -0.0326
     15 C          -5.4832   -0.2515    0.0000 C.3     1  UNL1        0.0499
     16 C          -5.4832   -1.2515    0.0000 C.3     1  UNL1        0.1140
     17 N          -6.3492   -1.7515    0.0000 N.2     1  UNL1       -0.2432
     18 C          -6.3492   -2.7515    0.0000 C.2     1  UNL1        0.1946
     19 C          -7.2153   -3.2515    0.0000 C.3     1  UNL1        0.0681
     20 C          -7.7153   -4.1175    0.0000 C.3     1  UNL1        0.0092
     21 C          -6.7153   -4.1175    0.0000 C.3     1  UNL1        0.0092
     22 C          -8.0813   -2.7515    0.0000 C.3     1  UNL1        0.0092
     23 O          -5.4832   -3.2515    0.0000 O.2     1  UNL1       -0.4635
     24 C          -4.6172   -2.7515    0.0000 C.3     1  UNL1        0.2087
     25 C          -4.6172   -1.7515    0.0000 C.3     1  UNL1        0.0649
     26 C          -3.7512   -2.2515    0.0000 C.3     1  UNL1        0.0060
     27 C          -2.9693    0.3720    0.0000 C.3     1  UNL1        0.0290
     28 C          -1.9944    0.1495    0.0000 C.3     1  UNL1        0.0616
     29 C          -1.4311    0.9757    0.0000 C.2     1  UNL1        0.1506
     30 O          -1.8650    1.8767    0.0000 O.2     1  UNL1       -0.2961
     31 C          -0.4339    0.9010    0.0000 C.3     1  UNL1        0.0646
     32 C           0.0000   -0.0000    0.0000 C.3     1  UNL1        0.0106
     33 C           0.1786    0.9839    0.0000 C.3     1  UNL1        0.0006
     34 N           2.6763   -0.0479    0.0000 N.3     1  UNL1       -0.2715
     35 C           2.8105   -1.0389    0.0000 C.3     1  UNL1        0.0896
     36 C           3.4673    0.5638    0.0000 C.3     1  UNL1        0.0896
@<TRIPOS>BOND
     1     1     2    1
     2     2     3    1
     3     3     4    1
     4     4     5    1
     5     4     6    1
     6     6     7    1
     7     7     8    1
     8     7     9    1
     9     9    10    1
    10    10    11    1
    11    11    12    1
    12    12    13    1
    13    13    14    2
    14    14    15    1
    15    15    16    1
    16    16    17    1
    17    17    18    2
    18    18    19    1
    19    19    20    1
    20    19    21    1
    21    19    22    1
    22    18    23    1
    23    23    24    1
    24    24    25    1
    25    16    25    1
    26    12    25    1
    27    25    26    1
    28    13    27    1
    29    27    28    1
    30     9    28    1
    31    28    29    1
    32    29    30    2
    33    29    31    1
    34    31    32    1
    35     3    32    1
    36     7    32    1
    37    32    33    1
    38     2    34    1
    39    34    35    1
    40    34    36    1
