REMARK  Name = cpd87.pdb
REMARK  13 active torsions:
REMARK  status: ('A' for Active; 'I' for Inactive)
REMARK    1  A    between atoms: C_1  and  C_2
REMARK    2  A    between atoms: C_2  and  C_3
REMARK    3  A    between atoms: C_2  and  N_34
REMARK    4  A    between atoms: C_4  and  O_5
REMARK    5  A    between atoms: C_7  and  C_8
REMARK    6  A    between atoms: C_18  and  C_19
REMARK    7  A    between atoms: C_19  and  C_20
REMARK    8  A    between atoms: C_19  and  C_21
REMARK    9  A    between atoms: C_19  and  C_22
REMARK   10  A    between atoms: C_25  and  C_26
REMARK   11  A    between atoms: C_32  and  C_33
REMARK   12  A    between atoms: N_34  and  C_35
REMARK   13  A    between atoms: N_34  and  C_36
REMARK                            x       y       z     vdW  Elec       q    Type
REMARK                         _______ _______ _______ _____ _____    ______ ____
ROOT
ATOM      1  C   UNL     1       2.370   0.468   0.203  0.00  0.00    +0.007 C 
ATOM      2  C   UNL     1       2.277  -1.003  -0.279  0.00  0.00    +0.061 C 
ATOM      3  C   UNL     1       0.840  -1.482  -0.031  0.00  0.00    -0.020 C 
ATOM      4  C   UNL     1       0.090  -0.328   0.668  0.00  0.00    -0.020 C 
ATOM      5  C   UNL     1       0.250  -0.507   2.213  0.00  0.00    -0.059 C 
ATOM      6  C   UNL     1      -1.459  -0.321   0.342  0.00  0.00    -0.025 C 
ATOM      7  C   UNL     1      -2.126  -1.692   0.706  0.00  0.00    -0.048 C 
ATOM      8  C   UNL     1      -2.799  -2.485  -0.425  0.00  0.00    -0.046 C 
ATOM      9  C   UNL     1      -4.136  -1.923  -0.987  0.00  0.00    -0.009 C 
ATOM     10  C   UNL     1      -4.280  -0.466  -0.594  0.00  0.00    -0.069 C 
ATOM     11  C   UNL     1      -5.164  -0.059   0.335  0.00  0.00    -0.082 C 
ATOM     12  C   UNL     1      -6.095  -0.972   1.072  0.00  0.00    -0.011 C 
ATOM     13  C   UNL     1      -5.878  -2.475   0.795  0.00  0.00    +0.067 C 
ATOM     14  N   UNL     1      -7.125  -3.175   1.112  0.00  0.00    -0.250 NA
ATOM     15  C   UNL     1      -7.989  -3.353   0.177  0.00  0.00    +0.191 C 
ATOM     16  O   UNL     1      -7.836  -2.979  -1.115  0.00  0.00    -0.479 OA
ATOM     17  C   UNL     1      -6.595  -2.387  -1.547  0.00  0.00    +0.099 C 
ATOM     18  C   UNL     1      -5.415  -2.776  -0.638  0.00  0.00    +0.031 C 
ATOM     19  C   UNL     1      -5.153  -4.293  -0.835  0.00  0.00    -0.054 C 
ATOM     20  C   UNL     1      -3.331   0.515  -1.240  0.00  0.00    -0.022 C 
ATOM     21  C   UNL     1      -1.828   0.188  -1.077  0.00  0.00    +0.025 C 
ATOM     22  C   UNL     1      -1.021   1.428  -1.434  0.00  0.00    +0.138 C 
ATOM     23  O   UNL     1      -1.524   2.448  -1.904  0.00  0.00    -0.297 OA
ATOM     24  C   UNL     1       0.470   1.306  -1.300  0.00  0.00    +0.012 C 
ATOM     25  C   UNL     1       0.868   0.950   0.145  0.00  0.00    -0.013 C 
ATOM     26  C   UNL     1       0.590   2.168   1.055  0.00  0.00    -0.058 C 
ENDROOT
BRANCH  15  27
ATOM     27  C   UNL     1      -9.335  -4.024   0.464  0.00  0.00    +0.038 C 
ATOM     28  C   UNL     1     -10.085  -4.406  -0.822  0.00  0.00    -0.052 C 
ATOM     29  C   UNL     1      -9.093  -5.303   1.283  0.00  0.00    -0.052 C 
ATOM     30  C   UNL     1     -10.191  -3.040   1.275  0.00  0.00    -0.052 C 
ENDBRANCH  15  27
BRANCH   1  32
ATOM     31  C   UNL     1       3.477   2.792  -0.109  0.00  0.00    -0.049 C 
ATOM     32  C   UNL     1       3.491   1.305  -0.502  0.00  0.00    +0.013 C 
BRANCH  32  33
ATOM     33  N   UNL     1       4.891   0.869  -0.270  0.00  0.00    -0.305 N 
ATOM     34  C   UNL     1       5.376  -0.133  -1.210  0.00  0.00    -0.013 C 
ATOM     35  C   UNL     1       5.240   0.527   1.103  0.00  0.00    -0.013 C 
ATOM     36  H   UNL     1       5.400   1.732  -0.463  0.00  0.00    +0.000 HD
ENDBRANCH  32  33
ENDBRANCH   1  32
BRANCH   2  37
ATOM     37  O   UNL     1       2.530  -1.130  -1.675  0.00  0.00    -0.391 OA
ATOM     38  H   UNL     1       1.874  -0.615  -2.171  0.00  0.00    +0.000 HD
ENDBRANCH   2  37
TORSDOF 4
