MODEL 1
REMARK VINA RESULT:    -8.164      0.000      0.000
REMARK INTER + INTRA:          -9.884
REMARK INTER:                  -9.834
REMARK INTRA:                  -0.050
REMARK UNBOUND:                -0.050
REMARK  Name = cpd87.pdb
REMARK  13 active torsions:
REMARK  status: ('A' for Active; 'I' for Inactive)
REMARK    1  A    between atoms: C_1  and  C_2
REMARK    2  A    between atoms: C_2  and  C_3
REMARK    3  A    between atoms: C_2  and  N_34
REMARK    4  A    between atoms: C_4  and  O_5
REMARK    5  A    between atoms: C_7  and  C_8
REMARK    6  A    between atoms: C_18  and  C_19
REMARK    7  A    between atoms: C_19  and  C_20
REMARK    8  A    between atoms: C_19  and  C_21
REMARK    9  A    between atoms: C_19  and  C_22
REMARK   10  A    between atoms: C_25  and  C_26
REMARK   11  A    between atoms: C_32  and  C_33
REMARK   12  A    between atoms: N_34  and  C_35
REMARK   13  A    between atoms: N_34  and  C_36
REMARK                            x       y       z     vdW  Elec       q    Type
REMARK                         _______ _______ _______ _____ _____    ______ ____
ROOT
ATOM      1  C   UNL     1      46.390 -19.899 -40.753  0.00  0.00    +0.007 C 
ATOM      2  C   UNL     1      46.640 -20.239 -39.261  0.00  0.00    +0.061 C 
ATOM      3  C   UNL     1      45.379 -19.846 -38.479  0.00  0.00    -0.020 C 
ATOM      4  C   UNL     1      44.402 -19.202 -39.485  0.00  0.00    -0.020 C 
ATOM      5  C   UNL     1      44.674 -17.663 -39.513  0.00  0.00    -0.059 C 
ATOM      6  C   UNL     1      42.885 -19.415 -39.086  0.00  0.00    -0.025 C 
ATOM      7  C   UNL     1      42.595 -18.882 -37.640  0.00  0.00    -0.048 C 
ATOM      8  C   UNL     1      42.085 -19.886 -36.595  0.00  0.00    -0.046 C 
ATOM      9  C   UNL     1      40.625 -20.399 -36.757  0.00  0.00    -0.009 C 
ATOM     10  C   UNL     1      40.145 -20.130 -38.169  0.00  0.00    -0.069 C 
ATOM     11  C   UNL     1      39.234 -19.180 -38.447  0.00  0.00    -0.082 C 
ATOM     12  C   UNL     1      38.593 -18.299 -37.419  0.00  0.00    -0.011 C 
ATOM     13  C   UNL     1      39.160 -18.454 -35.992  0.00  0.00    +0.067 C 
ATOM     14  N   UNL     1      38.140 -17.987 -35.050  0.00  0.00    -0.250 NA
ATOM     15  C   UNL     1      37.303 -18.838 -34.572  0.00  0.00    +0.191 C 
ATOM     16  O   UNL     1      37.298 -20.166 -34.834  0.00  0.00    -0.479 OA
ATOM     17  C   UNL     1      38.333 -20.737 -35.659  0.00  0.00    +0.099 C 
ATOM     18  C   UNL     1      39.614 -19.884 -35.662  0.00  0.00    +0.031 C 
ATOM     19  C   UNL     1      40.232 -19.962 -34.241  0.00  0.00    -0.054 C 
ATOM     20  C   UNL     1      40.792 -20.928 -39.276  0.00  0.00    -0.022 C 
ATOM     21  C   UNL     1      42.335 -20.844 -39.339  0.00  0.00    +0.025 C 
ATOM     22  C   UNL     1      42.793 -21.368 -40.693  0.00  0.00    +0.138 C 
ATOM     23  O   UNL     1      42.033 -21.891 -41.507  0.00  0.00    -0.297 OA
ATOM     24  C   UNL     1      44.273 -21.331 -40.947  0.00  0.00    +0.012 C 
ATOM     25  C   UNL     1      44.815 -19.892 -40.851  0.00  0.00    -0.013 C 
ATOM     26  C   UNL     1      44.289 -19.078 -42.055  0.00  0.00    -0.058 C 
ENDROOT
BRANCH  15  27
ATOM     27  C   UNL     1      36.179 -18.396 -33.631  0.00  0.00    +0.038 C 
ATOM     28  C   UNL     1      34.949 -17.876 -34.391  0.00  0.00    -0.052 C 
ATOM     29  C   UNL     1      35.747 -19.594 -32.769  0.00  0.00    -0.052 C 
ATOM     30  C   UNL     1      36.727 -17.278 -32.731  0.00  0.00    -0.052 C 
ENDBRANCH  15  27
BRANCH   1  32
ATOM     31  C   UNL     1      48.452 -20.003 -42.322  0.00  0.00    -0.049 C 
ATOM     32  C   UNL     1      47.236 -20.755 -41.757  0.00  0.00    +0.013 C 
BRANCH  32  33
ATOM     33  N   UNL     1      47.791 -22.030 -41.238  0.00  0.00    -0.305 N 
ATOM     34  C   UNL     1      49.241 -22.045 -41.096  0.00  0.00    -0.013 C 
ATOM     35  C   UNL     1      47.303 -23.250 -41.870  0.00  0.00    -0.013 C 
ATOM     36  H   UNL     1      47.398 -22.047 -40.297  0.00  0.00    +0.000 HD
ENDBRANCH  32  33
ENDBRANCH   1  32
BRANCH   2  37
ATOM     37  O   UNL     1      46.850 -21.632 -39.053  0.00  0.00    -0.391 OA
ATOM     38  H   UNL     1      46.023 -22.043 -38.752  0.00  0.00    +0.000 HD
ENDBRANCH   2  37
TORSDOF 4
ENDMDL
MODEL 2
REMARK VINA RESULT:    -7.931     17.267     20.450
REMARK INTER + INTRA:          -9.603
REMARK INTER:                  -8.796
REMARK INTRA:                  -0.808
REMARK UNBOUND:                -0.050
REMARK  Name = cpd87.pdb
REMARK  13 active torsions:
REMARK  status: ('A' for Active; 'I' for Inactive)
REMARK    1  A    between atoms: C_1  and  C_2
REMARK    2  A    between atoms: C_2  and  C_3
REMARK    3  A    between atoms: C_2  and  N_34
REMARK    4  A    between atoms: C_4  and  O_5
REMARK    5  A    between atoms: C_7  and  C_8
REMARK    6  A    between atoms: C_18  and  C_19
REMARK    7  A    between atoms: C_19  and  C_20
REMARK    8  A    between atoms: C_19  and  C_21
REMARK    9  A    between atoms: C_19  and  C_22
REMARK   10  A    between atoms: C_25  and  C_26
REMARK   11  A    between atoms: C_32  and  C_33
REMARK   12  A    between atoms: N_34  and  C_35
REMARK   13  A    between atoms: N_34  and  C_36
REMARK                            x       y       z     vdW  Elec       q    Type
REMARK                         _______ _______ _______ _____ _____    ______ ____
ROOT
ATOM      1  C   UNL     1      27.372 -29.194 -29.748  0.00  0.00    +0.007 C 
ATOM      2  C   UNL     1      28.739 -28.478 -29.596  0.00  0.00    +0.061 C 
ATOM      3  C   UNL     1      29.817 -29.563 -29.459  0.00  0.00    -0.020 C 
ATOM      4  C   UNL     1      29.093 -30.926 -29.452  0.00  0.00    -0.020 C 
ATOM      5  C   UNL     1      28.758 -31.292 -27.969  0.00  0.00    -0.059 C 
ATOM      6  C   UNL     1      29.982 -32.092 -30.047  0.00  0.00    -0.025 C 
ATOM      7  C   UNL     1      31.352 -32.209 -29.293  0.00  0.00    -0.048 C 
ATOM      8  C   UNL     1      32.639 -32.016 -30.110  0.00  0.00    -0.046 C 
ATOM      9  C   UNL     1      33.027 -33.150 -31.100  0.00  0.00    -0.009 C 
ATOM     10  C   UNL     1      31.818 -34.024 -31.372  0.00  0.00    -0.069 C 
ATOM     11  C   UNL     1      31.712 -35.272 -30.881  0.00  0.00    -0.082 C 
ATOM     12  C   UNL     1      32.752 -35.937 -30.032  0.00  0.00    -0.011 C 
ATOM     13  C   UNL     1      33.930 -35.027 -29.625  0.00  0.00    +0.067 C 
ATOM     14  N   UNL     1      35.070 -35.887 -29.299  0.00  0.00    -0.250 NA
ATOM     15  C   UNL     1      35.907 -36.182 -30.229  0.00  0.00    +0.191 C 
ATOM     16  O   UNL     1      35.855 -35.731 -31.504  0.00  0.00    -0.479 OA
ATOM     17  C   UNL     1      34.836 -34.788 -31.889  0.00  0.00    +0.099 C 
ATOM     18  C   UNL     1      34.300 -33.985 -30.690  0.00  0.00    +0.031 C 
ATOM     19  C   UNL     1      35.446 -33.061 -30.197  0.00  0.00    -0.054 C 
ATOM     20  C   UNL     1      30.690 -33.406 -32.164  0.00  0.00    -0.022 C 
ATOM     21  C   UNL     1      30.127 -32.083 -31.592  0.00  0.00    +0.025 C 
ATOM     22  C   UNL     1      28.789 -31.799 -32.259  0.00  0.00    +0.138 C 
ATOM     23  O   UNL     1      28.344 -32.467 -33.192  0.00  0.00    -0.297 OA
ATOM     24  C   UNL     1      28.073 -30.561 -31.800  0.00  0.00    +0.012 C 
ATOM     25  C   UNL     1      27.782 -30.619 -30.288  0.00  0.00    -0.013 C 
ATOM     26  C   UNL     1      26.704 -31.696 -30.027  0.00  0.00    -0.058 C 
ENDROOT
BRANCH  15  27
ATOM     27  C   UNL     1      37.083 -37.125 -29.961  0.00  0.00    +0.038 C 
ATOM     28  C   UNL     1      37.273 -37.414 -28.464  0.00  0.00    -0.052 C 
ATOM     29  C   UNL     1      36.832 -38.458 -30.685  0.00  0.00    -0.052 C 
ATOM     30  C   UNL     1      38.355 -36.464 -30.514  0.00  0.00    -0.052 C 
ENDBRANCH  15  27
BRANCH   1  32
ATOM     31  C   UNL     1      24.850 -28.679 -30.058  0.00  0.00    -0.049 C 
ATOM     32  C   UNL     1      26.286 -28.352 -30.500  0.00  0.00    +0.013 C 
BRANCH  32  33
ATOM     33  N   UNL     1      26.389 -26.876 -30.378  0.00  0.00    -0.305 N 
ATOM     34  C   UNL     1      25.761 -26.322 -29.186  0.00  0.00    -0.013 C 
ATOM     35  C   UNL     1      26.048 -26.106 -31.568  0.00  0.00    -0.013 C 
ATOM     36  H   UNL     1      27.396 -26.757 -30.269  0.00  0.00    +0.000 HD
ENDBRANCH  32  33
ENDBRANCH   1  32
BRANCH   2  37
ATOM     37  O   UNL     1      29.069 -27.697 -30.740  0.00  0.00    -0.391 OA
ATOM     38  H   UNL     1      29.388 -26.826 -30.456  0.00  0.00    +0.000 HD
ENDBRANCH   2  37
TORSDOF 4
ENDMDL
MODEL 3
REMARK VINA RESULT:    -7.556      3.569      5.054
REMARK INTER + INTRA:          -9.152
REMARK INTER:                  -8.347
REMARK INTRA:                  -0.805
REMARK UNBOUND:                -0.050
REMARK  Name = cpd87.pdb
REMARK  13 active torsions:
REMARK  status: ('A' for Active; 'I' for Inactive)
REMARK    1  A    between atoms: C_1  and  C_2
REMARK    2  A    between atoms: C_2  and  C_3
REMARK    3  A    between atoms: C_2  and  N_34
REMARK    4  A    between atoms: C_4  and  O_5
REMARK    5  A    between atoms: C_7  and  C_8
REMARK    6  A    between atoms: C_18  and  C_19
REMARK    7  A    between atoms: C_19  and  C_20
REMARK    8  A    between atoms: C_19  and  C_21
REMARK    9  A    between atoms: C_19  and  C_22
REMARK   10  A    between atoms: C_25  and  C_26
REMARK   11  A    between atoms: C_32  and  C_33
REMARK   12  A    between atoms: N_34  and  C_35
REMARK   13  A    between atoms: N_34  and  C_36
REMARK                            x       y       z     vdW  Elec       q    Type
REMARK                         _______ _______ _______ _____ _____    ______ ____
ROOT
ATOM      1  C   UNL     1      45.250 -14.142 -40.396  0.00  0.00    +0.007 C 
ATOM      2  C   UNL     1      45.833 -14.461 -38.995  0.00  0.00    +0.061 C 
ATOM      3  C   UNL     1      44.865 -15.429 -38.300  0.00  0.00    -0.020 C 
ATOM      4  C   UNL     1      43.666 -15.634 -39.251  0.00  0.00    -0.020 C 
ATOM      5  C   UNL     1      42.585 -14.557 -38.911  0.00  0.00    -0.059 C 
ATOM      6  C   UNL     1      42.995 -17.058 -39.088  0.00  0.00    -0.025 C 
ATOM      7  C   UNL     1      42.555 -17.317 -37.606  0.00  0.00    -0.048 C 
ATOM      8  C   UNL     1      43.178 -18.514 -36.871  0.00  0.00    -0.046 C 
ATOM      9  C   UNL     1      42.720 -19.933 -37.312  0.00  0.00    -0.009 C 
ATOM     10  C   UNL     1      42.068 -19.856 -38.678  0.00  0.00    -0.069 C 
ATOM     11  C   UNL     1      40.742 -20.001 -38.848  0.00  0.00    -0.082 C 
ATOM     12  C   UNL     1      39.771 -20.256 -37.736  0.00  0.00    -0.011 C 
ATOM     13  C   UNL     1      40.383 -20.203 -36.320  0.00  0.00    +0.067 C 
ATOM     14  N   UNL     1      39.515 -20.972 -35.426  0.00  0.00    -0.250 NA
ATOM     15  C   UNL     1      39.762 -22.221 -35.247  0.00  0.00    +0.191 C 
ATOM     16  O   UNL     1      40.798 -22.902 -35.790  0.00  0.00    -0.479 OA
ATOM     17  C   UNL     1      41.772 -22.205 -36.591  0.00  0.00    +0.099 C 
ATOM     18  C   UNL     1      41.834 -20.703 -36.259  0.00  0.00    +0.031 C 
ATOM     19  C   UNL     1      42.413 -20.565 -34.825  0.00  0.00    -0.054 C 
ATOM     20  C   UNL     1      42.967 -19.534 -39.848  0.00  0.00    -0.022 C 
ATOM     21  C   UNL     1      43.795 -18.234 -39.709  0.00  0.00    +0.025 C 
ATOM     22  C   UNL     1      44.336 -17.856 -41.080  0.00  0.00    +0.138 C 
ATOM     23  O   UNL     1      44.223 -18.576 -42.072  0.00  0.00    -0.297 OA
ATOM     24  C   UNL     1      45.143 -16.591 -41.145  0.00  0.00    +0.012 C 
ATOM     25  C   UNL     1      44.314 -15.381 -40.675  0.00  0.00    -0.013 C 
ATOM     26  C   UNL     1      43.220 -15.086 -41.727  0.00  0.00    -0.058 C 
ENDROOT
BRANCH  15  27
ATOM     27  C   UNL     1      38.852 -23.087 -34.371  0.00  0.00    +0.038 C 
ATOM     28  C   UNL     1      38.161 -24.203 -35.170  0.00  0.00    -0.052 C 
ATOM     29  C   UNL     1      39.695 -23.736 -33.261  0.00  0.00    -0.052 C 
ATOM     30  C   UNL     1      37.785 -22.175 -33.750  0.00  0.00    -0.052 C 
ENDBRANCH  15  27
BRANCH   1  32
ATOM     31  C   UNL     1      45.767 -12.774 -42.538  0.00  0.00    -0.049 C 
ATOM     32  C   UNL     1      46.323 -13.715 -41.455  0.00  0.00    +0.013 C 
BRANCH  32  33
ATOM     33  N   UNL     1      47.528 -13.019 -40.937  0.00  0.00    -0.305 N 
ATOM     34  C   UNL     1      47.394 -11.572 -40.836  0.00  0.00    -0.013 C 
ATOM     35  C   UNL     1      48.800 -13.397 -41.540  0.00  0.00    -0.013 C 
ATOM     36  H   UNL     1      47.571 -13.383 -39.984  0.00  0.00    +0.000 HD
ENDBRANCH  32  33
ENDBRANCH   1  32
BRANCH   2  37
ATOM     37  O   UNL     1      47.098 -15.109 -39.071  0.00  0.00    -0.391 OA
ATOM     38  H   UNL     1      47.484 -15.172 -38.183  0.00  0.00    +0.000 HD
ENDBRANCH   2  37
TORSDOF 4
ENDMDL
MODEL 4
REMARK VINA RESULT:    -7.355      4.971      6.234
REMARK INTER + INTRA:          -8.910
REMARK INTER:                  -8.213
REMARK INTRA:                  -0.697
REMARK UNBOUND:                -0.050
REMARK  Name = cpd87.pdb
REMARK  13 active torsions:
REMARK  status: ('A' for Active; 'I' for Inactive)
REMARK    1  A    between atoms: C_1  and  C_2
REMARK    2  A    between atoms: C_2  and  C_3
REMARK    3  A    between atoms: C_2  and  N_34
REMARK    4  A    between atoms: C_4  and  O_5
REMARK    5  A    between atoms: C_7  and  C_8
REMARK    6  A    between atoms: C_18  and  C_19
REMARK    7  A    between atoms: C_19  and  C_20
REMARK    8  A    between atoms: C_19  and  C_21
REMARK    9  A    between atoms: C_19  and  C_22
REMARK   10  A    between atoms: C_25  and  C_26
REMARK   11  A    between atoms: C_32  and  C_33
REMARK   12  A    between atoms: N_34  and  C_35
REMARK   13  A    between atoms: N_34  and  C_36
REMARK                            x       y       z     vdW  Elec       q    Type
REMARK                         _______ _______ _______ _____ _____    ______ ____
ROOT
ATOM      1  C   UNL     1      45.332 -19.764 -39.132  0.00  0.00    +0.007 C 
ATOM      2  C   UNL     1      46.013 -18.375 -39.238  0.00  0.00    +0.061 C 
ATOM      3  C   UNL     1      45.349 -17.453 -38.205  0.00  0.00    -0.020 C 
ATOM      4  C   UNL     1      44.220 -18.263 -37.532  0.00  0.00    -0.020 C 
ATOM      5  C   UNL     1      42.905 -18.038 -38.347  0.00  0.00    -0.059 C 
ATOM      6  C   UNL     1      43.947 -17.805 -36.041  0.00  0.00    -0.025 C 
ATOM      7  C   UNL     1      43.628 -16.273 -35.963  0.00  0.00    -0.048 C 
ATOM      8  C   UNL     1      44.560 -15.388 -35.121  0.00  0.00    -0.046 C 
ATOM      9  C   UNL     1      44.476 -15.539 -33.575  0.00  0.00    -0.009 C 
ATOM     10  C   UNL     1      43.792 -16.847 -33.228  0.00  0.00    -0.069 C 
ATOM     11  C   UNL     1      42.545 -16.891 -32.726  0.00  0.00    -0.082 C 
ATOM     12  C   UNL     1      41.703 -15.684 -32.449  0.00  0.00    -0.011 C 
ATOM     13  C   UNL     1      42.317 -14.347 -32.918  0.00  0.00    +0.067 C 
ATOM     14  N   UNL     1      41.701 -13.271 -32.138  0.00  0.00    -0.250 NA
ATOM     15  C   UNL     1      42.269 -12.896 -31.047  0.00  0.00    +0.191 C 
ATOM     16  O   UNL     1      43.432 -13.386 -30.559  0.00  0.00    -0.479 OA
ATOM     17  C   UNL     1      44.171 -14.366 -31.315  0.00  0.00    +0.099 C 
ATOM     18  C   UNL     1      43.849 -14.306 -32.819  0.00  0.00    +0.031 C 
ATOM     19  C   UNL     1      44.409 -12.965 -33.364  0.00  0.00    -0.054 C 
ATOM     20  C   UNL     1      44.545 -18.118 -33.541  0.00  0.00    -0.022 C 
ATOM     21  C   UNL     1      45.009 -18.269 -35.008  0.00  0.00    +0.025 C 
ATOM     22  C   UNL     1      45.398 -19.721 -35.246  0.00  0.00    +0.138 C 
ATOM     23  O   UNL     1      45.450 -20.561 -34.349  0.00  0.00    -0.297 OA
ATOM     24  C   UNL     1      45.846 -20.064 -36.638  0.00  0.00    +0.012 C 
ATOM     25  C   UNL     1      44.743 -19.753 -37.667  0.00  0.00    -0.013 C 
ATOM     26  C   UNL     1      43.583 -20.757 -37.476  0.00  0.00    -0.058 C 
ENDROOT
BRANCH  15  27
ATOM     27  C   UNL     1      41.640 -11.818 -30.161  0.00  0.00    +0.038 C 
ATOM     28  C   UNL     1      40.247 -12.220 -29.649  0.00  0.00    -0.052 C 
ATOM     29  C   UNL     1      42.551 -11.573 -28.946  0.00  0.00    -0.052 C 
ATOM     30  C   UNL     1      41.521 -10.531 -30.991  0.00  0.00    -0.052 C 
ENDBRANCH  15  27
BRANCH   1  32
ATOM     31  C   UNL     1      45.421 -22.127 -40.196  0.00  0.00    -0.049 C 
ATOM     32  C   UNL     1      46.228 -20.957 -39.608  0.00  0.00    +0.013 C 
BRANCH  32  33
ATOM     33  N   UNL     1      47.249 -20.649 -40.641  0.00  0.00    -0.305 N 
ATOM     34  C   UNL     1      46.705 -20.349 -41.959  0.00  0.00    -0.013 C 
ATOM     35  C   UNL     1      48.378 -21.568 -40.725  0.00  0.00    -0.013 C 
ATOM     36  H   UNL     1      47.644 -19.782 -40.275  0.00  0.00    +0.000 HD
ENDBRANCH  32  33
ENDBRANCH   1  32
BRANCH   2  37
ATOM     37  O   UNL     1      47.401 -18.430 -38.925  0.00  0.00    -0.391 OA
ATOM     38  H   UNL     1      47.576 -19.200 -38.361  0.00  0.00    +0.000 HD
ENDBRANCH   2  37
TORSDOF 4
ENDMDL
MODEL 5
REMARK VINA RESULT:    -7.336      1.617      2.272
REMARK INTER + INTRA:          -8.887
REMARK INTER:                  -8.111
REMARK INTRA:                  -0.776
REMARK UNBOUND:                -0.050
REMARK  Name = cpd87.pdb
REMARK  13 active torsions:
REMARK  status: ('A' for Active; 'I' for Inactive)
REMARK    1  A    between atoms: C_1  and  C_2
REMARK    2  A    between atoms: C_2  and  C_3
REMARK    3  A    between atoms: C_2  and  N_34
REMARK    4  A    between atoms: C_4  and  O_5
REMARK    5  A    between atoms: C_7  and  C_8
REMARK    6  A    between atoms: C_18  and  C_19
REMARK    7  A    between atoms: C_19  and  C_20
REMARK    8  A    between atoms: C_19  and  C_21
REMARK    9  A    between atoms: C_19  and  C_22
REMARK   10  A    between atoms: C_25  and  C_26
REMARK   11  A    between atoms: C_32  and  C_33
REMARK   12  A    between atoms: N_34  and  C_35
REMARK   13  A    between atoms: N_34  and  C_36
REMARK                            x       y       z     vdW  Elec       q    Type
REMARK                         _______ _______ _______ _____ _____    ______ ____
ROOT
ATOM      1  C   UNL     1      45.062 -20.632 -40.369  0.00  0.00    +0.007 C 
ATOM      2  C   UNL     1      45.709 -20.109 -39.060  0.00  0.00    +0.061 C 
ATOM      3  C   UNL     1      44.608 -19.415 -38.245  0.00  0.00    -0.020 C 
ATOM      4  C   UNL     1      43.320 -19.453 -39.095  0.00  0.00    -0.020 C 
ATOM      5  C   UNL     1      43.273 -18.157 -39.968  0.00  0.00    -0.059 C 
ATOM      6  C   UNL     1      42.007 -19.486 -38.211  0.00  0.00    -0.025 C 
ATOM      7  C   UNL     1      41.957 -18.276 -37.216  0.00  0.00    -0.048 C 
ATOM      8  C   UNL     1      41.906 -18.587 -35.712  0.00  0.00    -0.046 C 
ATOM      9  C   UNL     1      40.578 -19.170 -35.153  0.00  0.00    -0.009 C 
ATOM     10  C   UNL     1      39.744 -19.720 -36.293  0.00  0.00    -0.069 C 
ATOM     11  C   UNL     1      38.625 -19.107 -36.722  0.00  0.00    -0.082 C 
ATOM     12  C   UNL     1      38.078 -17.842 -36.136  0.00  0.00    -0.011 C 
ATOM     13  C   UNL     1      38.976 -17.185 -35.067  0.00  0.00    +0.067 C 
ATOM     14  N   UNL     1      38.128 -16.332 -34.231  0.00  0.00    -0.250 NA
ATOM     15  C   UNL     1      37.605 -16.831 -33.168  0.00  0.00    +0.191 C 
ATOM     16  O   UNL     1      37.799 -18.092 -32.716  0.00  0.00    -0.479 OA
ATOM     17  C   UNL     1      38.709 -18.969 -33.408  0.00  0.00    +0.099 C 
ATOM     18  C   UNL     1      39.763 -18.195 -34.219  0.00  0.00    +0.031 C 
ATOM     19  C   UNL     1      40.694 -17.473 -33.208  0.00  0.00    -0.054 C 
ATOM     20  C   UNL     1      40.262 -20.957 -36.987  0.00  0.00    -0.022 C 
ATOM     21  C   UNL     1      41.703 -20.852 -37.539  0.00  0.00    +0.025 C 
ATOM     22  C   UNL     1      41.933 -21.998 -38.514  0.00  0.00    +0.138 C 
ATOM     23  O   UNL     1      41.123 -22.908 -38.688  0.00  0.00    -0.297 OA
ATOM     24  C   UNL     1      43.278 -22.038 -39.180  0.00  0.00    +0.012 C 
ATOM     25  C   UNL     1      43.536 -20.748 -39.983  0.00  0.00    -0.013 C 
ATOM     26  C   UNL     1      42.600 -20.728 -41.213  0.00  0.00    -0.058 C 
ENDROOT
BRANCH  15  27
ATOM     27  C   UNL     1      36.663 -16.004 -32.289  0.00  0.00    +0.038 C 
ATOM     28  C   UNL     1      37.383 -15.380 -31.083  0.00  0.00    -0.052 C 
ATOM     29  C   UNL     1      36.057 -14.870 -33.133  0.00  0.00    -0.052 C 
ATOM     30  C   UNL     1      35.548 -16.933 -31.787  0.00  0.00    -0.052 C 
ENDBRANCH  15  27
BRANCH   1  32
ATOM     31  C   UNL     1      45.521 -22.019 -42.511  0.00  0.00    -0.049 C 
ATOM     32  C   UNL     1      45.806 -21.854 -41.008  0.00  0.00    +0.013 C 
BRANCH  32  33
ATOM     33  N   UNL     1      47.287 -21.859 -40.904  0.00  0.00    -0.305 N 
ATOM     34  C   UNL     1      47.964 -20.997 -41.864  0.00  0.00    -0.013 C 
ATOM     35  C   UNL     1      47.922 -23.168 -40.821  0.00  0.00    -0.013 C 
ATOM     36  H   UNL     1      47.420 -21.443 -39.982  0.00  0.00    +0.000 HD
ENDBRANCH  32  33
ENDBRANCH   1  32
BRANCH   2  37
ATOM     37  O   UNL     1      46.228 -21.164 -38.256  0.00  0.00    -0.391 OA
ATOM     38  H   UNL     1      46.645 -21.830 -38.826  0.00  0.00    +0.000 HD
ENDBRANCH   2  37
TORSDOF 4
ENDMDL
MODEL 6
REMARK VINA RESULT:    -7.329     17.874     21.535
REMARK INTER + INTRA:          -8.878
REMARK INTER:                  -8.074
REMARK INTRA:                  -0.804
REMARK UNBOUND:                -0.050
REMARK  Name = cpd87.pdb
REMARK  13 active torsions:
REMARK  status: ('A' for Active; 'I' for Inactive)
REMARK    1  A    between atoms: C_1  and  C_2
REMARK    2  A    between atoms: C_2  and  C_3
REMARK    3  A    between atoms: C_2  and  N_34
REMARK    4  A    between atoms: C_4  and  O_5
REMARK    5  A    between atoms: C_7  and  C_8
REMARK    6  A    between atoms: C_18  and  C_19
REMARK    7  A    between atoms: C_19  and  C_20
REMARK    8  A    between atoms: C_19  and  C_21
REMARK    9  A    between atoms: C_19  and  C_22
REMARK   10  A    between atoms: C_25  and  C_26
REMARK   11  A    between atoms: C_32  and  C_33
REMARK   12  A    between atoms: N_34  and  C_35
REMARK   13  A    between atoms: N_34  and  C_36
REMARK                            x       y       z     vdW  Elec       q    Type
REMARK                         _______ _______ _______ _____ _____    ______ ____
ROOT
ATOM      1  C   UNL     1      28.042 -30.512 -29.603  0.00  0.00    +0.007 C 
ATOM      2  C   UNL     1      28.001 -31.276 -28.254  0.00  0.00    +0.061 C 
ATOM      3  C   UNL     1      28.879 -32.526 -28.402  0.00  0.00    -0.020 C 
ATOM      4  C   UNL     1      29.387 -32.555 -29.860  0.00  0.00    -0.020 C 
ATOM      5  C   UNL     1      28.361 -33.365 -30.718  0.00  0.00    -0.059 C 
ATOM      6  C   UNL     1      30.796 -33.261 -30.001  0.00  0.00    -0.025 C 
ATOM      7  C   UNL     1      30.769 -34.715 -29.413  0.00  0.00    -0.048 C 
ATOM      8  C   UNL     1      31.721 -35.037 -28.251  0.00  0.00    -0.046 C 
ATOM      9  C   UNL     1      33.236 -35.143 -28.584  0.00  0.00    -0.009 C 
ATOM     10  C   UNL     1      33.511 -34.477 -29.918  0.00  0.00    -0.069 C 
ATOM     11  C   UNL     1      33.805 -35.184 -31.025  0.00  0.00    -0.082 C 
ATOM     12  C   UNL     1      33.899 -36.678 -31.071  0.00  0.00    -0.011 C 
ATOM     13  C   UNL     1      33.491 -37.391 -29.765  0.00  0.00    +0.067 C 
ATOM     14  N   UNL     1      34.123 -38.713 -29.757  0.00  0.00    -0.250 NA
ATOM     15  C   UNL     1      35.277 -38.843 -29.208  0.00  0.00    +0.191 C 
ATOM     16  O   UNL     1      35.966 -37.857 -28.585  0.00  0.00    -0.479 OA
ATOM     17  C   UNL     1      35.374 -36.551 -28.441  0.00  0.00    +0.099 C 
ATOM     18  C   UNL     1      33.836 -36.598 -28.496  0.00  0.00    +0.031 C 
ATOM     19  C   UNL     1      33.344 -37.335 -27.222  0.00  0.00    -0.054 C 
ATOM     20  C   UNL     1      33.370 -32.974 -29.976  0.00  0.00    -0.022 C 
ATOM     21  C   UNL     1      32.004 -32.419 -29.509  0.00  0.00    +0.025 C 
ATOM     22  C   UNL     1      31.882 -30.976 -29.976  0.00  0.00    +0.138 C 
ATOM     23  O   UNL     1      32.805 -30.359 -30.508  0.00  0.00    -0.297 OA
ATOM     24  C   UNL     1      30.595 -30.279 -29.639  0.00  0.00    +0.012 C 
ATOM     25  C   UNL     1      29.390 -31.019 -30.250  0.00  0.00    -0.013 C 
ATOM     26  C   UNL     1      29.423 -30.847 -31.786  0.00  0.00    -0.058 C 
ENDROOT
BRANCH  15  27
ATOM     27  C   UNL     1      36.012 -40.186 -29.224  0.00  0.00    +0.038 C 
ATOM     28  C   UNL     1      36.061 -40.810 -30.628  0.00  0.00    -0.052 C 
ATOM     29  C   UNL     1      37.455 -39.974 -28.737  0.00  0.00    -0.052 C 
ATOM     30  C   UNL     1      35.276 -41.140 -28.272  0.00  0.00    -0.052 C 
ENDBRANCH  15  27
BRANCH   1  32
ATOM     31  C   UNL     1      27.132 -28.370 -30.747  0.00  0.00    -0.049 C 
ATOM     32  C   UNL     1      27.760 -28.976 -29.480  0.00  0.00    +0.013 C 
BRANCH  32  33
ATOM     33  N   UNL     1      26.861 -28.552 -28.377  0.00  0.00    -0.305 N 
ATOM     34  C   UNL     1      25.442 -28.590 -28.705  0.00  0.00    -0.013 C 
ATOM     35  C   UNL     1      27.218 -27.315 -27.694  0.00  0.00    -0.013 C 
ATOM     36  H   UNL     1      27.030 -29.289 -27.692  0.00  0.00    +0.000 HD
ENDBRANCH  32  33
ENDBRANCH   1  32
BRANCH   2  37
ATOM     37  O   UNL     1      28.538 -30.506 -27.182  0.00  0.00    -0.391 OA
ATOM     38  H   UNL     1      28.670 -31.077 -26.409  0.00  0.00    +0.000 HD
ENDBRANCH   2  37
TORSDOF 4
ENDMDL
MODEL 7
REMARK VINA RESULT:    -7.313      4.349      5.218
REMARK INTER + INTRA:          -8.859
REMARK INTER:                  -8.518
REMARK INTRA:                  -0.341
REMARK UNBOUND:                -0.050
REMARK  Name = cpd87.pdb
REMARK  13 active torsions:
REMARK  status: ('A' for Active; 'I' for Inactive)
REMARK    1  A    between atoms: C_1  and  C_2
REMARK    2  A    between atoms: C_2  and  C_3
REMARK    3  A    between atoms: C_2  and  N_34
REMARK    4  A    between atoms: C_4  and  O_5
REMARK    5  A    between atoms: C_7  and  C_8
REMARK    6  A    between atoms: C_18  and  C_19
REMARK    7  A    between atoms: C_19  and  C_20
REMARK    8  A    between atoms: C_19  and  C_21
REMARK    9  A    between atoms: C_19  and  C_22
REMARK   10  A    between atoms: C_25  and  C_26
REMARK   11  A    between atoms: C_32  and  C_33
REMARK   12  A    between atoms: N_34  and  C_35
REMARK   13  A    between atoms: N_34  and  C_36
REMARK                            x       y       z     vdW  Elec       q    Type
REMARK                         _______ _______ _______ _____ _____    ______ ____
ROOT
ATOM      1  C   UNL     1      46.286 -20.630 -40.607  0.00  0.00    +0.007 C 
ATOM      2  C   UNL     1      47.267 -20.736 -39.411  0.00  0.00    +0.061 C 
ATOM      3  C   UNL     1      46.902 -19.631 -38.411  0.00  0.00    -0.020 C 
ATOM      4  C   UNL     1      45.752 -18.813 -39.037  0.00  0.00    -0.020 C 
ATOM      5  C   UNL     1      46.379 -17.643 -39.863  0.00  0.00    -0.059 C 
ATOM      6  C   UNL     1      44.794 -18.176 -37.950  0.00  0.00    -0.025 C 
ATOM      7  C   UNL     1      45.592 -17.288 -36.934  0.00  0.00    -0.048 C 
ATOM      8  C   UNL     1      45.548 -17.681 -35.449  0.00  0.00    -0.046 C 
ATOM      9  C   UNL     1      44.212 -17.441 -34.691  0.00  0.00    -0.009 C 
ATOM     10  C   UNL     1      43.085 -17.265 -35.690  0.00  0.00    -0.069 C 
ATOM     11  C   UNL     1      42.507 -16.072 -35.916  0.00  0.00    -0.082 C 
ATOM     12  C   UNL     1      42.893 -14.802 -35.220  0.00  0.00    -0.011 C 
ATOM     13  C   UNL     1      44.126 -14.920 -34.300  0.00  0.00    +0.067 C 
ATOM     14  N   UNL     1      44.059 -13.836 -33.317  0.00  0.00    -0.250 NA
ATOM     15  C   UNL     1      43.474 -14.055 -32.194  0.00  0.00    +0.191 C 
ATOM     16  O   UNL     1      42.934 -15.235 -31.807  0.00  0.00    -0.479 OA
ATOM     17  C   UNL     1      43.053 -16.391 -32.659  0.00  0.00    +0.099 C 
ATOM     18  C   UNL     1      44.255 -16.289 -33.616  0.00  0.00    +0.031 C 
ATOM     19  C   UNL     1      45.545 -16.367 -32.757  0.00  0.00    -0.054 C 
ATOM     20  C   UNL     1      42.680 -18.483 -36.487  0.00  0.00    -0.022 C 
ATOM     21  C   UNL     1      43.822 -19.175 -37.267  0.00  0.00    +0.025 C 
ATOM     22  C   UNL     1      43.207 -20.118 -38.291  0.00  0.00    +0.138 C 
ATOM     23  O   UNL     1      42.002 -20.358 -38.349  0.00  0.00    -0.297 OA
ATOM     24  C   UNL     1      44.174 -20.857 -39.171  0.00  0.00    +0.012 C 
ATOM     25  C   UNL     1      45.049 -19.878 -39.977  0.00  0.00    -0.013 C 
ATOM     26  C   UNL     1      44.168 -19.175 -41.034  0.00  0.00    -0.058 C 
ENDROOT
BRANCH  15  27
ATOM     27  C   UNL     1      43.320 -12.942 -31.154  0.00  0.00    +0.038 C 
ATOM     28  C   UNL     1      44.300 -13.098 -29.980  0.00  0.00    -0.052 C 
ATOM     29  C   UNL     1      43.584 -11.585 -31.829  0.00  0.00    -0.052 C 
ATOM     30  C   UNL     1      41.881 -12.987 -30.620  0.00  0.00    -0.052 C 
ENDBRANCH  15  27
BRANCH   1  32
ATOM     31  C   UNL     1      45.364 -21.785 -42.737  0.00  0.00    -0.049 C 
ATOM     32  C   UNL     1      46.075 -21.972 -41.386  0.00  0.00    +0.013 C 
BRANCH  32  33
ATOM     33  N   UNL     1      47.297 -22.751 -41.710  0.00  0.00    -0.305 N 
ATOM     34  C   UNL     1      48.442 -21.942 -42.106  0.00  0.00    -0.013 C 
ATOM     35  C   UNL     1      47.116 -23.893 -42.598  0.00  0.00    -0.013 C 
ATOM     36  H   UNL     1      47.517 -23.158 -40.801  0.00  0.00    +0.000 HD
ENDBRANCH  32  33
ENDBRANCH   1  32
BRANCH   2  37
ATOM     37  O   UNL     1      47.151 -21.981 -38.727  0.00  0.00    -0.391 OA
ATOM     38  H   UNL     1      46.942 -22.682 -39.364  0.00  0.00    +0.000 HD
ENDBRANCH   2  37
TORSDOF 4
ENDMDL
MODEL 8
REMARK VINA RESULT:    -7.164     17.503     20.960
REMARK INTER + INTRA:          -8.680
REMARK INTER:                  -7.872
REMARK INTRA:                  -0.808
REMARK UNBOUND:                -0.050
REMARK  Name = cpd87.pdb
REMARK  13 active torsions:
REMARK  status: ('A' for Active; 'I' for Inactive)
REMARK    1  A    between atoms: C_1  and  C_2
REMARK    2  A    between atoms: C_2  and  C_3
REMARK    3  A    between atoms: C_2  and  N_34
REMARK    4  A    between atoms: C_4  and  O_5
REMARK    5  A    between atoms: C_7  and  C_8
REMARK    6  A    between atoms: C_18  and  C_19
REMARK    7  A    between atoms: C_19  and  C_20
REMARK    8  A    between atoms: C_19  and  C_21
REMARK    9  A    between atoms: C_19  and  C_22
REMARK   10  A    between atoms: C_25  and  C_26
REMARK   11  A    between atoms: C_32  and  C_33
REMARK   12  A    between atoms: N_34  and  C_35
REMARK   13  A    between atoms: N_34  and  C_36
REMARK                            x       y       z     vdW  Elec       q    Type
REMARK                         _______ _______ _______ _____ _____    ______ ____
ROOT
ATOM      1  C   UNL     1      26.069 -31.149 -32.357  0.00  0.00    +0.007 C 
ATOM      2  C   UNL     1      25.947 -32.220 -31.243  0.00  0.00    +0.061 C 
ATOM      3  C   UNL     1      27.269 -33.000 -31.202  0.00  0.00    -0.020 C 
ATOM      4  C   UNL     1      28.156 -32.450 -32.340  0.00  0.00    -0.020 C 
ATOM      5  C   UNL     1      27.878 -33.294 -33.626  0.00  0.00    -0.059 C 
ATOM      6  C   UNL     1      29.701 -32.561 -32.016  0.00  0.00    -0.025 C 
ATOM      7  C   UNL     1      30.111 -34.037 -31.681  0.00  0.00    -0.048 C 
ATOM      8  C   UNL     1      30.710 -34.318 -30.295  0.00  0.00    -0.046 C 
ATOM      9  C   UNL     1      32.152 -33.801 -30.026  0.00  0.00    -0.009 C 
ATOM     10  C   UNL     1      32.510 -32.742 -31.050  0.00  0.00    -0.069 C 
ATOM     11  C   UNL     1      33.393 -32.971 -32.039  0.00  0.00    -0.082 C 
ATOM     12  C   UNL     1      34.116 -34.267 -32.241  0.00  0.00    -0.011 C 
ATOM     13  C   UNL     1      33.671 -35.408 -31.301  0.00  0.00    +0.067 C 
ATOM     14  N   UNL     1      34.765 -36.379 -31.223  0.00  0.00    -0.250 NA
ATOM     15  C   UNL     1      35.641 -36.250 -30.292  0.00  0.00    +0.191 C 
ATOM     16  O   UNL     1      35.628 -35.299 -29.328  0.00  0.00    -0.479 OA
ATOM     17  C   UNL     1      34.529 -34.370 -29.253  0.00  0.00    +0.099 C 
ATOM     18  C   UNL     1      33.250 -34.925 -29.905  0.00  0.00    +0.031 C 
ATOM     19  C   UNL     1      32.754 -36.107 -29.030  0.00  0.00    -0.054 C 
ATOM     20  C   UNL     1      31.775 -31.425 -30.960  0.00  0.00    -0.022 C 
ATOM     21  C   UNL     1      30.232 -31.525 -30.989  0.00  0.00    +0.025 C 
ATOM     22  C   UNL     1      29.662 -30.142 -31.272  0.00  0.00    +0.138 C 
ATOM     23  O   UNL     1      30.353 -29.125 -31.320  0.00  0.00    -0.297 OA
ATOM     24  C   UNL     1      28.166 -30.053 -31.371  0.00  0.00    +0.012 C 
ATOM     25  C   UNL     1      27.631 -30.963 -32.493  0.00  0.00    -0.013 C 
ATOM     26  C   UNL     1      28.052 -30.374 -33.859  0.00  0.00    -0.058 C 
ENDROOT
BRANCH  15  27
ATOM     27  C   UNL     1      36.839 -37.199 -30.199  0.00  0.00    +0.038 C 
ATOM     28  C   UNL     1      38.046 -36.699 -31.008  0.00  0.00    -0.052 C 
ATOM     29  C   UNL     1      37.263 -37.328 -28.726  0.00  0.00    -0.052 C 
ATOM     30  C   UNL     1      36.401 -38.568 -30.737  0.00  0.00    -0.052 C 
ENDBRANCH  15  27
BRANCH   1  32
ATOM     31  C   UNL     1      24.749 -29.215 -33.471  0.00  0.00    -0.049 C 
ATOM     32  C   UNL     1      25.145 -29.901 -32.152  0.00  0.00    +0.013 C 
BRANCH  32  33
ATOM     33  N   UNL     1      23.858 -30.135 -31.450  0.00  0.00    -0.305 N 
ATOM     34  C   UNL     1      22.776 -30.599 -32.309  0.00  0.00    -0.013 C 
ATOM     35  C   UNL     1      23.412 -29.077 -30.553  0.00  0.00    -0.013 C 
ATOM     36  H   UNL     1      24.108 -30.911 -30.837  0.00  0.00    +0.000 HD
ENDBRANCH  32  33
ENDBRANCH   1  32
BRANCH   2  37
ATOM     37  O   UNL     1      25.759 -31.639 -29.955  0.00  0.00    -0.391 OA
ATOM     38  H   UNL     1      25.809 -32.332 -29.278  0.00  0.00    +0.000 HD
ENDBRANCH   2  37
TORSDOF 4
ENDMDL
MODEL 9
REMARK VINA RESULT:    -7.107     23.138     28.223
REMARK INTER + INTRA:          -8.611
REMARK INTER:                  -7.918
REMARK INTRA:                  -0.692
REMARK UNBOUND:                -0.050
REMARK  Name = cpd87.pdb
REMARK  13 active torsions:
REMARK  status: ('A' for Active; 'I' for Inactive)
REMARK    1  A    between atoms: C_1  and  C_2
REMARK    2  A    between atoms: C_2  and  C_3
REMARK    3  A    between atoms: C_2  and  N_34
REMARK    4  A    between atoms: C_4  and  O_5
REMARK    5  A    between atoms: C_7  and  C_8
REMARK    6  A    between atoms: C_18  and  C_19
REMARK    7  A    between atoms: C_19  and  C_20
REMARK    8  A    between atoms: C_19  and  C_21
REMARK    9  A    between atoms: C_19  and  C_22
REMARK   10  A    between atoms: C_25  and  C_26
REMARK   11  A    between atoms: C_32  and  C_33
REMARK   12  A    between atoms: N_34  and  C_35
REMARK   13  A    between atoms: N_34  and  C_36
REMARK                            x       y       z     vdW  Elec       q    Type
REMARK                         _______ _______ _______ _____ _____    ______ ____
ROOT
ATOM      1  C   UNL     1      62.015 -11.813 -30.237  0.00  0.00    +0.007 C 
ATOM      2  C   UNL     1      63.033 -10.914 -30.986  0.00  0.00    +0.061 C 
ATOM      3  C   UNL     1      64.437 -11.296 -30.497  0.00  0.00    -0.020 C 
ATOM      4  C   UNL     1      64.260 -12.369 -29.401  0.00  0.00    -0.020 C 
ATOM      5  C   UNL     1      64.147 -11.643 -28.021  0.00  0.00    -0.059 C 
ATOM      6  C   UNL     1      65.486 -13.367 -29.321  0.00  0.00    -0.025 C 
ATOM      7  C   UNL     1      66.836 -12.598 -29.106  0.00  0.00    -0.048 C 
ATOM      8  C   UNL     1      67.927 -12.752 -30.177  0.00  0.00    -0.046 C 
ATOM      9  C   UNL     1      68.658 -14.123 -30.253  0.00  0.00    -0.009 C 
ATOM     10  C   UNL     1      67.840 -15.176 -29.532  0.00  0.00    -0.069 C 
ATOM     11  C   UNL     1      68.217 -15.688 -28.346  0.00  0.00    -0.082 C 
ATOM     12  C   UNL     1      69.464 -15.295 -27.615  0.00  0.00    -0.011 C 
ATOM     13  C   UNL     1      70.246 -14.128 -28.255  0.00  0.00    +0.067 C 
ATOM     14  N   UNL     1      71.635 -14.212 -27.795  0.00  0.00    -0.250 NA
ATOM     15  C   UNL     1      72.480 -14.876 -28.501  0.00  0.00    +0.191 C 
ATOM     16  O   UNL     1      72.212 -15.488 -29.678  0.00  0.00    -0.479 OA
ATOM     17  C   UNL     1      70.903 -15.363 -30.268  0.00  0.00    +0.099 C 
ATOM     18  C   UNL     1      70.164 -14.100 -29.788  0.00  0.00    +0.031 C 
ATOM     19  C   UNL     1      70.915 -12.871 -30.367  0.00  0.00    -0.054 C 
ATOM     20  C   UNL     1      66.531 -15.580 -30.167  0.00  0.00    -0.022 C 
ATOM     21  C   UNL     1      65.550 -14.420 -30.459  0.00  0.00    +0.025 C 
ATOM     22  C   UNL     1      64.172 -15.008 -30.730  0.00  0.00    +0.138 C 
ATOM     23  O   UNL     1      63.962 -16.216 -30.828  0.00  0.00    -0.297 OA
ATOM     24  C   UNL     1      63.075 -14.019 -31.002  0.00  0.00    +0.012 C 
ATOM     25  C   UNL     1      62.892 -13.055 -29.813  0.00  0.00    -0.013 C 
ATOM     26  C   UNL     1      62.294 -13.837 -28.622  0.00  0.00    -0.058 C 
ENDROOT
BRANCH  15  27
ATOM     27  C   UNL     1      73.930 -15.048 -28.039  0.00  0.00    +0.038 C 
ATOM     28  C   UNL     1      74.180 -14.432 -26.653  0.00  0.00    -0.052 C 
ATOM     29  C   UNL     1      74.258 -16.549 -27.969  0.00  0.00    -0.052 C 
ATOM     30  C   UNL     1      74.840 -14.362 -29.068  0.00  0.00    -0.052 C 
ENDBRANCH  15  27
BRANCH   1  32
ATOM     31  C   UNL     1      59.566 -12.657 -30.129  0.00  0.00    -0.049 C 
ATOM     32  C   UNL     1      60.665 -12.030 -31.002  0.00  0.00    +0.013 C 
BRANCH  32  33
ATOM     33  N   UNL     1      60.034 -10.822 -31.590  0.00  0.00    -0.305 N 
ATOM     34  C   UNL     1      59.391  -9.943 -30.622  0.00  0.00    -0.013 C 
ATOM     35  C   UNL     1      59.188 -11.040 -32.757  0.00  0.00    -0.013 C 
ATOM     36  H   UNL     1      60.851 -10.327 -31.948  0.00  0.00    +0.000 HD
ENDBRANCH  32  33
ENDBRANCH   1  32
BRANCH   2  37
ATOM     37  O   UNL     1      63.004 -11.125 -32.395  0.00  0.00    -0.391 OA
ATOM     38  H   UNL     1      62.509 -11.936 -32.591  0.00  0.00    +0.000 HD
ENDBRANCH   2  37
TORSDOF 4
ENDMDL
MODEL 10
REMARK VINA RESULT:    -7.081      3.919      5.862
REMARK INTER + INTRA:          -8.580
REMARK INTER:                  -7.786
REMARK INTRA:                  -0.794
REMARK UNBOUND:                -0.050
REMARK  Name = cpd87.pdb
REMARK  13 active torsions:
REMARK  status: ('A' for Active; 'I' for Inactive)
REMARK    1  A    between atoms: C_1  and  C_2
REMARK    2  A    between atoms: C_2  and  C_3
REMARK    3  A    between atoms: C_2  and  N_34
REMARK    4  A    between atoms: C_4  and  O_5
REMARK    5  A    between atoms: C_7  and  C_8
REMARK    6  A    between atoms: C_18  and  C_19
REMARK    7  A    between atoms: C_19  and  C_20
REMARK    8  A    between atoms: C_19  and  C_21
REMARK    9  A    between atoms: C_19  and  C_22
REMARK   10  A    between atoms: C_25  and  C_26
REMARK   11  A    between atoms: C_32  and  C_33
REMARK   12  A    between atoms: N_34  and  C_35
REMARK   13  A    between atoms: N_34  and  C_36
REMARK                            x       y       z     vdW  Elec       q    Type
REMARK                         _______ _______ _______ _____ _____    ______ ____
ROOT
ATOM      1  C   UNL     1      45.787 -14.685 -41.409  0.00  0.00    +0.007 C 
ATOM      2  C   UNL     1      44.368 -14.171 -41.051  0.00  0.00    +0.061 C 
ATOM      3  C   UNL     1      43.652 -15.288 -40.278  0.00  0.00    -0.020 C 
ATOM      4  C   UNL     1      44.609 -16.498 -40.236  0.00  0.00    -0.020 C 
ATOM      5  C   UNL     1      44.320 -17.392 -41.486  0.00  0.00    -0.059 C 
ATOM      6  C   UNL     1      44.406 -17.393 -38.947  0.00  0.00    -0.025 C 
ATOM      7  C   UNL     1      42.921 -17.879 -38.817  0.00  0.00    -0.048 C 
ATOM      8  C   UNL     1      42.137 -17.464 -37.562  0.00  0.00    -0.046 C 
ATOM      9  C   UNL     1      42.533 -18.144 -36.221  0.00  0.00    -0.009 C 
ATOM     10  C   UNL     1      43.910 -18.766 -36.353  0.00  0.00    -0.069 C 
ATOM     11  C   UNL     1      44.091 -20.097 -36.420  0.00  0.00    -0.082 C 
ATOM     12  C   UNL     1      42.983 -21.104 -36.366  0.00  0.00    -0.011 C 
ATOM     13  C   UNL     1      41.562 -20.500 -36.371  0.00  0.00    +0.067 C 
ATOM     14  N   UNL     1      40.652 -21.487 -35.786  0.00  0.00    -0.250 NA
ATOM     15  C   UNL     1      40.427 -21.448 -34.521  0.00  0.00    +0.191 C 
ATOM     16  O   UNL     1      40.933 -20.534 -33.661  0.00  0.00    -0.479 OA
ATOM     17  C   UNL     1      41.746 -19.454 -34.162  0.00  0.00    +0.099 C 
ATOM     18  C   UNL     1      41.465 -19.150 -35.644  0.00  0.00    +0.031 C 
ATOM     19  C   UNL     1      40.031 -18.565 -35.738  0.00  0.00    -0.054 C 
ATOM     20  C   UNL     1      45.079 -17.819 -36.483  0.00  0.00    -0.022 C 
ATOM     21  C   UNL     1      44.976 -16.792 -37.635  0.00  0.00    +0.025 C 
ATOM     22  C   UNL     1      46.352 -16.187 -37.870  0.00  0.00    +0.138 C 
ATOM     23  O   UNL     1      47.320 -16.410 -37.143  0.00  0.00    -0.297 OA
ATOM     24  C   UNL     1      46.451 -15.185 -38.984  0.00  0.00    +0.012 C 
ATOM     25  C   UNL     1      46.034 -15.809 -40.329  0.00  0.00    -0.013 C 
ATOM     26  C   UNL     1      47.108 -16.833 -40.759  0.00  0.00    -0.058 C 
ENDROOT
BRANCH  15  27
ATOM     27  C   UNL     1      39.532 -22.492 -33.846  0.00  0.00    +0.038 C 
ATOM     28  C   UNL     1      40.331 -23.466 -32.966  0.00  0.00    -0.052 C 
ATOM     29  C   UNL     1      38.501 -21.772 -32.962  0.00  0.00    -0.052 C 
ATOM     30  C   UNL     1      38.812 -23.282 -34.949  0.00  0.00    -0.052 C 
ENDBRANCH  15  27
BRANCH   1  32
ATOM     31  C   UNL     1      48.044 -13.988 -42.477  0.00  0.00    -0.049 C 
ATOM     32  C   UNL     1      46.847 -13.550 -41.617  0.00  0.00    +0.013 C 
BRANCH  32  33
ATOM     33  N   UNL     1      46.364 -12.299 -42.255  0.00  0.00    -0.305 N 
ATOM     34  C   UNL     1      46.298 -12.349 -43.710  0.00  0.00    -0.013 C 
ATOM     35  C   UNL     1      46.976 -11.061 -41.790  0.00  0.00    -0.013 C 
ATOM     36  H   UNL     1      45.404 -12.262 -41.913  0.00  0.00    +0.000 HD
ENDBRANCH  32  33
ENDBRANCH   1  32
BRANCH   2  37
ATOM     37  O   UNL     1      44.407 -13.028 -40.202  0.00  0.00    -0.391 OA
ATOM     38  H   UNL     1      45.329 -12.773 -40.044  0.00  0.00    +0.000 HD
ENDBRANCH   2  37
TORSDOF 4
ENDMDL
MODEL 11
REMARK VINA RESULT:    -6.957      4.131     10.149
REMARK INTER + INTRA:          -8.430
REMARK INTER:                  -7.623
REMARK INTRA:                  -0.807
REMARK UNBOUND:                -0.050
REMARK  Name = cpd87.pdb
REMARK  13 active torsions:
REMARK  status: ('A' for Active; 'I' for Inactive)
REMARK    1  A    between atoms: C_1  and  C_2
REMARK    2  A    between atoms: C_2  and  C_3
REMARK    3  A    between atoms: C_2  and  N_34
REMARK    4  A    between atoms: C_4  and  O_5
REMARK    5  A    between atoms: C_7  and  C_8
REMARK    6  A    between atoms: C_18  and  C_19
REMARK    7  A    between atoms: C_19  and  C_20
REMARK    8  A    between atoms: C_19  and  C_21
REMARK    9  A    between atoms: C_19  and  C_22
REMARK   10  A    between atoms: C_25  and  C_26
REMARK   11  A    between atoms: C_32  and  C_33
REMARK   12  A    between atoms: N_34  and  C_35
REMARK   13  A    between atoms: N_34  and  C_36
REMARK                            x       y       z     vdW  Elec       q    Type
REMARK                         _______ _______ _______ _____ _____    ______ ____
ROOT
ATOM      1  C   UNL     1      41.838 -13.718 -32.878  0.00  0.00    +0.007 C 
ATOM      2  C   UNL     1      41.153 -13.605 -34.264  0.00  0.00    +0.061 C 
ATOM      3  C   UNL     1      41.931 -14.499 -35.240  0.00  0.00    -0.020 C 
ATOM      4  C   UNL     1      43.126 -15.089 -34.462  0.00  0.00    -0.020 C 
ATOM      5  C   UNL     1      44.342 -14.120 -34.626  0.00  0.00    -0.059 C 
ATOM      6  C   UNL     1      43.567 -16.509 -35.005  0.00  0.00    -0.025 C 
ATOM      7  C   UNL     1      43.896 -16.459 -36.537  0.00  0.00    -0.048 C 
ATOM      8  C   UNL     1      43.067 -17.345 -37.479  0.00  0.00    -0.046 C 
ATOM      9  C   UNL     1      43.325 -18.878 -37.420  0.00  0.00    -0.009 C 
ATOM     10  C   UNL     1      44.041 -19.224 -36.129  0.00  0.00    -0.069 C 
ATOM     11  C   UNL     1      45.337 -19.585 -36.103  0.00  0.00    -0.082 C 
ATOM     12  C   UNL     1      46.207 -19.692 -37.317  0.00  0.00    -0.011 C 
ATOM     13  C   UNL     1      45.548 -19.215 -38.628  0.00  0.00    +0.067 C 
ATOM     14  N   UNL     1      46.250 -19.854 -39.743  0.00  0.00    -0.250 NA
ATOM     15  C   UNL     1      45.809 -20.977 -40.189  0.00  0.00    +0.191 C 
ATOM     16  O   UNL     1      44.707 -21.622 -39.739  0.00  0.00    -0.479 OA
ATOM     17  C   UNL     1      43.886 -21.014 -38.723  0.00  0.00    +0.099 C 
ATOM     18  C   UNL     1      44.037 -19.482 -38.690  0.00  0.00    +0.031 C 
ATOM     19  C   UNL     1      43.422 -18.923 -40.001  0.00  0.00    -0.054 C 
ATOM     20  C   UNL     1      43.254 -19.075 -34.848  0.00  0.00    -0.022 C 
ATOM     21  C   UNL     1      42.627 -17.681 -34.614  0.00  0.00    +0.025 C 
ATOM     22  C   UNL     1      42.210 -17.577 -33.154  0.00  0.00    +0.138 C 
ATOM     23  O   UNL     1      42.257 -18.523 -32.370  0.00  0.00    -0.297 OA
ATOM     24  C   UNL     1      41.607 -16.267 -32.732  0.00  0.00    +0.012 C 
ATOM     25  C   UNL     1      42.588 -15.104 -32.971  0.00  0.00    -0.013 C 
ATOM     26  C   UNL     1      43.759 -15.224 -31.970  0.00  0.00    -0.058 C 
ENDROOT
BRANCH  15  27
ATOM     27  C   UNL     1      46.538 -21.720 -41.312  0.00  0.00    +0.038 C 
ATOM     28  C   UNL     1      45.622 -22.012 -42.511  0.00  0.00    -0.052 C 
ATOM     29  C   UNL     1      47.717 -20.862 -41.799  0.00  0.00    -0.052 C 
ATOM     30  C   UNL     1      47.060 -23.047 -40.740  0.00  0.00    -0.052 C 
ENDBRANCH  15  27
BRANCH   1  32
ATOM     31  C   UNL     1      41.633 -12.879 -30.433  0.00  0.00    -0.049 C 
ATOM     32  C   UNL     1      40.890 -13.419 -31.667  0.00  0.00    +0.013 C 
BRANCH  32  33
ATOM     33  N   UNL     1      39.798 -12.442 -31.904  0.00  0.00    -0.305 N 
ATOM     34  C   UNL     1      40.187 -11.047 -31.738  0.00  0.00    -0.013 C 
ATOM     35  C   UNL     1      38.528 -12.723 -31.248  0.00  0.00    -0.013 C 
ATOM     36  H   UNL     1      39.617 -12.586 -32.898  0.00  0.00    +0.000 HD
ENDBRANCH  32  33
ENDBRANCH   1  32
BRANCH   2  37
ATOM     37  O   UNL     1      39.808 -14.075 -34.241  0.00  0.00    -0.391 OA
ATOM     38  H   UNL     1      39.710 -14.742 -33.543  0.00  0.00    +0.000 HD
ENDBRANCH   2  37
TORSDOF 4
ENDMDL
MODEL 12
REMARK VINA RESULT:    -6.942      3.645      9.539
REMARK INTER + INTRA:          -8.413
REMARK INTER:                  -7.852
REMARK INTRA:                  -0.561
REMARK UNBOUND:                -0.050
REMARK  Name = cpd87.pdb
REMARK  13 active torsions:
REMARK  status: ('A' for Active; 'I' for Inactive)
REMARK    1  A    between atoms: C_1  and  C_2
REMARK    2  A    between atoms: C_2  and  C_3
REMARK    3  A    between atoms: C_2  and  N_34
REMARK    4  A    between atoms: C_4  and  O_5
REMARK    5  A    between atoms: C_7  and  C_8
REMARK    6  A    between atoms: C_18  and  C_19
REMARK    7  A    between atoms: C_19  and  C_20
REMARK    8  A    between atoms: C_19  and  C_21
REMARK    9  A    between atoms: C_19  and  C_22
REMARK   10  A    between atoms: C_25  and  C_26
REMARK   11  A    between atoms: C_32  and  C_33
REMARK   12  A    between atoms: N_34  and  C_35
REMARK   13  A    between atoms: N_34  and  C_36
REMARK                            x       y       z     vdW  Elec       q    Type
REMARK                         _______ _______ _______ _____ _____    ______ ____
ROOT
ATOM      1  C   UNL     1      39.900 -20.803 -34.635  0.00  0.00    +0.007 C 
ATOM      2  C   UNL     1      40.463 -21.578 -35.855  0.00  0.00    +0.061 C 
ATOM      3  C   UNL     1      41.271 -20.585 -36.702  0.00  0.00    -0.020 C 
ATOM      4  C   UNL     1      41.131 -19.200 -36.035  0.00  0.00    -0.020 C 
ATOM      5  C   UNL     1      39.890 -18.481 -36.658  0.00  0.00    -0.059 C 
ATOM      6  C   UNL     1      42.394 -18.276 -36.276  0.00  0.00    -0.025 C 
ATOM      7  C   UNL     1      42.694 -18.107 -37.806  0.00  0.00    -0.048 C 
ATOM      8  C   UNL     1      44.058 -18.586 -38.326  0.00  0.00    -0.046 C 
ATOM      9  C   UNL     1      45.304 -17.741 -37.933  0.00  0.00    -0.009 C 
ATOM     10  C   UNL     1      44.964 -16.854 -36.752  0.00  0.00    -0.069 C 
ATOM     11  C   UNL     1      44.814 -15.523 -36.876  0.00  0.00    -0.082 C 
ATOM     12  C   UNL     1      44.965 -14.772 -38.164  0.00  0.00    -0.011 C 
ATOM     13  C   UNL     1      45.175 -15.662 -39.408  0.00  0.00    +0.067 C 
ATOM     14  N   UNL     1      45.827 -14.849 -40.437  0.00  0.00    -0.250 NA
ATOM     15  C   UNL     1      47.111 -14.843 -40.498  0.00  0.00    +0.191 C 
ATOM     16  O   UNL     1      47.938 -15.564 -39.705  0.00  0.00    -0.479 OA
ATOM     17  C   UNL     1      47.386 -16.481 -38.740  0.00  0.00    +0.099 C 
ATOM     18  C   UNL     1      45.968 -16.945 -39.121  0.00  0.00    +0.031 C 
ATOM     19  C   UNL     1      46.090 -17.825 -40.393  0.00  0.00    -0.054 C 
ATOM     20  C   UNL     1      44.726 -17.538 -35.427  0.00  0.00    -0.022 C 
ATOM     21  C   UNL     1      43.647 -18.646 -35.438  0.00  0.00    +0.025 C 
ATOM     22  C   UNL     1      43.261 -18.961 -34.000  0.00  0.00    +0.138 C 
ATOM     23  O   UNL     1      43.845 -18.486 -33.026  0.00  0.00    -0.297 OA
ATOM     24  C   UNL     1      42.191 -19.999 -33.816  0.00  0.00    +0.012 C 
ATOM     25  C   UNL     1      40.885 -19.576 -34.515  0.00  0.00    -0.013 C 
ATOM     26  C   UNL     1      40.271 -18.382 -33.750  0.00  0.00    -0.058 C 
ENDROOT
BRANCH  15  27
ATOM     27  C   UNL     1      47.848 -13.965 -41.513  0.00  0.00    +0.038 C 
ATOM     28  C   UNL     1      48.735 -12.907 -40.838  0.00  0.00    -0.052 C 
ATOM     29  C   UNL     1      48.741 -14.857 -42.392  0.00  0.00    -0.052 C 
ATOM     30  C   UNL     1      46.796 -13.262 -42.383  0.00  0.00    -0.052 C 
ENDBRANCH  15  27
BRANCH   1  32
ATOM     31  C   UNL     1      38.262 -21.380 -32.709  0.00  0.00    -0.049 C 
ATOM     32  C   UNL     1      39.606 -21.700 -33.385  0.00  0.00    +0.013 C 
BRANCH  32  33
ATOM     33  N   UNL     1      39.571 -23.167 -33.612  0.00  0.00    -0.305 N 
ATOM     34  C   UNL     1      38.242 -23.708 -33.863  0.00  0.00    -0.013 C 
ATOM     35  C   UNL     1      40.310 -23.985 -32.659  0.00  0.00    -0.013 C 
ATOM     36  H   UNL     1      40.095 -23.243 -34.485  0.00  0.00    +0.000 HD
ENDBRANCH  32  33
ENDBRANCH   1  32
BRANCH   2  37
ATOM     37  O   UNL     1      41.350 -22.622 -35.467  0.00  0.00    -0.391 OA
ATOM     38  H   UNL     1      41.122 -23.435 -35.945  0.00  0.00    +0.000 HD
ENDBRANCH   2  37
TORSDOF 4
ENDMDL
MODEL 13
REMARK VINA RESULT:    -6.926      2.695      9.914
REMARK INTER + INTRA:          -8.393
REMARK INTER:                  -7.641
REMARK INTRA:                  -0.752
REMARK UNBOUND:                -0.050
REMARK  Name = cpd87.pdb
REMARK  13 active torsions:
REMARK  status: ('A' for Active; 'I' for Inactive)
REMARK    1  A    between atoms: C_1  and  C_2
REMARK    2  A    between atoms: C_2  and  C_3
REMARK    3  A    between atoms: C_2  and  N_34
REMARK    4  A    between atoms: C_4  and  O_5
REMARK    5  A    between atoms: C_7  and  C_8
REMARK    6  A    between atoms: C_18  and  C_19
REMARK    7  A    between atoms: C_19  and  C_20
REMARK    8  A    between atoms: C_19  and  C_21
REMARK    9  A    between atoms: C_19  and  C_22
REMARK   10  A    between atoms: C_25  and  C_26
REMARK   11  A    between atoms: C_32  and  C_33
REMARK   12  A    between atoms: N_34  and  C_35
REMARK   13  A    between atoms: N_34  and  C_36
REMARK                            x       y       z     vdW  Elec       q    Type
REMARK                         _______ _______ _______ _____ _____    ______ ____
ROOT
ATOM      1  C   UNL     1      39.951 -16.435 -33.315  0.00  0.00    +0.007 C 
ATOM      2  C   UNL     1      41.410 -15.915 -33.235  0.00  0.00    +0.061 C 
ATOM      3  C   UNL     1      42.268 -16.798 -34.151  0.00  0.00    -0.020 C 
ATOM      4  C   UNL     1      41.343 -17.894 -34.723  0.00  0.00    -0.020 C 
ATOM      5  C   UNL     1      41.388 -19.123 -33.757  0.00  0.00    -0.059 C 
ATOM      6  C   UNL     1      41.798 -18.391 -36.155  0.00  0.00    -0.025 C 
ATOM      7  C   UNL     1      43.282 -18.895 -36.141  0.00  0.00    -0.048 C 
ATOM      8  C   UNL     1      44.292 -18.178 -37.050  0.00  0.00    -0.046 C 
ATOM      9  C   UNL     1      44.167 -18.423 -38.581  0.00  0.00    -0.009 C 
ATOM     10  C   UNL     1      42.795 -18.984 -38.896  0.00  0.00    -0.069 C 
ATOM     11  C   UNL     1      42.611 -20.268 -39.256  0.00  0.00    -0.082 C 
ATOM     12  C   UNL     1      43.713 -21.273 -39.392  0.00  0.00    -0.011 C 
ATOM     13  C   UNL     1      45.103 -20.770 -38.946  0.00  0.00    +0.067 C 
ATOM     14  N   UNL     1      46.114 -21.594 -39.612  0.00  0.00    -0.250 NA
ATOM     15  C   UNL     1      46.581 -21.205 -40.745  0.00  0.00    +0.191 C 
ATOM     16  O   UNL     1      46.246 -20.057 -41.379  0.00  0.00    -0.479 OA
ATOM     17  C   UNL     1      45.346 -19.126 -40.747  0.00  0.00    +0.099 C 
ATOM     18  C   UNL     1      45.332 -19.276 -39.215  0.00  0.00    +0.031 C 
ATOM     19  C   UNL     1      46.718 -18.818 -38.688  0.00  0.00    -0.054 C 
ATOM     20  C   UNL     1      41.618 -18.056 -38.717  0.00  0.00    -0.022 C 
ATOM     21  C   UNL     1      41.491 -17.409 -37.318  0.00  0.00    +0.025 C 
ATOM     22  C   UNL     1      40.091 -16.826 -37.178  0.00  0.00    +0.138 C 
ATOM     23  O   UNL     1      39.284 -16.780 -38.106  0.00  0.00    -0.297 OA
ATOM     24  C   UNL     1      39.773 -16.182 -35.859  0.00  0.00    +0.012 C 
ATOM     25  C   UNL     1      39.924 -17.187 -34.702  0.00  0.00    -0.013 C 
ATOM     26  C   UNL     1      38.792 -18.235 -34.798  0.00  0.00    -0.058 C 
ENDROOT
BRANCH  15  27
ATOM     27  C   UNL     1      47.594 -22.057 -41.515  0.00  0.00    +0.038 C 
ATOM     28  C   UNL     1      48.410 -22.975 -40.591  0.00  0.00    -0.052 C 
ATOM     29  C   UNL     1      46.843 -22.934 -42.530  0.00  0.00    -0.052 C 
ATOM     30  C   UNL     1      48.548 -21.105 -42.253  0.00  0.00    -0.052 C 
ENDBRANCH  15  27
BRANCH   1  32
ATOM     31  C   UNL     1      37.492 -15.957 -32.646  0.00  0.00    -0.049 C 
ATOM     32  C   UNL     1      38.866 -15.354 -32.986  0.00  0.00    +0.013 C 
BRANCH  32  33
ATOM     33  N   UNL     1      39.162 -14.436 -31.858  0.00  0.00    -0.305 N 
ATOM     34  C   UNL     1      38.767 -14.940 -30.549  0.00  0.00    -0.013 C 
ATOM     35  C   UNL     1      38.765 -13.046 -32.038  0.00  0.00    -0.013 C 
ATOM     36  H   UNL     1      40.182 -14.423 -31.879  0.00  0.00    +0.000 HD
ENDBRANCH  32  33
ENDBRANCH   1  32
BRANCH   2  37
ATOM     37  O   UNL     1      41.531 -14.575 -33.704  0.00  0.00    -0.391 OA
ATOM     38  H   UNL     1      40.966 -14.453 -34.483  0.00  0.00    +0.000 HD
ENDBRANCH   2  37
TORSDOF 4
ENDMDL
MODEL 14
REMARK VINA RESULT:    -6.883     32.838     34.709
REMARK INTER + INTRA:          -8.342
REMARK INTER:                  -7.796
REMARK INTRA:                  -0.546
REMARK UNBOUND:                -0.050
REMARK  Name = cpd87.pdb
REMARK  13 active torsions:
REMARK  status: ('A' for Active; 'I' for Inactive)
REMARK    1  A    between atoms: C_1  and  C_2
REMARK    2  A    between atoms: C_2  and  C_3
REMARK    3  A    between atoms: C_2  and  N_34
REMARK    4  A    between atoms: C_4  and  O_5
REMARK    5  A    between atoms: C_7  and  C_8
REMARK    6  A    between atoms: C_18  and  C_19
REMARK    7  A    between atoms: C_19  and  C_20
REMARK    8  A    between atoms: C_19  and  C_21
REMARK    9  A    between atoms: C_19  and  C_22
REMARK   10  A    between atoms: C_25  and  C_26
REMARK   11  A    between atoms: C_32  and  C_33
REMARK   12  A    between atoms: N_34  and  C_35
REMARK   13  A    between atoms: N_34  and  C_36
REMARK                            x       y       z     vdW  Elec       q    Type
REMARK                         _______ _______ _______ _____ _____    ______ ____
ROOT
ATOM      1  C   UNL     1      46.620 -49.791 -20.199  0.00  0.00    +0.007 C 
ATOM      2  C   UNL     1      46.449 -48.346 -20.736  0.00  0.00    +0.061 C 
ATOM      3  C   UNL     1      45.545 -47.590 -19.754  0.00  0.00    -0.020 C 
ATOM      4  C   UNL     1      45.109 -48.597 -18.668  0.00  0.00    -0.020 C 
ATOM      5  C   UNL     1      43.777 -49.270 -19.133  0.00  0.00    -0.059 C 
ATOM      6  C   UNL     1      44.838 -47.907 -17.270  0.00  0.00    -0.025 C 
ATOM      7  C   UNL     1      43.776 -46.760 -17.395  0.00  0.00    -0.048 C 
ATOM      8  C   UNL     1      44.207 -45.337 -17.008  0.00  0.00    -0.046 C 
ATOM      9  C   UNL     1      44.420 -45.047 -15.495  0.00  0.00    -0.009 C 
ATOM     10  C   UNL     1      44.577 -46.355 -14.744  0.00  0.00    -0.069 C 
ATOM     11  C   UNL     1      43.618 -46.833 -13.930  0.00  0.00    -0.082 C 
ATOM     12  C   UNL     1      42.313 -46.145 -13.668  0.00  0.00    -0.011 C 
ATOM     13  C   UNL     1      42.066 -44.883 -14.522  0.00  0.00    +0.067 C 
ATOM     14  N   UNL     1      41.088 -44.049 -13.820  0.00  0.00    -0.250 NA
ATOM     15  C   UNL     1      41.513 -43.148 -13.008  0.00  0.00    +0.191 C 
ATOM     16  O   UNL     1      42.813 -42.863 -12.762  0.00  0.00    -0.479 OA
ATOM     17  C   UNL     1      43.848 -43.552 -13.492  0.00  0.00    +0.099 C 
ATOM     18  C   UNL     1      43.346 -44.096 -14.842  0.00  0.00    +0.031 C 
ATOM     19  C   UNL     1      43.041 -42.878 -15.754  0.00  0.00    -0.054 C 
ATOM     20  C   UNL     1      45.835 -47.148 -15.004  0.00  0.00    -0.022 C 
ATOM     21  C   UNL     1      46.111 -47.486 -16.488  0.00  0.00    +0.025 C 
ATOM     22  C   UNL     1      47.168 -48.580 -16.547  0.00  0.00    +0.138 C 
ATOM     23  O   UNL     1      47.771 -48.989 -15.556  0.00  0.00    -0.297 OA
ATOM     24  C   UNL     1      47.540 -49.063 -17.919  0.00  0.00    +0.012 C 
ATOM     25  C   UNL     1      46.313 -49.628 -18.659  0.00  0.00    -0.013 C 
ATOM     26  C   UNL     1      45.889 -50.954 -17.985  0.00  0.00    -0.058 C 
ENDROOT
BRANCH  15  27
ATOM     27  C   UNL     1      40.535 -42.289 -12.201  0.00  0.00    +0.038 C 
ATOM     28  C   UNL     1      41.177 -40.984 -11.702  0.00  0.00    -0.052 C 
ATOM     29  C   UNL     1      39.333 -41.929 -13.090  0.00  0.00    -0.052 C 
ATOM     30  C   UNL     1      40.064 -43.114 -10.995  0.00  0.00    -0.052 C 
ENDBRANCH  15  27
BRANCH   1  32
ATOM     31  C   UNL     1      48.006 -51.981 -20.260  0.00  0.00    -0.049 C 
ATOM     32  C   UNL     1      47.936 -50.499 -20.666  0.00  0.00    +0.013 C 
BRANCH  32  33
ATOM     33  N   UNL     1      48.210 -50.497 -22.125  0.00  0.00    -0.305 N 
ATOM     34  C   UNL     1      48.015 -51.784 -22.779  0.00  0.00    -0.013 C 
ATOM     35  C   UNL     1      49.454 -49.866 -22.546  0.00  0.00    -0.013 C 
ATOM     36  H   UNL     1      47.474 -49.876 -22.462  0.00  0.00    +0.000 HD
ENDBRANCH  32  33
ENDBRANCH   1  32
BRANCH   2  37
ATOM     37  O   UNL     1      47.687 -47.644 -20.798  0.00  0.00    -0.391 OA
ATOM     38  H   UNL     1      48.087 -47.769 -21.673  0.00  0.00    +0.000 HD
ENDBRANCH   2  37
TORSDOF 4
ENDMDL
MODEL 15
REMARK VINA RESULT:    -6.824      2.050     10.465
REMARK INTER + INTRA:          -8.271
REMARK INTER:                  -7.465
REMARK INTRA:                  -0.805
REMARK UNBOUND:                -0.050
REMARK  Name = cpd87.pdb
REMARK  13 active torsions:
REMARK  status: ('A' for Active; 'I' for Inactive)
REMARK    1  A    between atoms: C_1  and  C_2
REMARK    2  A    between atoms: C_2  and  C_3
REMARK    3  A    between atoms: C_2  and  N_34
REMARK    4  A    between atoms: C_4  and  O_5
REMARK    5  A    between atoms: C_7  and  C_8
REMARK    6  A    between atoms: C_18  and  C_19
REMARK    7  A    between atoms: C_19  and  C_20
REMARK    8  A    between atoms: C_19  and  C_21
REMARK    9  A    between atoms: C_19  and  C_22
REMARK   10  A    between atoms: C_25  and  C_26
REMARK   11  A    between atoms: C_32  and  C_33
REMARK   12  A    between atoms: N_34  and  C_35
REMARK   13  A    between atoms: N_34  and  C_36
REMARK                            x       y       z     vdW  Elec       q    Type
REMARK                         _______ _______ _______ _____ _____    ______ ____
ROOT
ATOM      1  C   UNL     1      35.392 -17.445 -34.002  0.00  0.00    +0.007 C 
ATOM      2  C   UNL     1      34.987 -17.788 -35.459  0.00  0.00    +0.061 C 
ATOM      3  C   UNL     1      36.276 -18.059 -36.247  0.00  0.00    -0.020 C 
ATOM      4  C   UNL     1      37.458 -17.806 -35.286  0.00  0.00    -0.020 C 
ATOM      5  C   UNL     1      37.879 -16.306 -35.416  0.00  0.00    -0.059 C 
ATOM      6  C   UNL     1      38.723 -18.693 -35.629  0.00  0.00    -0.025 C 
ATOM      7  C   UNL     1      39.183 -18.484 -37.113  0.00  0.00    -0.048 C 
ATOM      8  C   UNL     1      39.185 -19.707 -38.043  0.00  0.00    -0.046 C 
ATOM      9  C   UNL     1      40.281 -20.783 -37.798  0.00  0.00    -0.009 C 
ATOM     10  C   UNL     1      40.862 -20.610 -36.408  0.00  0.00    -0.069 C 
ATOM     11  C   UNL     1      42.101 -20.127 -36.205  0.00  0.00    -0.082 C 
ATOM     12  C   UNL     1      43.037 -19.716 -37.299  0.00  0.00    -0.011 C 
ATOM     13  C   UNL     1      42.427 -19.750 -38.717  0.00  0.00    +0.067 C 
ATOM     14  N   UNL     1      43.527 -19.866 -39.677  0.00  0.00    -0.250 NA
ATOM     15  C   UNL     1      43.902 -21.037 -40.049  0.00  0.00    +0.191 C 
ATOM     16  O   UNL     1      43.338 -22.204 -39.658  0.00  0.00    -0.479 OA
ATOM     17  C   UNL     1      42.176 -22.187 -38.805  0.00  0.00    +0.099 C 
ATOM     18  C   UNL     1      41.391 -20.867 -38.914  0.00  0.00    +0.031 C 
ATOM     19  C   UNL     1      40.769 -20.809 -40.335  0.00  0.00    -0.054 C 
ATOM     20  C   UNL     1      39.958 -20.936 -35.243  0.00  0.00    -0.022 C 
ATOM     21  C   UNL     1      38.605 -20.187 -35.223  0.00  0.00    +0.025 C 
ATOM     22  C   UNL     1      37.995 -20.325 -33.836  0.00  0.00    +0.138 C 
ATOM     23  O   UNL     1      38.472 -21.042 -32.958  0.00  0.00    -0.297 OA
ATOM     24  C   UNL     1      36.684 -19.625 -33.620  0.00  0.00    +0.012 C 
ATOM     25  C   UNL     1      36.816 -18.111 -33.869  0.00  0.00    -0.013 C 
ATOM     26  C   UNL     1      37.670 -17.491 -32.740  0.00  0.00    -0.058 C 
ENDROOT
BRANCH  15  27
ATOM     27  C   UNL     1      45.086 -21.221 -41.004  0.00  0.00    +0.038 C 
ATOM     28  C   UNL     1      46.118 -22.227 -40.470  0.00  0.00    -0.052 C 
ATOM     29  C   UNL     1      44.564 -21.732 -42.357  0.00  0.00    -0.052 C 
ATOM     30  C   UNL     1      45.761 -19.854 -41.188  0.00  0.00    -0.052 C 
ENDBRANCH  15  27
BRANCH   1  32
ATOM     31  C   UNL     1      34.320 -16.793 -31.732  0.00  0.00    -0.049 C 
ATOM     32  C   UNL     1      34.282 -17.747 -32.939  0.00  0.00    +0.013 C 
BRANCH  32  33
ATOM     33  N   UNL     1      32.876 -17.695 -33.413  0.00  0.00    -0.305 N 
ATOM     34  C   UNL     1      32.280 -16.366 -33.394  0.00  0.00    -0.013 C 
ATOM     35  C   UNL     1      31.972 -18.694 -32.858  0.00  0.00    -0.013 C 
ATOM     36  H   UNL     1      32.989 -17.959 -34.392  0.00  0.00    +0.000 HD
ENDBRANCH  32  33
ENDBRANCH   1  32
BRANCH   2  37
ATOM     37  O   UNL     1      34.190 -18.966 -35.534  0.00  0.00    -0.391 OA
ATOM     38  H   UNL     1      34.273 -19.357 -36.418  0.00  0.00    +0.000 HD
ENDBRANCH   2  37
TORSDOF 4
ENDMDL
MODEL 16
REMARK VINA RESULT:    -6.799     29.258     35.183
REMARK INTER + INTRA:          -8.241
REMARK INTER:                  -7.521
REMARK INTRA:                  -0.720
REMARK UNBOUND:                -0.050
REMARK  Name = cpd87.pdb
REMARK  13 active torsions:
REMARK  status: ('A' for Active; 'I' for Inactive)
REMARK    1  A    between atoms: C_1  and  C_2
REMARK    2  A    between atoms: C_2  and  C_3
REMARK    3  A    between atoms: C_2  and  N_34
REMARK    4  A    between atoms: C_4  and  O_5
REMARK    5  A    between atoms: C_7  and  C_8
REMARK    6  A    between atoms: C_18  and  C_19
REMARK    7  A    between atoms: C_19  and  C_20
REMARK    8  A    between atoms: C_19  and  C_21
REMARK    9  A    between atoms: C_19  and  C_22
REMARK   10  A    between atoms: C_25  and  C_26
REMARK   11  A    between atoms: C_32  and  C_33
REMARK   12  A    between atoms: N_34  and  C_35
REMARK   13  A    between atoms: N_34  and  C_36
REMARK                            x       y       z     vdW  Elec       q    Type
REMARK                         _______ _______ _______ _____ _____    ______ ____
ROOT
ATOM      1  C   UNL     1      51.834 -48.051 -47.426  0.00  0.00    +0.007 C 
ATOM      2  C   UNL     1      51.408 -48.813 -46.144  0.00  0.00    +0.061 C 
ATOM      3  C   UNL     1      52.551 -49.767 -45.770  0.00  0.00    -0.020 C 
ATOM      4  C   UNL     1      53.630 -49.635 -46.866  0.00  0.00    -0.020 C 
ATOM      5  C   UNL     1      53.325 -50.688 -47.980  0.00  0.00    -0.059 C 
ATOM      6  C   UNL     1      55.090 -49.918 -46.322  0.00  0.00    -0.025 C 
ATOM      7  C   UNL     1      55.183 -51.329 -45.644  0.00  0.00    -0.048 C 
ATOM      8  C   UNL     1      55.583 -51.387 -44.162  0.00  0.00    -0.046 C 
ATOM      9  C   UNL     1      57.063 -51.062 -43.813  0.00  0.00    -0.009 C 
ATOM     10  C   UNL     1      57.710 -50.329 -44.972  0.00  0.00    -0.069 C 
ATOM     11  C   UNL     1      58.625 -50.912 -45.767  0.00  0.00    -0.082 C 
ATOM     12  C   UNL     1      59.110 -52.320 -45.604  0.00  0.00    -0.011 C 
ATOM     13  C   UNL     1      58.373 -53.135 -44.520  0.00  0.00    +0.067 C 
ATOM     14  N   UNL     1      59.254 -54.228 -44.102  0.00  0.00    -0.250 NA
ATOM     15  C   UNL     1      60.046 -54.037 -43.107  0.00  0.00    +0.191 C 
ATOM     16  O   UNL     1      60.117 -52.907 -42.366  0.00  0.00    -0.479 OA
ATOM     17  C   UNL     1      59.208 -51.819 -42.629  0.00  0.00    +0.099 C 
ATOM     18  C   UNL     1      57.917 -52.292 -43.320  0.00  0.00    +0.031 C 
ATOM     19  C   UNL     1      57.127 -53.154 -42.299  0.00  0.00    -0.054 C 
ATOM     20  C   UNL     1      57.227 -48.925 -45.250  0.00  0.00    -0.022 C 
ATOM     21  C   UNL     1      55.703 -48.779 -45.465  0.00  0.00    +0.025 C 
ATOM     22  C   UNL     1      55.430 -47.421 -46.095  0.00  0.00    +0.138 C 
ATOM     23  O   UNL     1      56.300 -46.565 -46.255  0.00  0.00    -0.297 OA
ATOM     24  C   UNL     1      53.994 -47.116 -46.410  0.00  0.00    +0.012 C 
ATOM     25  C   UNL     1      53.409 -48.154 -47.386  0.00  0.00    -0.013 C 
ATOM     26  C   UNL     1      54.061 -47.960 -48.773  0.00  0.00    -0.058 C 
ENDROOT
BRANCH  15  27
ATOM     27  C   UNL     1      61.031 -55.122 -42.664  0.00  0.00    +0.038 C 
ATOM     28  C   UNL     1      62.003 -54.624 -41.583  0.00  0.00    -0.052 C 
ATOM     29  C   UNL     1      60.243 -56.314 -42.097  0.00  0.00    -0.052 C 
ATOM     30  C   UNL     1      61.832 -55.566 -43.898  0.00  0.00    -0.052 C 
ENDBRANCH  15  27
BRANCH   1  32
ATOM     31  C   UNL     1      51.136 -46.163 -49.060  0.00  0.00    -0.049 C 
ATOM     32  C   UNL     1      51.143 -46.657 -47.603  0.00  0.00    +0.013 C 
BRANCH  32  33
ATOM     33  N   UNL     1      49.727 -46.557 -47.167  0.00  0.00    -0.305 N 
ATOM     34  C   UNL     1      48.787 -47.311 -47.986  0.00  0.00    -0.013 C 
ATOM     35  C   UNL     1      49.234 -45.215 -46.885  0.00  0.00    -0.013 C 
ATOM     36  H   UNL     1      49.769 -47.017 -46.257  0.00  0.00    +0.000 HD
ENDBRANCH  32  33
ENDBRANCH   1  32
BRANCH   2  37
ATOM     37  O   UNL     1      51.208 -47.938 -45.038  0.00  0.00    -0.391 OA
ATOM     38  H   UNL     1      51.705 -48.267 -44.271  0.00  0.00    +0.000 HD
ENDBRANCH   2  37
TORSDOF 4
ENDMDL
MODEL 17
REMARK VINA RESULT:    -6.690      4.508      5.528
REMARK INTER + INTRA:          -8.109
REMARK INTER:                  -7.304
REMARK INTRA:                  -0.806
REMARK UNBOUND:                -0.050
REMARK  Name = cpd87.pdb
REMARK  13 active torsions:
REMARK  status: ('A' for Active; 'I' for Inactive)
REMARK    1  A    between atoms: C_1  and  C_2
REMARK    2  A    between atoms: C_2  and  C_3
REMARK    3  A    between atoms: C_2  and  N_34
REMARK    4  A    between atoms: C_4  and  O_5
REMARK    5  A    between atoms: C_7  and  C_8
REMARK    6  A    between atoms: C_18  and  C_19
REMARK    7  A    between atoms: C_19  and  C_20
REMARK    8  A    between atoms: C_19  and  C_21
REMARK    9  A    between atoms: C_19  and  C_22
REMARK   10  A    between atoms: C_25  and  C_26
REMARK   11  A    between atoms: C_32  and  C_33
REMARK   12  A    between atoms: N_34  and  C_35
REMARK   13  A    between atoms: N_34  and  C_36
REMARK                            x       y       z     vdW  Elec       q    Type
REMARK                         _______ _______ _______ _____ _____    ______ ____
ROOT
ATOM      1  C   UNL     1      46.410 -19.779 -39.580  0.00  0.00    +0.007 C 
ATOM      2  C   UNL     1      45.451 -20.545 -38.632  0.00  0.00    +0.061 C 
ATOM      3  C   UNL     1      45.078 -19.596 -37.485  0.00  0.00    -0.020 C 
ATOM      4  C   UNL     1      45.868 -18.288 -37.701  0.00  0.00    -0.020 C 
ATOM      5  C   UNL     1      47.232 -18.411 -36.946  0.00  0.00    -0.059 C 
ATOM      6  C   UNL     1      45.115 -17.018 -37.130  0.00  0.00    -0.025 C 
ATOM      7  C   UNL     1      44.772 -17.192 -35.610  0.00  0.00    -0.048 C 
ATOM      8  C   UNL     1      43.292 -17.148 -35.199  0.00  0.00    -0.046 C 
ATOM      9  C   UNL     1      42.582 -15.765 -35.256  0.00  0.00    -0.009 C 
ATOM     10  C   UNL     1      43.385 -14.816 -36.123  0.00  0.00    -0.069 C 
ATOM     11  C   UNL     1      44.086 -13.792 -35.604  0.00  0.00    -0.082 C 
ATOM     12  C   UNL     1      44.152 -13.468 -34.143  0.00  0.00    -0.011 C 
ATOM     13  C   UNL     1      43.458 -14.495 -33.223  0.00  0.00    +0.067 C 
ATOM     14  N   UNL     1      43.128 -13.821 -31.965  0.00  0.00    -0.250 NA
ATOM     15  C   UNL     1      41.975 -13.265 -31.846  0.00  0.00    +0.191 C 
ATOM     16  O   UNL     1      40.997 -13.277 -32.782  0.00  0.00    -0.479 OA
ATOM     17  C   UNL     1      41.186 -14.014 -34.007  0.00  0.00    +0.099 C 
ATOM     18  C   UNL     1      42.218 -15.146 -33.853  0.00  0.00    +0.031 C 
ATOM     19  C   UNL     1      41.604 -16.213 -32.907  0.00  0.00    -0.054 C 
ATOM     20  C   UNL     1      43.429 -15.111 -37.604  0.00  0.00    -0.022 C 
ATOM     21  C   UNL     1      43.914 -16.530 -37.982  0.00  0.00    +0.025 C 
ATOM     22  C   UNL     1      44.260 -16.544 -39.464  0.00  0.00    +0.138 C 
ATOM     23  O   UNL     1      44.038 -15.597 -40.218  0.00  0.00    -0.297 OA
ATOM     24  C   UNL     1      44.786 -17.842 -40.007  0.00  0.00    +0.012 C 
ATOM     25  C   UNL     1      46.071 -18.268 -39.273  0.00  0.00    -0.013 C 
ATOM     26  C   UNL     1      47.214 -17.303 -39.663  0.00  0.00    -0.058 C 
ENDROOT
BRANCH  15  27
ATOM     27  C   UNL     1      41.598 -12.495 -30.578  0.00  0.00    +0.038 C 
ATOM     28  C   UNL     1      40.335 -13.056 -29.905  0.00  0.00    -0.052 C 
ATOM     29  C   UNL     1      42.761 -12.580 -29.575  0.00  0.00    -0.052 C 
ATOM     30  C   UNL     1      41.353 -11.030 -30.969  0.00  0.00    -0.052 C 
ENDBRANCH  15  27
BRANCH   1  32
ATOM     31  C   UNL     1      47.749 -20.105 -41.776  0.00  0.00    -0.049 C 
ATOM     32  C   UNL     1      46.403 -20.300 -41.057  0.00  0.00    +0.013 C 
BRANCH  32  33
ATOM     33  N   UNL     1      46.078 -21.735 -41.254  0.00  0.00    -0.305 N 
ATOM     34  C   UNL     1      47.205 -22.641 -41.075  0.00  0.00    -0.013 C 
ATOM     35  C   UNL     1      45.313 -22.064 -42.450  0.00  0.00    -0.013 C 
ATOM     36  H   UNL     1      45.436 -21.899 -40.479  0.00  0.00    +0.000 HD
ENDBRANCH  32  33
ENDBRANCH   1  32
BRANCH   2  37
ATOM     37  O   UNL     1      44.240 -20.923 -39.279  0.00  0.00    -0.391 OA
ATOM     38  H   UNL     1      44.378 -21.752 -39.765  0.00  0.00    +0.000 HD
ENDBRANCH   2  37
TORSDOF 4
ENDMDL
MODEL 18
REMARK VINA RESULT:    -6.686     34.337     37.945
REMARK INTER + INTRA:          -8.104
REMARK INTER:                  -7.345
REMARK INTRA:                  -0.759
REMARK UNBOUND:                -0.050
REMARK  Name = cpd87.pdb
REMARK  13 active torsions:
REMARK  status: ('A' for Active; 'I' for Inactive)
REMARK    1  A    between atoms: C_1  and  C_2
REMARK    2  A    between atoms: C_2  and  C_3
REMARK    3  A    between atoms: C_2  and  N_34
REMARK    4  A    between atoms: C_4  and  O_5
REMARK    5  A    between atoms: C_7  and  C_8
REMARK    6  A    between atoms: C_18  and  C_19
REMARK    7  A    between atoms: C_19  and  C_20
REMARK    8  A    between atoms: C_19  and  C_21
REMARK    9  A    between atoms: C_19  and  C_22
REMARK   10  A    between atoms: C_25  and  C_26
REMARK   11  A    between atoms: C_32  and  C_33
REMARK   12  A    between atoms: N_34  and  C_35
REMARK   13  A    between atoms: N_34  and  C_36
REMARK                            x       y       z     vdW  Elec       q    Type
REMARK                         _______ _______ _______ _____ _____    ______ ____
ROOT
ATOM      1  C   UNL     1      48.065 -55.302 -40.044  0.00  0.00    +0.007 C 
ATOM      2  C   UNL     1      48.655 -53.916 -39.677  0.00  0.00    +0.061 C 
ATOM      3  C   UNL     1      50.177 -53.998 -39.856  0.00  0.00    -0.020 C 
ATOM      4  C   UNL     1      50.510 -55.451 -40.256  0.00  0.00    -0.020 C 
ATOM      5  C   UNL     1      50.777 -56.269 -38.951  0.00  0.00    -0.059 C 
ATOM      6  C   UNL     1      51.806 -55.553 -41.161  0.00  0.00    -0.025 C 
ATOM      7  C   UNL     1      53.044 -54.892 -40.462  0.00  0.00    -0.048 C 
ATOM      8  C   UNL     1      53.724 -53.713 -41.175  0.00  0.00    -0.046 C 
ATOM      9  C   UNL     1      54.551 -54.038 -42.452  0.00  0.00    -0.009 C 
ATOM     10  C   UNL     1      54.156 -55.403 -42.979  0.00  0.00    -0.069 C 
ATOM     11  C   UNL     1      54.968 -56.471 -42.878  0.00  0.00    -0.082 C 
ATOM     12  C   UNL     1      56.329 -56.441 -42.254  0.00  0.00    -0.011 C 
ATOM     13  C   UNL     1      56.703 -55.101 -41.586  0.00  0.00    +0.067 C 
ATOM     14  N   UNL     1      58.165 -55.025 -41.518  0.00  0.00    -0.250 NA
ATOM     15  C   UNL     1      58.800 -54.467 -42.486  0.00  0.00    +0.191 C 
ATOM     16  O   UNL     1      58.231 -53.894 -43.572  0.00  0.00    -0.479 OA
ATOM     17  C   UNL     1      56.795 -53.818 -43.672  0.00  0.00    +0.099 C 
ATOM     18  C   UNL     1      56.111 -53.874 -42.294  0.00  0.00    +0.031 C 
ATOM     19  C   UNL     1      56.468 -52.565 -41.541  0.00  0.00    -0.054 C 
ATOM     20  C   UNL     1      52.771 -55.538 -43.564  0.00  0.00    -0.022 C 
ATOM     21  C   UNL     1      51.614 -55.103 -42.634  0.00  0.00    +0.025 C 
ATOM     22  C   UNL     1      50.308 -55.643 -43.199  0.00  0.00    +0.138 C 
ATOM     23  O   UNL     1      50.227 -56.204 -44.291  0.00  0.00    -0.297 OA
ATOM     24  C   UNL     1      49.071 -55.344 -42.402  0.00  0.00    +0.012 C 
ATOM     25  C   UNL     1      49.179 -55.919 -40.977  0.00  0.00    -0.013 C 
ATOM     26  C   UNL     1      49.114 -57.462 -41.054  0.00  0.00    -0.058 C 
ENDROOT
BRANCH  15  27
ATOM     27  C   UNL     1      60.330 -54.413 -42.497  0.00  0.00    +0.038 C 
ATOM     28  C   UNL     1      60.962 -55.772 -42.840  0.00  0.00    -0.052 C 
ATOM     29  C   UNL     1      60.788 -53.387 -43.547  0.00  0.00    -0.052 C 
ATOM     30  C   UNL     1      60.799 -53.975 -41.102  0.00  0.00    -0.052 C 
ENDBRANCH  15  27
BRANCH   1  32
ATOM     31  C   UNL     1      45.788 -56.536 -40.184  0.00  0.00    -0.049 C 
ATOM     32  C   UNL     1      46.574 -55.258 -40.525  0.00  0.00    +0.013 C 
BRANCH  32  33
ATOM     33  N   UNL     1      45.738 -54.151 -39.996  0.00  0.00    -0.305 N 
ATOM     34  C   UNL     1      45.320 -54.318 -38.610  0.00  0.00    -0.013 C 
ATOM     35  C   UNL     1      44.631 -53.720 -40.840  0.00  0.00    -0.013 C 
ATOM     36  H   UNL     1      46.401 -53.376 -40.017  0.00  0.00    +0.000 HD
ENDBRANCH  32  33
ENDBRANCH   1  32
BRANCH   2  37
ATOM     37  O   UNL     1      48.184 -52.883 -40.538  0.00  0.00    -0.391 OA
ATOM     38  H   UNL     1      47.264 -52.670 -40.313  0.00  0.00    +0.000 HD
ENDBRANCH   2  37
TORSDOF 4
ENDMDL
MODEL 19
REMARK VINA RESULT:    -6.577      4.245      5.869
REMARK INTER + INTRA:          -7.973
REMARK INTER:                  -7.170
REMARK INTRA:                  -0.803
REMARK UNBOUND:                -0.050
REMARK  Name = cpd87.pdb
REMARK  13 active torsions:
REMARK  status: ('A' for Active; 'I' for Inactive)
REMARK    1  A    between atoms: C_1  and  C_2
REMARK    2  A    between atoms: C_2  and  C_3
REMARK    3  A    between atoms: C_2  and  N_34
REMARK    4  A    between atoms: C_4  and  O_5
REMARK    5  A    between atoms: C_7  and  C_8
REMARK    6  A    between atoms: C_18  and  C_19
REMARK    7  A    between atoms: C_19  and  C_20
REMARK    8  A    between atoms: C_19  and  C_21
REMARK    9  A    between atoms: C_19  and  C_22
REMARK   10  A    between atoms: C_25  and  C_26
REMARK   11  A    between atoms: C_32  and  C_33
REMARK   12  A    between atoms: N_34  and  C_35
REMARK   13  A    between atoms: N_34  and  C_36
REMARK                            x       y       z     vdW  Elec       q    Type
REMARK                         _______ _______ _______ _____ _____    ______ ____
ROOT
ATOM      1  C   UNL     1      47.659 -13.529 -40.511  0.00  0.00    +0.007 C 
ATOM      2  C   UNL     1      48.246 -14.959 -40.383  0.00  0.00    +0.061 C 
ATOM      3  C   UNL     1      47.231 -15.809 -39.606  0.00  0.00    -0.020 C 
ATOM      4  C   UNL     1      46.071 -14.875 -39.201  0.00  0.00    -0.020 C 
ATOM      5  C   UNL     1      46.400 -14.267 -37.799  0.00  0.00    -0.059 C 
ATOM      6  C   UNL     1      44.688 -15.636 -39.084  0.00  0.00    -0.025 C 
ATOM      7  C   UNL     1      44.781 -16.840 -38.084  0.00  0.00    -0.048 C 
ATOM      8  C   UNL     1      44.493 -18.248 -38.628  0.00  0.00    -0.046 C 
ATOM      9  C   UNL     1      43.015 -18.584 -38.979  0.00  0.00    -0.009 C 
ATOM     10  C   UNL     1      42.221 -17.300 -39.118  0.00  0.00    -0.069 C 
ATOM     11  C   UNL     1      41.315 -16.916 -38.201  0.00  0.00    -0.082 C 
ATOM     12  C   UNL     1      40.983 -17.693 -36.964  0.00  0.00    -0.011 C 
ATOM     13  C   UNL     1      41.871 -18.933 -36.724  0.00  0.00    +0.067 C 
ATOM     14  N   UNL     1      41.133 -19.853 -35.856  0.00  0.00    -0.250 NA
ATOM     15  C   UNL     1      40.397 -20.758 -36.397  0.00  0.00    +0.191 C 
ATOM     16  O   UNL     1      40.267 -20.971 -37.727  0.00  0.00    -0.479 OA
ATOM     17  C   UNL     1      41.043 -20.191 -38.657  0.00  0.00    +0.099 C 
ATOM     18  C   UNL     1      42.324 -19.625 -38.018  0.00  0.00    +0.031 C 
ATOM     19  C   UNL     1      43.263 -20.823 -37.713  0.00  0.00    -0.054 C 
ATOM     20  C   UNL     1      42.542 -16.421 -40.303  0.00  0.00    -0.022 C 
ATOM     21  C   UNL     1      44.027 -16.007 -40.438  0.00  0.00    +0.025 C 
ATOM     22  C   UNL     1      44.119 -14.849 -41.421  0.00  0.00    +0.138 C 
ATOM     23  O   UNL     1      43.161 -14.443 -42.077  0.00  0.00    -0.297 OA
ATOM     24  C   UNL     1      45.493 -14.289 -41.653  0.00  0.00    +0.012 C 
ATOM     25  C   UNL     1      46.109 -13.772 -40.339  0.00  0.00    -0.013 C 
ATOM     26  C   UNL     1      45.346 -12.504 -39.894  0.00  0.00    -0.058 C 
ENDROOT
BRANCH  15  27
ATOM     27  C   UNL     1      39.556 -21.708 -35.540  0.00  0.00    +0.038 C 
ATOM     28  C   UNL     1      40.292 -22.153 -34.265  0.00  0.00    -0.052 C 
ATOM     29  C   UNL     1      38.258 -20.994 -35.127  0.00  0.00    -0.052 C 
ATOM     30  C   UNL     1      39.224 -22.943 -36.389  0.00  0.00    -0.052 C 
ENDBRANCH  15  27
BRANCH   1  32
ATOM     31  C   UNL     1      48.211 -11.202 -41.512  0.00  0.00    -0.049 C 
ATOM     32  C   UNL     1      48.196 -12.723 -41.742  0.00  0.00    +0.013 C 
BRANCH  32  33
ATOM     33  N   UNL     1      49.570 -13.047 -42.201  0.00  0.00    -0.305 N 
ATOM     34  C   UNL     1      50.628 -12.347 -41.484  0.00  0.00    -0.013 C 
ATOM     35  C   UNL     1      49.791 -13.019 -43.641  0.00  0.00    -0.013 C 
ATOM     36  H   UNL     1      49.635 -14.032 -41.944  0.00  0.00    +0.000 HD
ENDBRANCH  32  33
ENDBRANCH   1  32
BRANCH   2  37
ATOM     37  O   UNL     1      48.435 -15.580 -41.651  0.00  0.00    -0.391 OA
ATOM     38  H   UNL     1      49.358 -15.868 -41.737  0.00  0.00    +0.000 HD
ENDBRANCH   2  37
TORSDOF 4
ENDMDL
MODEL 20
REMARK VINA RESULT:    -6.476     29.717     33.021
REMARK INTER + INTRA:          -7.851
REMARK INTER:                  -7.107
REMARK INTRA:                  -0.744
REMARK UNBOUND:                -0.050
REMARK  Name = cpd87.pdb
REMARK  13 active torsions:
REMARK  status: ('A' for Active; 'I' for Inactive)
REMARK    1  A    between atoms: C_1  and  C_2
REMARK    2  A    between atoms: C_2  and  C_3
REMARK    3  A    between atoms: C_2  and  N_34
REMARK    4  A    between atoms: C_4  and  O_5
REMARK    5  A    between atoms: C_7  and  C_8
REMARK    6  A    between atoms: C_18  and  C_19
REMARK    7  A    between atoms: C_19  and  C_20
REMARK    8  A    between atoms: C_19  and  C_21
REMARK    9  A    between atoms: C_19  and  C_22
REMARK   10  A    between atoms: C_25  and  C_26
REMARK   11  A    between atoms: C_32  and  C_33
REMARK   12  A    between atoms: N_34  and  C_35
REMARK   13  A    between atoms: N_34  and  C_36
REMARK                            x       y       z     vdW  Elec       q    Type
REMARK                         _______ _______ _______ _____ _____    ______ ____
ROOT
ATOM      1  C   UNL     1      48.857 -48.254 -49.897  0.00  0.00    +0.007 C 
ATOM      2  C   UNL     1      49.233 -49.598 -49.222  0.00  0.00    +0.061 C 
ATOM      3  C   UNL     1      50.742 -49.571 -48.943  0.00  0.00    -0.020 C 
ATOM      4  C   UNL     1      51.287 -48.246 -49.517  0.00  0.00    -0.020 C 
ATOM      5  C   UNL     1      51.723 -48.499 -50.997  0.00  0.00    -0.059 C 
ATOM      6  C   UNL     1      52.550 -47.712 -48.726  0.00  0.00    -0.025 C 
ATOM      7  C   UNL     1      53.691 -48.786 -48.680  0.00  0.00    -0.048 C 
ATOM      8  C   UNL     1      54.152 -49.284 -47.302  0.00  0.00    -0.046 C 
ATOM      9  C   UNL     1      54.975 -48.295 -46.429  0.00  0.00    -0.009 C 
ATOM     10  C   UNL     1      54.784 -46.882 -46.944  0.00  0.00    -0.069 C 
ATOM     11  C   UNL     1      55.758 -46.220 -47.595  0.00  0.00    -0.082 C 
ATOM     12  C   UNL     1      57.117 -46.781 -47.877  0.00  0.00    -0.011 C 
ATOM     13  C   UNL     1      57.297 -48.264 -47.487  0.00  0.00    +0.067 C 
ATOM     14  N   UNL     1      58.729 -48.510 -47.304  0.00  0.00    -0.250 NA
ATOM     15  C   UNL     1      59.235 -48.369 -46.130  0.00  0.00    +0.191 C 
ATOM     16  O   UNL     1      58.546 -48.043 -45.012  0.00  0.00    -0.479 OA
ATOM     17  C   UNL     1      57.113 -47.894 -45.071  0.00  0.00    +0.099 C 
ATOM     18  C   UNL     1      56.494 -48.675 -46.245  0.00  0.00    +0.031 C 
ATOM     19  C   UNL     1      56.665 -50.187 -45.942  0.00  0.00    -0.054 C 
ATOM     20  C   UNL     1      53.418 -46.265 -46.762  0.00  0.00    -0.022 C 
ATOM     21  C   UNL     1      52.239 -47.081 -47.343  0.00  0.00    +0.025 C 
ATOM     22  C   UNL     1      51.017 -46.178 -47.422  0.00  0.00    +0.138 C 
ATOM     23  O   UNL     1      50.988 -45.039 -46.957  0.00  0.00    -0.297 OA
ATOM     24  C   UNL     1      49.776 -46.797 -47.999  0.00  0.00    +0.012 C 
ATOM     25  C   UNL     1      50.022 -47.294 -49.436  0.00  0.00    -0.013 C 
ATOM     26  C   UNL     1      50.200 -46.071 -50.365  0.00  0.00    -0.058 C 
ENDROOT
BRANCH  15  27
ATOM     27  C   UNL     1      60.736 -48.554 -45.891  0.00  0.00    +0.038 C 
ATOM     28  C   UNL     1      61.230 -47.790 -44.652  0.00  0.00    -0.052 C 
ATOM     29  C   UNL     1      61.031 -50.050 -45.689  0.00  0.00    -0.052 C 
ATOM     30  C   UNL     1      61.480 -48.039 -47.132  0.00  0.00    -0.052 C 
ENDBRANCH  15  27
BRANCH   1  32
ATOM     31  C   UNL     1      46.877 -46.803 -50.732  0.00  0.00    -0.049 C 
ATOM     32  C   UNL     1      47.363 -47.829 -49.695  0.00  0.00    +0.013 C 
BRANCH  32  33
ATOM     33  N   UNL     1      46.351 -48.914 -49.739  0.00  0.00    -0.305 N 
ATOM     34  C   UNL     1      45.764 -49.140 -51.053  0.00  0.00    -0.013 C 
ATOM     35  C   UNL     1      45.334 -48.890 -48.696  0.00  0.00    -0.013 C 
ATOM     36  H   UNL     1      46.928 -49.729 -49.525  0.00  0.00    +0.000 HD
ENDBRANCH  32  33
ENDBRANCH   1  32
BRANCH   2  37
ATOM     37  O   UNL     1      48.574 -49.776 -47.971  0.00  0.00    -0.391 OA
ATOM     38  H   UNL     1      47.743 -49.275 -47.969  0.00  0.00    +0.000 HD
ENDBRANCH   2  37
TORSDOF 4
ENDMDL
