@<TRIPOS>MOLECULE
*****
 44 50 0 0 0
SMALL
GASTEIGER

@<TRIPOS>ATOM
      1 C          -4.0724    0.9985    0.0000 C.3     1  UNL1        0.2526
      2 O          -3.3089    1.5532    0.0000 O.3     1  UNL1       -0.4684
      3 C          -2.4916    1.0814    0.0000 C.ar    1  UNL1        0.1721
      4 C          -2.4916    0.1377    0.0000 C.ar    1  UNL1        0.0397
      5 C          -1.6738   -0.3345    0.0000 C.ar    1  UNL1        0.0001
      6 C          -0.8565    0.1373    0.0000 C.ar    1  UNL1       -0.0066
      7 C          -0.8563    1.0815    0.0000 C.ar    1  UNL1        0.0187
      8 C          -1.6741    1.5536    0.0000 C.ar    1  UNL1        0.1682
      9 O          -1.6742    2.4973    0.0000 O.3     1  UNL1       -0.4757
     10 C          -0.8566    2.9695    0.0000 C.3     1  UNL1        0.1762
     11 C          -0.8564    3.9137    0.0000 C.3     1  UNL1        0.0816
     12 C          -0.0391    4.3855    0.0000 C.3     1  UNL1        0.1773
     13 O          -0.0391    5.3612    0.0000 O.3     1  UNL1       -0.2182
     14 C           0.7787    3.9133    0.0000 C.2     1  UNL1        0.0021
     15 C           0.7787    2.9696    0.0000 C.2     1  UNL1       -0.0211
     16 C          -0.0388    2.4974    0.0000 C.3     1  UNL1        0.0780
     17 C           0.7191    2.0754    0.0000 C.3     1  UNL1        0.0290
     18 C           1.0284    1.2650    0.0000 C.3     1  UNL1        0.0732
     19 N           0.7444    0.4453    0.0000 N.3     1  UNL1       -0.2689
     20 C           1.5126   -0.1792    0.0000 C.3     1  UNL1        0.0724
     21 C           2.4376    0.1738    0.0000 C.3     1  UNL1        0.0173
     22 C           3.2059   -0.4507    0.0000 C.3     1  UNL1        0.0016
     23 C           4.1309   -0.0977    0.0000 C.3     1  UNL1        0.0039
     24 C           4.8992   -0.7222    0.0000 C.3     1  UNL1        0.0473
     25 C           5.8242   -0.3692    0.0000 C.3     1  UNL1        0.2054
     26 O           6.5924   -0.9937    0.0000 O.3     1  UNL1       -0.4755
     27 C           7.5174   -0.6407    0.0000 C.ar    1  UNL1        0.1385
     28 C           7.6742    0.3369    0.0000 C.ar    1  UNL1        0.0366
     29 C           8.5992    0.6900    0.0000 C.ar    1  UNL1        0.0006
     30 C           9.3674    0.0654    0.0000 C.ar    1  UNL1       -0.0005
     31 C          10.2924    0.4185    0.0000 C.3     1  UNL1        0.1385
     32 N          11.0607   -0.2061    0.0000 N.pl3   1  UNL1       -0.2328
     33 C          11.9857    0.1470    0.0000 C.ar    1  UNL1        0.0658
     34 C          12.1424    1.1246    0.0000 C.ar    1  UNL1        0.0176
     35 C          13.0674    1.4777    0.0000 C.ar    1  UNL1        0.0204
     36 C          13.8357    0.8531    0.0000 C.ar    1  UNL1        0.0814
     37 N          14.8139    1.0061    0.0000 N.ar    1  UNL1       -0.2438
     38 C          15.2617    0.1231    0.0000 C.ar    1  UNL1        0.0989
     39 C          14.5603   -0.5757    0.0000 C.ar    1  UNL1        0.0222
     40 C          13.6789   -0.1245    0.0000 C.ar    1  UNL1        0.0205
     41 C          12.7539   -0.4776    0.0000 C.ar    1  UNL1        0.0176
     42 C           9.2107   -0.9122    0.0000 C.ar    1  UNL1        0.0006
     43 C           8.2857   -1.2652    0.0000 C.ar    1  UNL1        0.0366
     44 C           0.0000   -0.0000    0.0000 C.3     1  UNL1        0.0989
@<TRIPOS>BOND
     1     1     2    1
     2     2     3    1
     3     3     4   ar
     4     4     5   ar
     5     5     6   ar
     6     6     7   ar
     7     7     8   ar
     8     3     8   ar
     9     8     9    1
    10     9    10    1
    11    10    11    1
    12    11    12    1
    13    12    13    1
    14    12    14    1
    15    14    15    2
    16    15    16    1
    17     7    16    1
    18    10    16    1
    19    16    17    1
    20    17    18    1
    21    18    19    1
    22    19    20    1
    23    20    21    1
    24    21    22    1
    25    22    23    1
    26    23    24    1
    27    24    25    1
    28    25    26    1
    29    26    27    1
    30    27    28   ar
    31    28    29   ar
    32    29    30   ar
    33    30    31    1
    34    31    32    1
    35    32    33    1
    36    33    34   ar
    37    34    35   ar
    38    35    36   ar
    39    36    37   ar
    40    37    38   ar
    41    38    39   ar
    42    39    40   ar
    43    36    40   ar
    44    40    41   ar
    45    33    41   ar
    46    30    42   ar
    47    42    43   ar
    48    27    43   ar
    49    19    44    1
    50     6    44    1
