REMARK  Name = cpd55.pdb
REMARK  14 active torsions:
REMARK  status: ('A' for Active; 'I' for Inactive)
REMARK    1  A    between atoms: C_1  and  O_2
REMARK    2  A    between atoms: O_2  and  C_3
REMARK    3  A    between atoms: C_12  and  O_13
REMARK    4  A    between atoms: N_19  and  C_20
REMARK    5  A    between atoms: C_20  and  C_21
REMARK    6  A    between atoms: C_21  and  C_22
REMARK    7  A    between atoms: C_22  and  C_23
REMARK    8  A    between atoms: C_23  and  C_24
REMARK    9  A    between atoms: C_24  and  C_25
REMARK   10  A    between atoms: C_25  and  O_26
REMARK   11  A    between atoms: O_26  and  C_27
REMARK   12  A    between atoms: C_30  and  C_31
REMARK   13  A    between atoms: C_31  and  N_32
REMARK   14  A    between atoms: N_32  and  C_33
REMARK                            x       y       z     vdW  Elec       q    Type
REMARK                         _______ _______ _______ _____ _____    ______ ____
ROOT
ATOM      1  C   UNL     1       2.471  -0.261   0.368  0.00  0.00    -0.040 C 
ENDROOT
BRANCH   1   2
ATOM      2  C   UNL     1       1.101  -0.945   0.254  0.00  0.00    -0.001 C 
BRANCH   2  18
ATOM      3  C   UNL     1      -4.839   1.875  -0.287  0.00  0.00    +0.162 A 
ATOM      4  C   UNL     1      -4.915   0.560   0.171  0.00  0.00    -0.016 A 
ATOM      5  C   UNL     1      -3.744  -0.155   0.480  0.00  0.00    -0.053 A 
ATOM      6  C   UNL     1      -2.469   0.430   0.367  0.00  0.00    -0.026 A 
ATOM      7  C   UNL     1      -2.418   1.777   0.011  0.00  0.00    +0.016 A 
ATOM      8  C   UNL     1      -3.575   2.448  -0.370  0.00  0.00    +0.167 A 
ATOM      9  O   UNL     1      -3.348   3.691  -0.907  0.00  0.00    -0.484 OA
ATOM     10  C   UNL     1      -1.949   3.975  -0.643  0.00  0.00    +0.116 C 
ATOM     11  C   UNL     1      -1.957   5.130   0.370  0.00  0.00    +0.015 C 
ATOM     12  C   UNL     1      -0.596   5.360   0.998  0.00  0.00    +0.077 C 
ATOM     13  C   UNL     1      -0.063   4.089   1.560  0.00  0.00    -0.059 C 
ATOM     14  C   UNL     1      -0.390   2.883   1.072  0.00  0.00    -0.071 C 
ATOM     15  C   UNL     1      -1.223   2.661  -0.186  0.00  0.00    +0.056 C 
ATOM     16  C   UNL     1      -0.349   2.089  -1.333  0.00  0.00    -0.023 C 
ATOM     17  C   UNL     1      -0.042   0.577  -1.283  0.00  0.00    +0.000 C 
ATOM     18  N   UNL     1       0.042   0.059   0.086  0.00  0.00    -0.298 N 
ATOM     19  C   UNL     1      -1.252  -0.452   0.577  0.00  0.00    +0.024 C 
ATOM     20  H   UNL     1       0.295   0.861   0.663  0.00  0.00    +0.000 HD
BRANCH   3  22
ATOM     21  C   UNL     1      -7.194   2.109  -0.498  0.00  0.00    +0.079 C 
ATOM     22  O   UNL     1      -5.893   2.653  -0.671  0.00  0.00    -0.491 OA
ENDBRANCH   3  22
BRANCH  12  23
ATOM     23  O   UNL     1       0.335   5.831   0.036  0.00  0.00    -0.388 OA
ATOM     24  H   UNL     1       0.444   5.165  -0.661  0.00  0.00    +0.000 HD
ENDBRANCH  12  23
ENDBRANCH   2  18
ENDBRANCH   1   2
BRANCH   1  25
ATOM     25  C   UNL     1       3.609  -1.230   0.702  0.00  0.00    -0.052 C 
BRANCH  25  26
ATOM     26  C   UNL     1       3.953  -2.175  -0.452  0.00  0.00    -0.050 C 
BRANCH  26  27
ATOM     27  C   UNL     1       5.122  -3.118  -0.137  0.00  0.00    -0.019 C 
BRANCH  27  28
ATOM     28  C   UNL     1       6.441  -2.413   0.184  0.00  0.00    +0.090 C 
BRANCH  28  29
ATOM     29  O   UNL     1       6.767  -1.528  -0.893  0.00  0.00    -0.492 OA
BRANCH  29  30
ATOM     30  C   UNL     1       7.920  -0.832  -0.652  0.00  0.00    +0.121 A 
ATOM     31  C   UNL     1       8.013   0.110   0.371  0.00  0.00    -0.020 A 
ATOM     32  C   UNL     1       9.196   0.832   0.547  0.00  0.00    -0.054 A 
ATOM     33  C   UNL     1      10.286   0.629  -0.312  0.00  0.00    -0.030 A 
ATOM     34  C   UNL     1      10.163  -0.302  -1.357  0.00  0.00    -0.054 A 
ATOM     35  C   UNL     1       8.982  -1.024  -1.530  0.00  0.00    -0.020 A 
BRANCH  33  36
ATOM     36  C   UNL     1      11.565   1.417  -0.145  0.00  0.00    +0.034 C 
BRANCH  36  37
ATOM     37  N   UNL     1      12.671   0.504   0.079  0.00  0.00    -0.343 N 
ATOM     38  H   UNL     1      12.432  -0.428   0.287  0.00  0.00    +0.000 HD
BRANCH  37  39
ATOM     39  C   UNL     1      14.027   0.797   0.033  0.00  0.00    +0.009 C 
ATOM     40  C   UNL     1      14.543   1.967  -0.401  0.00  0.00    -0.043 C 
ATOM     41  C   UNL     1      15.969   2.214  -0.463  0.00  0.00    -0.035 C 
ATOM     42  C   UNL     1      16.835   1.265  -0.109  0.00  0.00    +0.067 C 
ATOM     43  N   UNL     1      18.202   1.317  -0.137  0.00  0.00    -0.255 NA
ATOM     44  C   UNL     1      18.566   0.141   0.275  0.00  0.00    +0.029 C 
ATOM     45  C   UNL     1      17.485  -0.787   0.617  0.00  0.00    -0.038 C 
ATOM     46  C   UNL     1      16.417  -0.028   0.364  0.00  0.00    -0.015 C 
ATOM     47  C   UNL     1      14.960  -0.337   0.498  0.00  0.00    +0.012 C 
ENDBRANCH  37  39
ENDBRANCH  36  37
ENDBRANCH  33  36
ENDBRANCH  29  30
ENDBRANCH  28  29
ENDBRANCH  27  28
ENDBRANCH  26  27
ENDBRANCH  25  26
ENDBRANCH   1  25
TORSDOF 13
