MODEL 1
REMARK VINA RESULT:    -7.516      0.000      0.000
REMARK INTER + INTRA:         -16.804
REMARK INTER:                 -13.009
REMARK INTRA:                  -3.796
REMARK UNBOUND:                -3.796
REMARK  Name = cpd55.pdb
REMARK  14 active torsions:
REMARK  status: ('A' for Active; 'I' for Inactive)
REMARK    1  A    between atoms: C_1  and  O_2
REMARK    2  A    between atoms: O_2  and  C_3
REMARK    3  A    between atoms: C_12  and  O_13
REMARK    4  A    between atoms: N_19  and  C_20
REMARK    5  A    between atoms: C_20  and  C_21
REMARK    6  A    between atoms: C_21  and  C_22
REMARK    7  A    between atoms: C_22  and  C_23
REMARK    8  A    between atoms: C_23  and  C_24
REMARK    9  A    between atoms: C_24  and  C_25
REMARK   10  A    between atoms: C_25  and  O_26
REMARK   11  A    between atoms: O_26  and  C_27
REMARK   12  A    between atoms: C_30  and  C_31
REMARK   13  A    between atoms: C_31  and  N_32
REMARK   14  A    between atoms: N_32  and  C_33
REMARK                            x       y       z     vdW  Elec       q    Type
REMARK                         _______ _______ _______ _____ _____    ______ ____
ROOT
ATOM      1  C   UNL     1      39.996 -21.579 -38.126  0.00  0.00    -0.040 C 
ENDROOT
BRANCH   1   2
ATOM      2  C   UNL     1      41.135 -22.398 -38.749  0.00  0.00    -0.001 C 
BRANCH   2  18
ATOM      3  C   UNL     1      44.487 -16.996 -40.514  0.00  0.00    +0.162 A 
ATOM      4  C   UNL     1      43.656 -16.771 -39.418  0.00  0.00    -0.016 A 
ATOM      5  C   UNL     1      42.969 -17.839 -38.814  0.00  0.00    -0.053 A 
ATOM      6  C   UNL     1      43.113 -19.163 -39.269  0.00  0.00    -0.026 A 
ATOM      7  C   UNL     1      44.030 -19.384 -40.296  0.00  0.00    +0.016 A 
ATOM      8  C   UNL     1      44.640 -18.312 -40.937  0.00  0.00    +0.167 A 
ATOM      9  O   UNL     1      45.338 -18.661 -42.067  0.00  0.00    -0.484 OA
ATOM     10  C   UNL     1      45.402 -20.111 -42.047  0.00  0.00    +0.116 C 
ATOM     11  C   UNL     1      46.884 -20.445 -41.817  0.00  0.00    +0.015 C 
ATOM     12  C   UNL     1      47.101 -21.902 -41.460  0.00  0.00    +0.077 C 
ATOM     13  C   UNL     1      46.227 -22.293 -40.321  0.00  0.00    -0.059 C 
ATOM     14  C   UNL     1      45.049 -21.702 -40.071  0.00  0.00    -0.071 C 
ATOM     15  C   UNL     1      44.395 -20.667 -40.980  0.00  0.00    +0.056 C 
ATOM     16  C   UNL     1      43.135 -21.255 -41.669  0.00  0.00    -0.023 C 
ATOM     17  C   UNL     1      41.845 -21.310 -40.823  0.00  0.00    +0.000 C 
ATOM     18  N   UNL     1      42.110 -21.508 -39.394  0.00  0.00    -0.298 N 
ATOM     19  C   UNL     1      42.227 -20.234 -38.660  0.00  0.00    +0.024 C 
ATOM     20  H   UNL     1      43.016 -21.973 -39.350  0.00  0.00    +0.000 HD
BRANCH   3  22
ATOM     21  C   UNL     1      46.365 -15.546 -40.648  0.00  0.00    +0.079 C 
ATOM     22  O   UNL     1      45.162 -16.041 -41.219  0.00  0.00    -0.491 OA
ENDBRANCH   3  22
BRANCH  12  23
ATOM     23  O   UNL     1      46.786 -22.747 -42.556  0.00  0.00    -0.388 OA
ATOM     24  H   UNL     1      46.039 -23.318 -42.320  0.00  0.00    +0.000 HD
ENDBRANCH  12  23
ENDBRANCH   2  18
ENDBRANCH   1   2
BRANCH   1  25
ATOM     25  C   UNL     1      39.182 -22.360 -37.090  0.00  0.00    -0.052 C 
BRANCH  25  26
ATOM     26  C   UNL     1      40.024 -22.857 -35.912  0.00  0.00    -0.050 C 
BRANCH  26  27
ATOM     27  C   UNL     1      39.183 -23.438 -34.767  0.00  0.00    -0.019 C 
BRANCH  27  28
ATOM     28  C   UNL     1      38.370 -22.405 -33.985  0.00  0.00    +0.090 C 
BRANCH  28  29
ATOM     29  O   UNL     1      38.970 -22.222 -32.698  0.00  0.00    -0.492 OA
BRANCH  29  30
ATOM     30  C   UNL     1      39.843 -21.169 -32.685  0.00  0.00    +0.121 A 
ATOM     31  C   UNL     1      39.405 -19.847 -32.715  0.00  0.00    -0.020 A 
ATOM     32  C   UNL     1      40.336 -18.806 -32.751  0.00  0.00    -0.054 A 
ATOM     33  C   UNL     1      41.710 -19.083 -32.778  0.00  0.00    -0.030 A 
ATOM     34  C   UNL     1      42.133 -20.423 -32.780  0.00  0.00    -0.054 A 
ATOM     35  C   UNL     1      41.202 -21.461 -32.741  0.00  0.00    -0.020 A 
BRANCH  33  36
ATOM     36  C   UNL     1      42.728 -17.966 -32.836  0.00  0.00    +0.034 C 
BRANCH  36  37
ATOM     37  N   UNL     1      42.820 -17.466 -34.196  0.00  0.00    -0.343 N 
ATOM     38  H   UNL     1      41.993 -17.098 -34.583  0.00  0.00    +0.000 HD
BRANCH  37  39
ATOM     39  C   UNL     1      43.943 -17.448 -35.011  0.00  0.00    +0.009 C 
ATOM     40  C   UNL     1      44.605 -16.330 -35.379  0.00  0.00    -0.043 C 
ATOM     41  C   UNL     1      45.753 -16.359 -36.261  0.00  0.00    -0.035 C 
ATOM     42  C   UNL     1      46.187 -17.512 -36.768  0.00  0.00    +0.067 C 
ATOM     43  N   UNL     1      47.226 -17.716 -37.635  0.00  0.00    -0.255 NA
ATOM     44  C   UNL     1      47.215 -18.998 -37.837  0.00  0.00    +0.029 C 
ATOM     45  C   UNL     1      46.182 -19.755 -37.126  0.00  0.00    -0.038 C 
ATOM     46  C   UNL     1      45.567 -18.774 -36.463  0.00  0.00    -0.015 C 
ATOM     47  C   UNL     1      44.406 -18.826 -35.522  0.00  0.00    +0.012 C 
ENDBRANCH  37  39
ENDBRANCH  36  37
ENDBRANCH  33  36
ENDBRANCH  29  30
ENDBRANCH  28  29
ENDBRANCH  27  28
ENDBRANCH  26  27
ENDBRANCH  25  26
ENDBRANCH   1  25
TORSDOF 13
ENDMDL
MODEL 2
REMARK VINA RESULT:    -7.304     19.427     25.230
REMARK INTER + INTRA:         -16.438
REMARK INTER:                 -14.440
REMARK INTRA:                  -1.998
REMARK UNBOUND:                -3.796
REMARK  Name = cpd55.pdb
REMARK  14 active torsions:
REMARK  status: ('A' for Active; 'I' for Inactive)
REMARK    1  A    between atoms: C_1  and  O_2
REMARK    2  A    between atoms: O_2  and  C_3
REMARK    3  A    between atoms: C_12  and  O_13
REMARK    4  A    between atoms: N_19  and  C_20
REMARK    5  A    between atoms: C_20  and  C_21
REMARK    6  A    between atoms: C_21  and  C_22
REMARK    7  A    between atoms: C_22  and  C_23
REMARK    8  A    between atoms: C_23  and  C_24
REMARK    9  A    between atoms: C_24  and  C_25
REMARK   10  A    between atoms: C_25  and  O_26
REMARK   11  A    between atoms: O_26  and  C_27
REMARK   12  A    between atoms: C_30  and  C_31
REMARK   13  A    between atoms: C_31  and  N_32
REMARK   14  A    between atoms: N_32  and  C_33
REMARK                            x       y       z     vdW  Elec       q    Type
REMARK                         _______ _______ _______ _____ _____    ______ ____
ROOT
ATOM      1  C   UNL     1      30.530 -42.065 -24.744  0.00  0.00    -0.040 C 
ENDROOT
BRANCH   1   2
ATOM      2  C   UNL     1      31.173 -42.753 -23.530  0.00  0.00    -0.001 C 
BRANCH   2  18
ATOM      3  C   UNL     1      36.059 -40.321 -19.823  0.00  0.00    +0.162 A 
ATOM      4  C   UNL     1      36.248 -41.666 -20.135  0.00  0.00    -0.016 A 
ATOM      5  C   UNL     1      35.382 -42.318 -21.031  0.00  0.00    -0.053 A 
ATOM      6  C   UNL     1      34.321 -41.640 -21.660  0.00  0.00    -0.026 A 
ATOM      7  C   UNL     1      34.211 -40.271 -21.418  0.00  0.00    +0.016 A 
ATOM      8  C   UNL     1      35.022 -39.657 -20.470  0.00  0.00    +0.167 A 
ATOM      9  O   UNL     1      34.657 -38.367 -20.174  0.00  0.00    -0.484 OA
ATOM     10  C   UNL     1      33.673 -38.006 -21.179  0.00  0.00    +0.116 C 
ATOM     11  C   UNL     1      34.351 -36.927 -22.037  0.00  0.00    +0.015 C 
ATOM     12  C   UNL     1      33.595 -36.647 -23.321  0.00  0.00    +0.077 C 
ATOM     13  C   UNL     1      33.343 -37.914 -24.061  0.00  0.00    -0.059 C 
ATOM     14  C   UNL     1      33.228 -39.103 -23.450  0.00  0.00    -0.071 C 
ATOM     15  C   UNL     1      33.199 -39.295 -21.938  0.00  0.00    +0.056 C 
ATOM     16  C   UNL     1      31.786 -39.724 -21.462  0.00  0.00    -0.023 C 
ATOM     17  C   UNL     1      31.414 -41.211 -21.646  0.00  0.00    +0.000 C 
ATOM     18  N   UNL     1      32.053 -41.815 -22.820  0.00  0.00    -0.298 N 
ATOM     19  C   UNL     1      33.346 -42.448 -22.496  0.00  0.00    +0.024 C 
ATOM     20  H   UNL     1      32.240 -41.040 -23.455  0.00  0.00    +0.000 HD
BRANCH   3  22
ATOM     21  C   UNL     1      38.174 -39.906 -18.824  0.00  0.00    +0.079 C 
ATOM     22  O   UNL     1      36.793 -39.593 -18.931  0.00  0.00    -0.491 OA
ENDBRANCH   3  22
BRANCH  12  23
ATOM     23  O   UNL     1      32.338 -36.047 -23.051  0.00  0.00    -0.388 OA
ATOM     24  H   UNL     1      31.827 -35.985 -23.873  0.00  0.00    +0.000 HD
ENDBRANCH  12  23
ENDBRANCH   2  18
ENDBRANCH   1   2
BRANCH   1  25
ATOM     25  C   UNL     1      31.526 -41.263 -25.587  0.00  0.00    -0.052 C 
BRANCH  25  26
ATOM     26  C   UNL     1      32.348 -42.136 -26.539  0.00  0.00    -0.050 C 
BRANCH  26  27
ATOM     27  C   UNL     1      33.731 -41.552 -26.857  0.00  0.00    -0.019 C 
BRANCH  27  28
ATOM     28  C   UNL     1      33.703 -40.228 -27.623  0.00  0.00    +0.090 C 
BRANCH  28  29
ATOM     29  O   UNL     1      34.810 -39.424 -27.199  0.00  0.00    -0.492 OA
BRANCH  29  30
ATOM     30  C   UNL     1      35.166 -38.504 -28.147  0.00  0.00    +0.121 A 
ATOM     31  C   UNL     1      34.820 -37.158 -28.035  0.00  0.00    -0.020 A 
ATOM     32  C   UNL     1      35.163 -36.265 -29.052  0.00  0.00    -0.054 A 
ATOM     33  C   UNL     1      35.837 -36.716 -30.197  0.00  0.00    -0.030 A 
ATOM     34  C   UNL     1      36.149 -38.082 -30.306  0.00  0.00    -0.054 A 
ATOM     35  C   UNL     1      35.809 -38.972 -29.288  0.00  0.00    -0.020 A 
BRANCH  33  36
ATOM     36  C   UNL     1      36.197 -35.764 -31.314  0.00  0.00    +0.034 C 
BRANCH  36  37
ATOM     37  N   UNL     1      37.503 -35.186 -31.056  0.00  0.00    -0.343 N 
ATOM     38  H   UNL     1      37.512 -34.317 -30.594  0.00  0.00    +0.000 HD
BRANCH  37  39
ATOM     39  C   UNL     1      38.740 -35.721 -31.387  0.00  0.00    +0.009 C 
ATOM     40  C   UNL     1      39.413 -35.446 -32.525  0.00  0.00    -0.043 C 
ATOM     41  C   UNL     1      40.688 -36.057 -32.843  0.00  0.00    -0.035 C 
ATOM     42  C   UNL     1      41.236 -36.946 -32.016  0.00  0.00    +0.067 C 
ATOM     43  N   UNL     1      42.406 -37.637 -32.175  0.00  0.00    -0.255 NA
ATOM     44  C   UNL     1      42.471 -38.385 -31.116  0.00  0.00    +0.029 C 
ATOM     45  C   UNL     1      41.365 -38.255 -30.164  0.00  0.00    -0.038 C 
ATOM     46  C   UNL     1      40.619 -37.332 -30.775  0.00  0.00    -0.015 C 
ATOM     47  C   UNL     1      39.325 -36.708 -30.360  0.00  0.00    +0.012 C 
ENDBRANCH  37  39
ENDBRANCH  36  37
ENDBRANCH  33  36
ENDBRANCH  29  30
ENDBRANCH  28  29
ENDBRANCH  27  28
ENDBRANCH  26  27
ENDBRANCH  25  26
ENDBRANCH   1  25
TORSDOF 13
ENDMDL
MODEL 3
REMARK VINA RESULT:    -7.051      2.165      8.367
REMARK INTER + INTRA:         -15.999
REMARK INTER:                 -12.673
REMARK INTRA:                  -3.326
REMARK UNBOUND:                -3.796
REMARK  Name = cpd55.pdb
REMARK  14 active torsions:
REMARK  status: ('A' for Active; 'I' for Inactive)
REMARK    1  A    between atoms: C_1  and  O_2
REMARK    2  A    between atoms: O_2  and  C_3
REMARK    3  A    between atoms: C_12  and  O_13
REMARK    4  A    between atoms: N_19  and  C_20
REMARK    5  A    between atoms: C_20  and  C_21
REMARK    6  A    between atoms: C_21  and  C_22
REMARK    7  A    between atoms: C_22  and  C_23
REMARK    8  A    between atoms: C_23  and  C_24
REMARK    9  A    between atoms: C_24  and  C_25
REMARK   10  A    between atoms: C_25  and  O_26
REMARK   11  A    between atoms: O_26  and  C_27
REMARK   12  A    between atoms: C_30  and  C_31
REMARK   13  A    between atoms: C_31  and  N_32
REMARK   14  A    between atoms: N_32  and  C_33
REMARK                            x       y       z     vdW  Elec       q    Type
REMARK                         _______ _______ _______ _____ _____    ______ ____
ROOT
ATOM      1  C   UNL     1      44.711 -16.442 -36.986  0.00  0.00    -0.040 C 
ENDROOT
BRANCH   1   2
ATOM      2  C   UNL     1      44.023 -16.731 -35.644  0.00  0.00    -0.001 C 
BRANCH   2  18
ATOM      3  C   UNL     1      40.660 -22.122 -33.865  0.00  0.00    +0.162 A 
ATOM      4  C   UNL     1      40.681 -21.154 -32.862  0.00  0.00    -0.016 A 
ATOM      5  C   UNL     1      41.232 -19.884 -33.109  0.00  0.00    -0.053 A 
ATOM      6  C   UNL     1      41.751 -19.536 -34.371  0.00  0.00    -0.026 A 
ATOM      7  C   UNL     1      41.624 -20.478 -35.391  0.00  0.00    +0.016 A 
ATOM      8  C   UNL     1      41.153 -21.756 -35.113  0.00  0.00    +0.167 A 
ATOM      9  O   UNL     1      41.293 -22.641 -36.153  0.00  0.00    -0.484 OA
ATOM     10  C   UNL     1      41.664 -21.832 -37.300  0.00  0.00    +0.116 C 
ATOM     11  C   UNL     1      40.461 -21.907 -38.252  0.00  0.00    +0.015 C 
ATOM     12  C   UNL     1      40.537 -20.878 -39.364  0.00  0.00    +0.077 C 
ATOM     13  C   UNL     1      40.754 -19.519 -38.799  0.00  0.00    -0.059 C 
ATOM     14  C   UNL     1      41.386 -19.307 -37.634  0.00  0.00    -0.071 C 
ATOM     15  C   UNL     1      42.075 -20.395 -36.818  0.00  0.00    +0.056 C 
ATOM     16  C   UNL     1      43.616 -20.223 -36.858  0.00  0.00    -0.023 C 
ATOM     17  C   UNL     1      44.218 -19.154 -35.920  0.00  0.00    +0.000 C 
ATOM     18  N   UNL     1      43.317 -18.019 -35.699  0.00  0.00    -0.298 N 
ATOM     19  C   UNL     1      42.459 -18.201 -34.514  0.00  0.00    +0.024 C 
ATOM     20  H   UNL     1      42.710 -17.993 -36.518  0.00  0.00    +0.000 HD
BRANCH   3  22
ATOM     21  C   UNL     1      40.571 -24.100 -32.552  0.00  0.00    +0.079 C 
ATOM     22  O   UNL     1      40.207 -23.403 -33.735  0.00  0.00    -0.491 OA
ENDBRANCH   3  22
BRANCH  12  23
ATOM     23  O   UNL     1      41.615 -21.158 -40.244  0.00  0.00    -0.388 OA
ATOM     24  H   UNL     1      42.280 -21.690 -39.780  0.00  0.00    +0.000 HD
ENDBRANCH  12  23
ENDBRANCH   2  18
ENDBRANCH   1   2
BRANCH   1  25
ATOM     25  C   UNL     1      46.162 -15.975 -36.838  0.00  0.00    -0.052 C 
BRANCH  25  26
ATOM     26  C   UNL     1      46.310 -14.452 -36.871  0.00  0.00    -0.050 C 
BRANCH  26  27
ATOM     27  C   UNL     1      47.389 -13.968 -37.849  0.00  0.00    -0.019 C 
BRANCH  27  28
ATOM     28  C   UNL     1      46.856 -13.183 -39.049  0.00  0.00    +0.090 C 
BRANCH  28  29
ATOM     29  O   UNL     1      47.156 -13.908 -40.247  0.00  0.00    -0.492 OA
BRANCH  29  30
ATOM     30  C   UNL     1      46.289 -14.947 -40.447  0.00  0.00    +0.121 A 
ATOM     31  C   UNL     1      44.907 -14.766 -40.437  0.00  0.00    -0.020 A 
ATOM     32  C   UNL     1      44.061 -15.866 -40.597  0.00  0.00    -0.054 A 
ATOM     33  C   UNL     1      44.592 -17.155 -40.749  0.00  0.00    -0.030 A 
ATOM     34  C   UNL     1      45.987 -17.322 -40.725  0.00  0.00    -0.054 A 
ATOM     35  C   UNL     1      46.831 -16.222 -40.567  0.00  0.00    -0.020 A 
BRANCH  33  36
ATOM     36  C   UNL     1      43.688 -18.356 -40.903  0.00  0.00    +0.034 C 
BRANCH  36  37
ATOM     37  N   UNL     1      44.328 -19.523 -40.322  0.00  0.00    -0.343 N 
ATOM     38  H   UNL     1      44.299 -19.592 -39.341  0.00  0.00    +0.000 HD
BRANCH  37  39
ATOM     39  C   UNL     1      44.974 -20.550 -40.995  0.00  0.00    +0.009 C 
ATOM     40  C   UNL     1      44.529 -21.117 -42.137  0.00  0.00    -0.043 C 
ATOM     41  C   UNL     1      45.222 -22.212 -42.784  0.00  0.00    -0.035 C 
ATOM     42  C   UNL     1      46.331 -22.721 -42.248  0.00  0.00    +0.067 C 
ATOM     43  N   UNL     1      47.086 -23.767 -42.705  0.00  0.00    -0.255 NA
ATOM     44  C   UNL     1      48.028 -23.880 -41.819  0.00  0.00    +0.029 C 
ATOM     45  C   UNL     1      47.989 -22.925 -40.709  0.00  0.00    -0.038 C 
ATOM     46  C   UNL     1      46.906 -22.215 -41.031  0.00  0.00    -0.015 C 
ATOM     47  C   UNL     1      46.270 -21.055 -40.333  0.00  0.00    +0.012 C 
ENDBRANCH  37  39
ENDBRANCH  36  37
ENDBRANCH  33  36
ENDBRANCH  29  30
ENDBRANCH  28  29
ENDBRANCH  27  28
ENDBRANCH  26  27
ENDBRANCH  25  26
ENDBRANCH   1  25
TORSDOF 13
ENDMDL
MODEL 4
REMARK VINA RESULT:    -6.982      2.342      5.544
REMARK INTER + INTRA:         -15.880
REMARK INTER:                 -11.567
REMARK INTRA:                  -4.313
REMARK UNBOUND:                -3.796
REMARK  Name = cpd55.pdb
REMARK  14 active torsions:
REMARK  status: ('A' for Active; 'I' for Inactive)
REMARK    1  A    between atoms: C_1  and  O_2
REMARK    2  A    between atoms: O_2  and  C_3
REMARK    3  A    between atoms: C_12  and  O_13
REMARK    4  A    between atoms: N_19  and  C_20
REMARK    5  A    between atoms: C_20  and  C_21
REMARK    6  A    between atoms: C_21  and  C_22
REMARK    7  A    between atoms: C_22  and  C_23
REMARK    8  A    between atoms: C_23  and  C_24
REMARK    9  A    between atoms: C_24  and  C_25
REMARK   10  A    between atoms: C_25  and  O_26
REMARK   11  A    between atoms: O_26  and  C_27
REMARK   12  A    between atoms: C_30  and  C_31
REMARK   13  A    between atoms: C_31  and  N_32
REMARK   14  A    between atoms: N_32  and  C_33
REMARK                            x       y       z     vdW  Elec       q    Type
REMARK                         _______ _______ _______ _____ _____    ______ ____
ROOT
ATOM      1  C   UNL     1      42.309 -14.852 -35.743  0.00  0.00    -0.040 C 
ENDROOT
BRANCH   1   2
ATOM      2  C   UNL     1      41.583 -15.967 -36.509  0.00  0.00    -0.001 C 
BRANCH   2  18
ATOM      3  C   UNL     1      45.011 -19.976 -40.472  0.00  0.00    +0.162 A 
ATOM      4  C   UNL     1      44.260 -19.041 -41.183  0.00  0.00    -0.016 A 
ATOM      5  C   UNL     1      43.574 -18.016 -40.507  0.00  0.00    -0.053 A 
ATOM      6  C   UNL     1      43.641 -17.880 -39.108  0.00  0.00    -0.026 A 
ATOM      7  C   UNL     1      44.481 -18.757 -38.425  0.00  0.00    +0.016 A 
ATOM      8  C   UNL     1      45.089 -19.814 -39.093  0.00  0.00    +0.167 A 
ATOM      9  O   UNL     1      45.700 -20.721 -38.264  0.00  0.00    -0.484 OA
ATOM     10  C   UNL     1      45.713 -20.098 -36.953  0.00  0.00    +0.116 C 
ATOM     11  C   UNL     1      47.193 -19.811 -36.659  0.00  0.00    +0.015 C 
ATOM     12  C   UNL     1      47.379 -18.885 -35.472  0.00  0.00    +0.077 C 
ATOM     13  C   UNL     1      46.565 -17.651 -35.644  0.00  0.00    -0.059 C 
ATOM     14  C   UNL     1      45.428 -17.623 -36.356  0.00  0.00    -0.071 C 
ATOM     15  C   UNL     1      44.756 -18.854 -36.954  0.00  0.00    +0.056 C 
ATOM     16  C   UNL     1      43.434 -19.178 -36.209  0.00  0.00    -0.023 C 
ATOM     17  C   UNL     1      42.199 -18.334 -36.588  0.00  0.00    +0.000 C 
ATOM     18  N   UNL     1      42.546 -16.967 -36.989  0.00  0.00    -0.298 N 
ATOM     19  C   UNL     1      42.756 -16.841 -38.444  0.00  0.00    +0.024 C 
ATOM     20  H   UNL     1      43.436 -16.769 -36.532  0.00  0.00    +0.000 HD
BRANCH   3  22
ATOM     21  C   UNL     1      45.235 -21.511 -42.272  0.00  0.00    +0.079 C 
ATOM     22  O   UNL     1      45.674 -21.044 -41.004  0.00  0.00    -0.491 OA
ENDBRANCH   3  22
BRANCH  12  23
ATOM     23  O   UNL     1      46.965 -19.512 -34.268  0.00  0.00    -0.388 OA
ATOM     24  H   UNL     1      46.622 -18.841 -33.656  0.00  0.00    +0.000 HD
ENDBRANCH  12  23
ENDBRANCH   2  18
ENDBRANCH   1   2
BRANCH   1  25
ATOM     25  C   UNL     1      43.425 -15.368 -34.829  0.00  0.00    -0.052 C 
BRANCH  25  26
ATOM     26  C   UNL     1      42.899 -16.073 -33.576  0.00  0.00    -0.050 C 
BRANCH  26  27
ATOM     27  C   UNL     1      41.572 -15.495 -33.066  0.00  0.00    -0.019 C 
BRANCH  27  28
ATOM     28  C   UNL     1      40.411 -16.491 -33.042  0.00  0.00    +0.090 C 
BRANCH  28  29
ATOM     29  O   UNL     1      40.570 -17.360 -31.915  0.00  0.00    -0.492 OA
BRANCH  29  30
ATOM     30  C   UNL     1      40.520 -18.679 -32.275  0.00  0.00    +0.121 A 
ATOM     31  C   UNL     1      39.356 -19.435 -32.146  0.00  0.00    -0.020 A 
ATOM     32  C   UNL     1      39.367 -20.791 -32.480  0.00  0.00    -0.054 A 
ATOM     33  C   UNL     1      40.547 -21.403 -32.926  0.00  0.00    -0.030 A 
ATOM     34  C   UNL     1      41.718 -20.633 -33.019  0.00  0.00    -0.054 A 
ATOM     35  C   UNL     1      41.705 -19.278 -32.688  0.00  0.00    -0.020 A 
BRANCH  33  36
ATOM     36  C   UNL     1      40.578 -22.874 -33.272  0.00  0.00    +0.034 C 
BRANCH  36  37
ATOM     37  N   UNL     1      39.824 -23.101 -34.491  0.00  0.00    -0.343 N 
ATOM     38  H   UNL     1      39.201 -23.863 -34.483  0.00  0.00    +0.000 HD
BRANCH  37  39
ATOM     39  C   UNL     1      39.882 -22.365 -35.666  0.00  0.00    +0.009 C 
ATOM     40  C   UNL     1      38.908 -21.536 -36.099  0.00  0.00    -0.043 C 
ATOM     41  C   UNL     1      38.999 -20.813 -37.351  0.00  0.00    -0.035 C 
ATOM     42  C   UNL     1      40.059 -20.967 -38.144  0.00  0.00    +0.067 C 
ATOM     43  N   UNL     1      40.291 -20.393 -39.365  0.00  0.00    -0.255 NA
ATOM     44  C   UNL     1      41.437 -20.884 -39.726  0.00  0.00    +0.029 C 
ATOM     45  C   UNL     1      42.067 -21.814 -38.785  0.00  0.00    -0.038 C 
ATOM     46  C   UNL     1      41.163 -21.826 -37.804  0.00  0.00    -0.015 C 
ATOM     47  C   UNL     1      41.158 -22.567 -36.505  0.00  0.00    +0.012 C 
ENDBRANCH  37  39
ENDBRANCH  36  37
ENDBRANCH  33  36
ENDBRANCH  29  30
ENDBRANCH  28  29
ENDBRANCH  27  28
ENDBRANCH  26  27
ENDBRANCH  25  26
ENDBRANCH   1  25
TORSDOF 13
ENDMDL
MODEL 5
REMARK VINA RESULT:    -6.889      2.324      6.851
REMARK INTER + INTRA:         -15.719
REMARK INTER:                 -10.929
REMARK INTRA:                  -4.790
REMARK UNBOUND:                -3.796
REMARK  Name = cpd55.pdb
REMARK  14 active torsions:
REMARK  status: ('A' for Active; 'I' for Inactive)
REMARK    1  A    between atoms: C_1  and  O_2
REMARK    2  A    between atoms: O_2  and  C_3
REMARK    3  A    between atoms: C_12  and  O_13
REMARK    4  A    between atoms: N_19  and  C_20
REMARK    5  A    between atoms: C_20  and  C_21
REMARK    6  A    between atoms: C_21  and  C_22
REMARK    7  A    between atoms: C_22  and  C_23
REMARK    8  A    between atoms: C_23  and  C_24
REMARK    9  A    between atoms: C_24  and  C_25
REMARK   10  A    between atoms: C_25  and  O_26
REMARK   11  A    between atoms: O_26  and  C_27
REMARK   12  A    between atoms: C_30  and  C_31
REMARK   13  A    between atoms: C_31  and  N_32
REMARK   14  A    between atoms: N_32  and  C_33
REMARK                            x       y       z     vdW  Elec       q    Type
REMARK                         _______ _______ _______ _____ _____    ______ ____
ROOT
ATOM      1  C   UNL     1      47.053 -15.702 -38.348  0.00  0.00    -0.040 C 
ENDROOT
BRANCH   1   2
ATOM      2  C   UNL     1      47.376 -17.027 -37.642  0.00  0.00    -0.001 C 
BRANCH   2  18
ATOM      3  C   UNL     1      42.315 -21.257 -37.494  0.00  0.00    +0.162 A 
ATOM      4  C   UNL     1      42.272 -20.340 -36.444  0.00  0.00    -0.016 A 
ATOM      5  C   UNL     1      43.190 -19.276 -36.389  0.00  0.00    -0.053 A 
ATOM      6  C   UNL     1      44.157 -19.082 -37.394  0.00  0.00    -0.026 A 
ATOM      7  C   UNL     1      44.116 -19.944 -38.489  0.00  0.00    +0.016 A 
ATOM      8  C   UNL     1      43.258 -21.038 -38.491  0.00  0.00    +0.167 A 
ATOM      9  O   UNL     1      43.482 -21.920 -39.520  0.00  0.00    -0.484 OA
ATOM     10  C   UNL     1      44.400 -21.242 -40.416  0.00  0.00    +0.116 C 
ATOM     11  C   UNL     1      43.590 -20.968 -41.692  0.00  0.00    +0.015 C 
ATOM     12  C   UNL     1      44.286 -19.996 -42.624  0.00  0.00    +0.077 C 
ATOM     13  C   UNL     1      44.666 -18.757 -41.892  0.00  0.00    -0.059 C 
ATOM     14  C   UNL     1      44.926 -18.739 -40.576  0.00  0.00    -0.071 C 
ATOM     15  C   UNL     1      45.003 -19.983 -39.698  0.00  0.00    +0.056 C 
ATOM     16  C   UNL     1      46.463 -20.253 -39.250  0.00  0.00    -0.023 C 
ATOM     17  C   UNL     1      46.997 -19.405 -38.076  0.00  0.00    +0.000 C 
ATOM     18  N   UNL     1      46.409 -18.062 -38.032  0.00  0.00    -0.298 N 
ATOM     19  C   UNL     1      45.202 -18.001 -37.187  0.00  0.00    +0.024 C 
ATOM     20  H   UNL     1      46.125 -17.861 -38.990  0.00  0.00    +0.000 HD
BRANCH   3  22
ATOM     21  C   UNL     1      40.258 -22.170 -38.257  0.00  0.00    +0.079 C 
ATOM     22  O   UNL     1      41.520 -22.358 -37.631  0.00  0.00    -0.491 OA
ENDBRANCH   3  22
BRANCH  12  23
ATOM     23  O   UNL     1      45.473 -20.564 -43.157  0.00  0.00    -0.388 OA
ATOM     24  H   UNL     1      45.851 -19.962 -43.817  0.00  0.00    +0.000 HD
ENDBRANCH  12  23
ENDBRANCH   2  18
ENDBRANCH   1   2
BRANCH   1  25
ATOM     25  C   UNL     1      46.967 -15.830 -39.872  0.00  0.00    -0.052 C 
BRANCH  25  26
ATOM     26  C   UNL     1      45.645 -15.314 -40.446  0.00  0.00    -0.050 C 
BRANCH  26  27
ATOM     27  C   UNL     1      44.918 -14.338 -39.511  0.00  0.00    -0.019 C 
BRANCH  27  28
ATOM     28  C   UNL     1      43.409 -14.564 -39.403  0.00  0.00    +0.090 C 
BRANCH  28  29
ATOM     29  O   UNL     1      43.107 -15.893 -39.843  0.00  0.00    -0.492 OA
BRANCH  29  30
ATOM     30  C   UNL     1      42.111 -16.464 -39.100  0.00  0.00    +0.121 A 
ATOM     31  C   UNL     1      41.443 -17.613 -39.521  0.00  0.00    -0.020 A 
ATOM     32  C   UNL     1      40.398 -18.131 -38.752  0.00  0.00    -0.054 A 
ATOM     33  C   UNL     1      40.003 -17.492 -37.567  0.00  0.00    -0.030 A 
ATOM     34  C   UNL     1      40.668 -16.318 -37.175  0.00  0.00    -0.054 A 
ATOM     35  C   UNL     1      41.712 -15.803 -37.943  0.00  0.00    -0.020 A 
BRANCH  33  36
ATOM     36  C   UNL     1      38.862 -18.032 -36.736  0.00  0.00    +0.034 C 
BRANCH  36  37
ATOM     37  N   UNL     1      39.282 -18.143 -35.351  0.00  0.00    -0.343 N 
ATOM     38  H   UNL     1      39.518 -17.301 -34.898  0.00  0.00    +0.000 HD
BRANCH  37  39
ATOM     39  C   UNL     1      39.388 -19.301 -34.594  0.00  0.00    +0.009 C 
ATOM     40  C   UNL     1      39.875 -19.351 -33.335  0.00  0.00    -0.043 C 
ATOM     41  C   UNL     1      39.998 -20.591 -32.597  0.00  0.00    -0.035 C 
ATOM     42  C   UNL     1      39.650 -21.749 -33.157  0.00  0.00    +0.067 C 
ATOM     43  N   UNL     1      39.731 -23.005 -32.620  0.00  0.00    -0.255 NA
ATOM     44  C   UNL     1      39.299 -23.777 -33.570  0.00  0.00    +0.029 C 
ATOM     45  C   UNL     1      38.889 -23.111 -34.808  0.00  0.00    -0.038 C 
ATOM     46  C   UNL     1      39.123 -21.835 -34.494  0.00  0.00    -0.015 C 
ATOM     47  C   UNL     1      38.925 -20.591 -35.298  0.00  0.00    +0.012 C 
ENDBRANCH  37  39
ENDBRANCH  36  37
ENDBRANCH  33  36
ENDBRANCH  29  30
ENDBRANCH  28  29
ENDBRANCH  27  28
ENDBRANCH  26  27
ENDBRANCH  25  26
ENDBRANCH   1  25
TORSDOF 13
ENDMDL
MODEL 6
REMARK VINA RESULT:    -6.866      2.791      8.381
REMARK INTER + INTRA:         -15.679
REMARK INTER:                 -13.446
REMARK INTRA:                  -2.233
REMARK UNBOUND:                -3.796
REMARK  Name = cpd55.pdb
REMARK  14 active torsions:
REMARK  status: ('A' for Active; 'I' for Inactive)
REMARK    1  A    between atoms: C_1  and  O_2
REMARK    2  A    between atoms: O_2  and  C_3
REMARK    3  A    between atoms: C_12  and  O_13
REMARK    4  A    between atoms: N_19  and  C_20
REMARK    5  A    between atoms: C_20  and  C_21
REMARK    6  A    between atoms: C_21  and  C_22
REMARK    7  A    between atoms: C_22  and  C_23
REMARK    8  A    between atoms: C_23  and  C_24
REMARK    9  A    between atoms: C_24  and  C_25
REMARK   10  A    between atoms: C_25  and  O_26
REMARK   11  A    between atoms: O_26  and  C_27
REMARK   12  A    between atoms: C_30  and  C_31
REMARK   13  A    between atoms: C_31  and  N_32
REMARK   14  A    between atoms: N_32  and  C_33
REMARK                            x       y       z     vdW  Elec       q    Type
REMARK                         _______ _______ _______ _____ _____    ______ ____
ROOT
ATOM      1  C   UNL     1      46.178 -17.379 -39.565  0.00  0.00    -0.040 C 
ENDROOT
BRANCH   1   2
ATOM      2  C   UNL     1      47.148 -17.006 -38.434  0.00  0.00    -0.001 C 
BRANCH   2  18
ATOM      3  C   UNL     1      43.950 -14.637 -33.171  0.00  0.00    +0.162 A 
ATOM      4  C   UNL     1      44.082 -13.688 -34.184  0.00  0.00    -0.016 A 
ATOM      5  C   UNL     1      44.613 -14.051 -35.435  0.00  0.00    -0.053 A 
ATOM      6  C   UNL     1      45.001 -15.374 -35.718  0.00  0.00    -0.026 A 
ATOM      7  C   UNL     1      44.763 -16.329 -34.732  0.00  0.00    +0.016 A 
ATOM      8  C   UNL     1      44.314 -15.944 -33.473  0.00  0.00    +0.167 A 
ATOM      9  O   UNL     1      44.339 -16.951 -32.539  0.00  0.00    -0.484 OA
ATOM     10  C   UNL     1      44.595 -18.166 -33.291  0.00  0.00    +0.116 C 
ATOM     11  C   UNL     1      43.299 -18.985 -33.185  0.00  0.00    +0.015 C 
ATOM     12  C   UNL     1      43.266 -20.146 -34.161  0.00  0.00    +0.077 C 
ATOM     13  C   UNL     1      43.551 -19.671 -35.542  0.00  0.00    -0.059 C 
ATOM     14  C   UNL     1      44.301 -18.589 -35.800  0.00  0.00    -0.071 C 
ATOM     15  C   UNL     1      45.063 -17.798 -34.743  0.00  0.00    +0.056 C 
ATOM     16  C   UNL     1      46.593 -18.005 -34.895  0.00  0.00    -0.023 C 
ATOM     17  C   UNL     1      47.297 -17.186 -35.998  0.00  0.00    +0.000 C 
ATOM     18  N   UNL     1      46.432 -16.927 -37.154  0.00  0.00    -0.298 N 
ATOM     19  C   UNL     1      45.699 -15.652 -37.036  0.00  0.00    +0.024 C 
ATOM     20  H   UNL     1      45.743 -17.679 -37.149  0.00  0.00    +0.000 HD
BRANCH   3  22
ATOM     21  C   UNL     1      44.471 -14.003 -30.941  0.00  0.00    +0.079 C 
ATOM     22  O   UNL     1      43.504 -14.400 -31.903  0.00  0.00    -0.491 OA
ENDBRANCH   3  22
BRANCH  12  23
ATOM     23  O   UNL     1      44.245 -21.118 -33.828  0.00  0.00    -0.388 OA
ATOM     24  H   UNL     1      45.110 -20.834 -34.164  0.00  0.00    +0.000 HD
ENDBRANCH  12  23
ENDBRANCH   2  18
ENDBRANCH   1   2
BRANCH   1  25
ATOM     25  C   UNL     1      46.856 -18.097 -40.735  0.00  0.00    -0.052 C 
BRANCH  25  26
ATOM     26  C   UNL     1      47.177 -19.564 -40.436  0.00  0.00    -0.050 C 
BRANCH  26  27
ATOM     27  C   UNL     1      47.069 -20.473 -41.668  0.00  0.00    -0.019 C 
BRANCH  27  28
ATOM     28  C   UNL     1      45.963 -21.526 -41.588  0.00  0.00    +0.090 C 
BRANCH  28  29
ATOM     29  O   UNL     1      44.781 -21.005 -42.206  0.00  0.00    -0.492 OA
BRANCH  29  30
ATOM     30  C   UNL     1      43.690 -21.103 -41.386  0.00  0.00    +0.121 A 
ATOM     31  C   UNL     1      43.691 -20.584 -40.092  0.00  0.00    -0.020 A 
ATOM     32  C   UNL     1      42.571 -20.752 -39.274  0.00  0.00    -0.054 A 
ATOM     33  C   UNL     1      41.451 -21.457 -39.740  0.00  0.00    -0.030 A 
ATOM     34  C   UNL     1      41.480 -21.999 -41.035  0.00  0.00    -0.054 A 
ATOM     35  C   UNL     1      42.599 -21.829 -41.852  0.00  0.00    -0.020 A 
BRANCH  33  36
ATOM     36  C   UNL     1      40.240 -21.663 -38.859  0.00  0.00    +0.034 C 
BRANCH  36  37
ATOM     37  N   UNL     1      40.491 -21.092 -37.548  0.00  0.00    -0.343 N 
ATOM     38  H   UNL     1      41.096 -20.315 -37.519  0.00  0.00    +0.000 HD
BRANCH  37  39
ATOM     39  C   UNL     1      39.976 -21.517 -36.332  0.00  0.00    +0.009 C 
ATOM     40  C   UNL     1      40.419 -22.593 -35.646  0.00  0.00    -0.043 C 
ATOM     41  C   UNL     1      39.825 -23.018 -34.395  0.00  0.00    -0.035 C 
ATOM     42  C   UNL     1      38.785 -22.361 -33.884  0.00  0.00    +0.067 C 
ATOM     43  N   UNL     1      38.088 -22.643 -32.740  0.00  0.00    -0.255 NA
ATOM     44  C   UNL     1      37.165 -21.731 -32.706  0.00  0.00    +0.029 C 
ATOM     45  C   UNL     1      37.169 -20.766 -33.809  0.00  0.00    -0.038 C 
ATOM     46  C   UNL     1      38.212 -21.203 -34.517  0.00  0.00    -0.015 C 
ATOM     47  C   UNL     1      38.803 -20.680 -35.787  0.00  0.00    +0.012 C 
ENDBRANCH  37  39
ENDBRANCH  36  37
ENDBRANCH  33  36
ENDBRANCH  29  30
ENDBRANCH  28  29
ENDBRANCH  27  28
ENDBRANCH  26  27
ENDBRANCH  25  26
ENDBRANCH   1  25
TORSDOF 13
ENDMDL
MODEL 7
REMARK VINA RESULT:    -6.852      2.159      7.642
REMARK INTER + INTRA:         -15.654
REMARK INTER:                 -11.377
REMARK INTRA:                  -4.277
REMARK UNBOUND:                -3.796
REMARK  Name = cpd55.pdb
REMARK  14 active torsions:
REMARK  status: ('A' for Active; 'I' for Inactive)
REMARK    1  A    between atoms: C_1  and  O_2
REMARK    2  A    between atoms: O_2  and  C_3
REMARK    3  A    between atoms: C_12  and  O_13
REMARK    4  A    between atoms: N_19  and  C_20
REMARK    5  A    between atoms: C_20  and  C_21
REMARK    6  A    between atoms: C_21  and  C_22
REMARK    7  A    between atoms: C_22  and  C_23
REMARK    8  A    between atoms: C_23  and  C_24
REMARK    9  A    between atoms: C_24  and  C_25
REMARK   10  A    between atoms: C_25  and  O_26
REMARK   11  A    between atoms: O_26  and  C_27
REMARK   12  A    between atoms: C_30  and  C_31
REMARK   13  A    between atoms: C_31  and  N_32
REMARK   14  A    between atoms: N_32  and  C_33
REMARK                            x       y       z     vdW  Elec       q    Type
REMARK                         _______ _______ _______ _____ _____    ______ ____
ROOT
ATOM      1  C   UNL     1      43.743 -16.265 -36.243  0.00  0.00    -0.040 C 
ENDROOT
BRANCH   1   2
ATOM      2  C   UNL     1      42.324 -16.350 -35.662  0.00  0.00    -0.001 C 
BRANCH   2  18
ATOM      3  C   UNL     1      39.971 -21.983 -33.161  0.00  0.00    +0.162 A 
ATOM      4  C   UNL     1      39.680 -20.882 -32.356  0.00  0.00    -0.016 A 
ATOM      5  C   UNL     1      39.981 -19.580 -32.795  0.00  0.00    -0.053 A 
ATOM      6  C   UNL     1      40.553 -19.339 -34.058  0.00  0.00    -0.026 A 
ATOM      7  C   UNL     1      40.738 -20.441 -34.892  0.00  0.00    +0.016 A 
ATOM      8  C   UNL     1      40.513 -21.729 -34.416  0.00  0.00    +0.167 A 
ATOM      9  O   UNL     1      40.947 -22.720 -35.261  0.00  0.00    -0.484 OA
ATOM     10  C   UNL     1      41.268 -22.049 -36.508  0.00  0.00    +0.116 C 
ATOM     11  C   UNL     1      40.220 -22.547 -37.515  0.00  0.00    +0.015 C 
ATOM     12  C   UNL     1      40.205 -21.727 -38.790  0.00  0.00    +0.077 C 
ATOM     13  C   UNL     1      40.073 -20.278 -38.472  0.00  0.00    -0.059 C 
ATOM     14  C   UNL     1      40.513 -19.741 -37.325  0.00  0.00    -0.071 C 
ATOM     15  C   UNL     1      41.317 -20.498 -36.273  0.00  0.00    +0.056 C 
ATOM     16  C   UNL     1      42.784 -19.995 -36.232  0.00  0.00    -0.023 C 
ATOM     17  C   UNL     1      43.045 -18.679 -35.468  0.00  0.00    +0.000 C 
ATOM     18  N   UNL     1      41.910 -17.753 -35.528  0.00  0.00    -0.298 N 
ATOM     19  C   UNL     1      40.981 -17.923 -34.395  0.00  0.00    +0.024 C 
ATOM     20  H   UNL     1      41.405 -17.999 -36.379  0.00  0.00    +0.000 HD
BRANCH   3  22
ATOM     21  C   UNL     1      40.865 -23.966 -32.206  0.00  0.00    +0.079 C 
ATOM     22  O   UNL     1      39.780 -23.293 -32.828  0.00  0.00    -0.491 OA
ENDBRANCH   3  22
BRANCH  12  23
ATOM     23  O   UNL     1      41.408 -21.901 -39.522  0.00  0.00    -0.388 OA
ATOM     24  H   UNL     1      41.423 -21.283 -40.270  0.00  0.00    +0.000 HD
ENDBRANCH  12  23
ENDBRANCH   2  18
ENDBRANCH   1   2
BRANCH   1  25
ATOM     25  C   UNL     1      43.953 -15.057 -37.161  0.00  0.00    -0.052 C 
BRANCH  25  26
ATOM     26  C   UNL     1      42.688 -14.217 -37.350  0.00  0.00    -0.050 C 
BRANCH  26  27
ATOM     27  C   UNL     1      42.655 -13.461 -38.685  0.00  0.00    -0.019 C 
BRANCH  27  28
ATOM     28  C   UNL     1      43.174 -14.259 -39.882  0.00  0.00    +0.090 C 
BRANCH  28  29
ATOM     29  O   UNL     1      42.237 -15.296 -40.190  0.00  0.00    -0.492 OA
BRANCH  29  30
ATOM     30  C   UNL     1      42.850 -16.508 -40.355  0.00  0.00    +0.121 A 
ATOM     31  C   UNL     1      42.621 -17.574 -39.488  0.00  0.00    -0.020 A 
ATOM     32  C   UNL     1      43.308 -18.777 -39.667  0.00  0.00    -0.054 A 
ATOM     33  C   UNL     1      44.243 -18.913 -40.704  0.00  0.00    -0.030 A 
ATOM     34  C   UNL     1      44.484 -17.817 -41.549  0.00  0.00    -0.054 A 
ATOM     35  C   UNL     1      43.795 -16.617 -41.370  0.00  0.00    -0.020 A 
BRANCH  33  36
ATOM     36  C   UNL     1      45.007 -20.203 -40.897  0.00  0.00    +0.034 C 
BRANCH  36  37
ATOM     37  N   UNL     1      46.258 -20.139 -40.163  0.00  0.00    -0.343 N 
ATOM     38  H   UNL     1      47.079 -20.276 -40.688  0.00  0.00    +0.000 HD
BRANCH  37  39
ATOM     39  C   UNL     1      46.426 -19.907 -38.805  0.00  0.00    +0.009 C 
ATOM     40  C   UNL     1      46.177 -20.815 -37.837  0.00  0.00    -0.043 C 
ATOM     41  C   UNL     1      46.335 -20.515 -36.429  0.00  0.00    -0.035 C 
ATOM     42  C   UNL     1      46.715 -19.300 -36.035  0.00  0.00    +0.067 C 
ATOM     43  N   UNL     1      46.880 -18.840 -34.757  0.00  0.00    -0.255 NA
ATOM     44  C   UNL     1      47.227 -17.599 -34.916  0.00  0.00    +0.029 C 
ATOM     45  C   UNL     1      47.330 -17.129 -36.300  0.00  0.00    -0.038 C 
ATOM     46  C   UNL     1      47.004 -18.240 -36.964  0.00  0.00    -0.015 C 
ATOM     47  C   UNL     1      46.908 -18.492 -38.435  0.00  0.00    +0.012 C 
ENDBRANCH  37  39
ENDBRANCH  36  37
ENDBRANCH  33  36
ENDBRANCH  29  30
ENDBRANCH  28  29
ENDBRANCH  27  28
ENDBRANCH  26  27
ENDBRANCH  25  26
ENDBRANCH   1  25
TORSDOF 13
ENDMDL
MODEL 8
REMARK VINA RESULT:    -6.744      2.408      3.711
REMARK INTER + INTRA:         -15.467
REMARK INTER:                 -10.412
REMARK INTRA:                  -5.055
REMARK UNBOUND:                -3.796
REMARK  Name = cpd55.pdb
REMARK  14 active torsions:
REMARK  status: ('A' for Active; 'I' for Inactive)
REMARK    1  A    between atoms: C_1  and  O_2
REMARK    2  A    between atoms: O_2  and  C_3
REMARK    3  A    between atoms: C_12  and  O_13
REMARK    4  A    between atoms: N_19  and  C_20
REMARK    5  A    between atoms: C_20  and  C_21
REMARK    6  A    between atoms: C_21  and  C_22
REMARK    7  A    between atoms: C_22  and  C_23
REMARK    8  A    between atoms: C_23  and  C_24
REMARK    9  A    between atoms: C_24  and  C_25
REMARK   10  A    between atoms: C_25  and  O_26
REMARK   11  A    between atoms: O_26  and  C_27
REMARK   12  A    between atoms: C_30  and  C_31
REMARK   13  A    between atoms: C_31  and  N_32
REMARK   14  A    between atoms: N_32  and  C_33
REMARK                            x       y       z     vdW  Elec       q    Type
REMARK                         _______ _______ _______ _____ _____    ______ ____
ROOT
ATOM      1  C   UNL     1      39.219 -20.145 -37.650  0.00  0.00    -0.040 C 
ENDROOT
BRANCH   1   2
ATOM      2  C   UNL     1      40.158 -20.433 -38.829  0.00  0.00    -0.001 C 
BRANCH   2  18
ATOM      3  C   UNL     1      45.848 -17.105 -39.123  0.00  0.00    +0.162 A 
ATOM      4  C   UNL     1      44.865 -16.550 -39.941  0.00  0.00    -0.016 A 
ATOM      5  C   UNL     1      43.547 -17.040 -39.905  0.00  0.00    -0.053 A 
ATOM      6  C   UNL     1      43.168 -18.077 -39.032  0.00  0.00    -0.026 A 
ATOM      7  C   UNL     1      44.137 -18.547 -38.146  0.00  0.00    +0.016 A 
ATOM      8  C   UNL     1      45.454 -18.111 -38.249  0.00  0.00    +0.167 A 
ATOM      9  O   UNL     1      46.337 -18.817 -37.470  0.00  0.00    -0.484 OA
ATOM     10  C   UNL     1      45.513 -19.631 -36.594  0.00  0.00    +0.116 C 
ATOM     11  C   UNL     1      45.736 -19.059 -35.186  0.00  0.00    +0.015 C 
ATOM     12  C   UNL     1      44.726 -19.580 -34.182  0.00  0.00    +0.077 C 
ATOM     13  C   UNL     1      43.340 -19.376 -34.687  0.00  0.00    -0.059 C 
ATOM     14  C   UNL     1      43.040 -19.337 -35.994  0.00  0.00    -0.071 C 
ATOM     15  C   UNL     1      44.033 -19.629 -37.114  0.00  0.00    +0.056 C 
ATOM     16  C   UNL     1      43.695 -20.972 -37.814  0.00  0.00    -0.023 C 
ATOM     17  C   UNL     1      42.551 -20.944 -38.850  0.00  0.00    +0.000 C 
ATOM     18  N   UNL     1      41.515 -19.958 -38.528  0.00  0.00    -0.298 N 
ATOM     19  C   UNL     1      41.768 -18.648 -39.159  0.00  0.00    +0.024 C 
ATOM     20  H   UNL     1      41.570 -19.828 -37.518  0.00  0.00    +0.000 HD
BRANCH   3  22
ATOM     21  C   UNL     1      47.477 -15.415 -38.754  0.00  0.00    +0.079 C 
ATOM     22  O   UNL     1      47.168 -16.757 -39.105  0.00  0.00    -0.491 OA
ENDBRANCH   3  22
BRANCH  12  23
ATOM     23  O   UNL     1      44.903 -20.970 -33.956  0.00  0.00    -0.388 OA
ATOM     24  H   UNL     1      44.653 -21.461 -34.755  0.00  0.00    +0.000 HD
ENDBRANCH  12  23
ENDBRANCH   2  18
ENDBRANCH   1   2
BRANCH   1  25
ATOM     25  C   UNL     1      39.626 -20.861 -36.359  0.00  0.00    -0.052 C 
BRANCH  25  26
ATOM     26  C   UNL     1      39.304 -22.357 -36.373  0.00  0.00    -0.050 C 
BRANCH  26  27
ATOM     27  C   UNL     1      39.659 -23.068 -35.060  0.00  0.00    -0.019 C 
BRANCH  27  28
ATOM     28  C   UNL     1      38.473 -23.309 -34.124  0.00  0.00    +0.090 C 
BRANCH  28  29
ATOM     29  O   UNL     1      38.808 -22.825 -32.819  0.00  0.00    -0.492 OA
BRANCH  29  30
ATOM     30  C   UNL     1      38.891 -21.460 -32.785  0.00  0.00    +0.121 A 
ATOM     31  C   UNL     1      37.786 -20.647 -33.033  0.00  0.00    -0.020 A 
ATOM     32  C   UNL     1      37.931 -19.257 -33.036  0.00  0.00    -0.054 A 
ATOM     33  C   UNL     1      39.186 -18.674 -32.811  0.00  0.00    -0.030 A 
ATOM     34  C   UNL     1      40.295 -19.510 -32.595  0.00  0.00    -0.054 A 
ATOM     35  C   UNL     1      40.148 -20.897 -32.589  0.00  0.00    -0.020 A 
BRANCH  33  36
ATOM     36  C   UNL     1      39.361 -17.173 -32.832  0.00  0.00    +0.034 C 
BRANCH  36  37
ATOM     37  N   UNL     1      40.684 -16.832 -32.341  0.00  0.00    -0.343 N 
ATOM     38  H   UNL     1      40.808 -16.859 -31.365  0.00  0.00    +0.000 HD
BRANCH  37  39
ATOM     39  C   UNL     1      41.794 -16.472 -33.093  0.00  0.00    +0.009 C 
ATOM     40  C   UNL     1      43.051 -16.381 -32.608  0.00  0.00    -0.043 C 
ATOM     41  C   UNL     1      44.173 -15.968 -33.424  0.00  0.00    -0.035 C 
ATOM     42  C   UNL     1      43.992 -15.633 -34.702  0.00  0.00    +0.067 C 
ATOM     43  N   UNL     1      44.926 -15.193 -35.599  0.00  0.00    -0.255 NA
ATOM     44  C   UNL     1      44.241 -14.982 -36.682  0.00  0.00    +0.029 C 
ATOM     45  C   UNL     1      42.806 -15.266 -36.604  0.00  0.00    -0.038 C 
ATOM     46  C   UNL     1      42.703 -15.679 -35.340  0.00  0.00    -0.015 C 
ATOM     47  C   UNL     1      41.507 -16.142 -34.570  0.00  0.00    +0.012 C 
ENDBRANCH  37  39
ENDBRANCH  36  37
ENDBRANCH  33  36
ENDBRANCH  29  30
ENDBRANCH  28  29
ENDBRANCH  27  28
ENDBRANCH  26  27
ENDBRANCH  25  26
ENDBRANCH   1  25
TORSDOF 13
ENDMDL
MODEL 9
REMARK VINA RESULT:    -6.657      2.306      4.599
REMARK INTER + INTRA:         -15.317
REMARK INTER:                 -12.362
REMARK INTRA:                  -2.955
REMARK UNBOUND:                -3.796
REMARK  Name = cpd55.pdb
REMARK  14 active torsions:
REMARK  status: ('A' for Active; 'I' for Inactive)
REMARK    1  A    between atoms: C_1  and  O_2
REMARK    2  A    between atoms: O_2  and  C_3
REMARK    3  A    between atoms: C_12  and  O_13
REMARK    4  A    between atoms: N_19  and  C_20
REMARK    5  A    between atoms: C_20  and  C_21
REMARK    6  A    between atoms: C_21  and  C_22
REMARK    7  A    between atoms: C_22  and  C_23
REMARK    8  A    between atoms: C_23  and  C_24
REMARK    9  A    between atoms: C_24  and  C_25
REMARK   10  A    between atoms: C_25  and  O_26
REMARK   11  A    between atoms: O_26  and  C_27
REMARK   12  A    between atoms: C_30  and  C_31
REMARK   13  A    between atoms: C_31  and  N_32
REMARK   14  A    between atoms: N_32  and  C_33
REMARK                            x       y       z     vdW  Elec       q    Type
REMARK                         _______ _______ _______ _____ _____    ______ ____
ROOT
ATOM      1  C   UNL     1      41.148 -21.455 -38.178  0.00  0.00    -0.040 C 
ENDROOT
BRANCH   1   2
ATOM      2  C   UNL     1      41.905 -22.228 -39.267  0.00  0.00    -0.001 C 
BRANCH   2  18
ATOM      3  C   UNL     1      46.538 -17.553 -39.726  0.00  0.00    +0.162 A 
ATOM      4  C   UNL     1      45.716 -17.379 -38.613  0.00  0.00    -0.016 A 
ATOM      5  C   UNL     1      44.760 -18.353 -38.275  0.00  0.00    -0.053 A 
ATOM      6  C   UNL     1      44.617 -19.539 -39.019  0.00  0.00    -0.026 A 
ATOM      7  C   UNL     1      45.519 -19.746 -40.063  0.00  0.00    +0.016 A 
ATOM      8  C   UNL     1      46.403 -18.740 -40.437  0.00  0.00    +0.167 A 
ATOM      9  O   UNL     1      47.069 -18.991 -41.612  0.00  0.00    -0.484 OA
ATOM     10  C   UNL     1      46.789 -20.381 -41.923  0.00  0.00    +0.116 C 
ATOM     11  C   UNL     1      48.133 -21.108 -41.763  0.00  0.00    +0.015 C 
ATOM     12  C   UNL     1      47.979 -22.616 -41.747  0.00  0.00    +0.077 C 
ATOM     13  C   UNL     1      46.967 -23.023 -40.735  0.00  0.00    -0.059 C 
ATOM     14  C   UNL     1      45.948 -22.233 -40.365  0.00  0.00    -0.071 C 
ATOM     15  C   UNL     1      45.614 -20.896 -41.019  0.00  0.00    +0.056 C 
ATOM     16  C   UNL     1      44.297 -20.994 -41.833  0.00  0.00    -0.023 C 
ATOM     17  C   UNL     1      42.980 -20.918 -41.032  0.00  0.00    +0.000 C 
ATOM     18  N   UNL     1      43.100 -21.483 -39.684  0.00  0.00    -0.298 N 
ATOM     19  C   UNL     1      43.467 -20.469 -38.677  0.00  0.00    +0.024 C 
ATOM     20  H   UNL     1      43.867 -22.153 -39.740  0.00  0.00    +0.000 HD
BRANCH   3  22
ATOM     21  C   UNL     1      47.010 -15.336 -40.439  0.00  0.00    +0.079 C 
ATOM     22  O   UNL     1      47.461 -16.660 -40.190  0.00  0.00    -0.491 OA
ENDBRANCH   3  22
BRANCH  12  23
ATOM     23  O   UNL     1      47.543 -23.096 -43.010  0.00  0.00    -0.388 OA
ATOM     24  H   UNL     1      46.587 -22.956 -43.097  0.00  0.00    +0.000 HD
ENDBRANCH  12  23
ENDBRANCH   2  18
ENDBRANCH   1   2
BRANCH   1  25
ATOM     25  C   UNL     1      39.750 -21.006 -38.611  0.00  0.00    -0.052 C 
BRANCH  25  26
ATOM     26  C   UNL     1      39.774 -19.950 -39.720  0.00  0.00    -0.050 C 
BRANCH  26  27
ATOM     27  C   UNL     1      38.564 -19.006 -39.686  0.00  0.00    -0.019 C 
BRANCH  27  28
ATOM     28  C   UNL     1      38.476 -18.128 -38.436  0.00  0.00    +0.090 C 
BRANCH  28  29
ATOM     29  O   UNL     1      39.544 -17.175 -38.464  0.00  0.00    -0.492 OA
BRANCH  29  30
ATOM     30  C   UNL     1      40.238 -17.149 -37.285  0.00  0.00    +0.121 A 
ATOM     31  C   UNL     1      41.342 -17.969 -37.060  0.00  0.00    -0.020 A 
ATOM     32  C   UNL     1      41.988 -17.943 -35.822  0.00  0.00    -0.054 A 
ATOM     33  C   UNL     1      41.520 -17.111 -34.795  0.00  0.00    -0.030 A 
ATOM     34  C   UNL     1      40.387 -16.314 -35.029  0.00  0.00    -0.054 A 
ATOM     35  C   UNL     1      39.744 -16.339 -36.267  0.00  0.00    -0.020 A 
BRANCH  33  36
ATOM     36  C   UNL     1      42.198 -17.087 -33.444  0.00  0.00    +0.034 C 
BRANCH  36  37
ATOM     37  N   UNL     1      41.321 -17.683 -32.452  0.00  0.00    -0.343 N 
ATOM     38  H   UNL     1      41.179 -17.164 -31.627  0.00  0.00    +0.000 HD
BRANCH  37  39
ATOM     39  C   UNL     1      40.662 -18.901 -32.534  0.00  0.00    +0.009 C 
ATOM     40  C   UNL     1      39.319 -19.045 -32.546  0.00  0.00    -0.043 C 
ATOM     41  C   UNL     1      38.675 -20.342 -32.598  0.00  0.00    -0.035 C 
ATOM     42  C   UNL     1      39.404 -21.458 -32.613  0.00  0.00    +0.067 C 
ATOM     43  N   UNL     1      38.964 -22.753 -32.629  0.00  0.00    -0.255 NA
ATOM     44  C   UNL     1      40.057 -23.453 -32.610  0.00  0.00    +0.029 C 
ATOM     45  C   UNL     1      41.310 -22.694 -32.587  0.00  0.00    -0.038 C 
ATOM     46  C   UNL     1      40.843 -21.444 -32.597  0.00  0.00    -0.015 C 
ATOM     47  C   UNL     1      41.575 -20.140 -32.590  0.00  0.00    +0.012 C 
ENDBRANCH  37  39
ENDBRANCH  36  37
ENDBRANCH  33  36
ENDBRANCH  29  30
ENDBRANCH  28  29
ENDBRANCH  27  28
ENDBRANCH  26  27
ENDBRANCH  25  26
ENDBRANCH   1  25
TORSDOF 13
ENDMDL
MODEL 10
REMARK VINA RESULT:    -6.573     18.354     22.221
REMARK INTER + INTRA:         -15.171
REMARK INTER:                 -10.765
REMARK INTRA:                  -4.406
REMARK UNBOUND:                -3.796
REMARK  Name = cpd55.pdb
REMARK  14 active torsions:
REMARK  status: ('A' for Active; 'I' for Inactive)
REMARK    1  A    between atoms: C_1  and  O_2
REMARK    2  A    between atoms: O_2  and  C_3
REMARK    3  A    between atoms: C_12  and  O_13
REMARK    4  A    between atoms: N_19  and  C_20
REMARK    5  A    between atoms: C_20  and  C_21
REMARK    6  A    between atoms: C_21  and  C_22
REMARK    7  A    between atoms: C_22  and  C_23
REMARK    8  A    between atoms: C_23  and  C_24
REMARK    9  A    between atoms: C_24  and  C_25
REMARK   10  A    between atoms: C_25  and  O_26
REMARK   11  A    between atoms: O_26  and  C_27
REMARK   12  A    between atoms: C_30  and  C_31
REMARK   13  A    between atoms: C_31  and  N_32
REMARK   14  A    between atoms: N_32  and  C_33
REMARK                            x       y       z     vdW  Elec       q    Type
REMARK                         _______ _______ _______ _____ _____    ______ ____
ROOT
ATOM      1  C   UNL     1      31.821 -39.696 -32.073  0.00  0.00    -0.040 C 
ENDROOT
BRANCH   1   2
ATOM      2  C   UNL     1      31.482 -38.547 -33.034  0.00  0.00    -0.001 C 
BRANCH   2  18
ATOM      3  C   UNL     1      31.363 -32.848 -29.711  0.00  0.00    +0.162 A 
ATOM      4  C   UNL     1      30.266 -33.657 -29.418  0.00  0.00    -0.016 A 
ATOM      5  C   UNL     1      30.191 -34.967 -29.925  0.00  0.00    -0.053 A 
ATOM      6  C   UNL     1      31.220 -35.514 -30.714  0.00  0.00    -0.026 A 
ATOM      7  C   UNL     1      32.356 -34.730 -30.908  0.00  0.00    +0.016 A 
ATOM      8  C   UNL     1      32.383 -33.410 -30.471  0.00  0.00    +0.167 A 
ATOM      9  O   UNL     1      33.463 -32.694 -30.924  0.00  0.00    -0.484 OA
ATOM     10  C   UNL     1      34.357 -33.676 -31.511  0.00  0.00    +0.116 C 
ATOM     11  C   UNL     1      35.585 -33.704 -30.589  0.00  0.00    +0.015 C 
ATOM     12  C   UNL     1      36.492 -34.888 -30.867  0.00  0.00    +0.077 C 
ATOM     13  C   UNL     1      35.711 -36.155 -30.845  0.00  0.00    -0.059 C 
ATOM     14  C   UNL     1      34.407 -36.212 -31.152  0.00  0.00    -0.071 C 
ATOM     15  C   UNL     1      33.597 -35.037 -31.691  0.00  0.00    +0.056 C 
ATOM     16  C   UNL     1      33.220 -35.263 -33.179  0.00  0.00    -0.023 C 
ATOM     17  C   UNL     1      32.024 -36.199 -33.456  0.00  0.00    +0.000 C 
ATOM     18  N   UNL     1      31.888 -37.260 -32.454  0.00  0.00    -0.298 N 
ATOM     19  C   UNL     1      30.996 -36.877 -31.343  0.00  0.00    +0.024 C 
ATOM     20  H   UNL     1      32.823 -37.388 -32.067  0.00  0.00    +0.000 HD
BRANCH   3  22
ATOM     21  C   UNL     1      30.549 -31.005 -28.452  0.00  0.00    +0.079 C 
ATOM     22  O   UNL     1      31.527 -31.548 -29.328  0.00  0.00    -0.491 OA
ENDBRANCH   3  22
BRANCH  12  23
ATOM     23  O   UNL     1      37.098 -34.776 -32.145  0.00  0.00    -0.388 OA
ATOM     24  H   UNL     1      38.050 -34.624 -32.039  0.00  0.00    +0.000 HD
ENDBRANCH  12  23
ENDBRANCH   2  18
ENDBRANCH   1   2
BRANCH   1  25
ATOM     25  C   UNL     1      33.057 -40.496 -32.494  0.00  0.00    -0.052 C 
BRANCH  25  26
ATOM     26  C   UNL     1      34.372 -39.760 -32.220  0.00  0.00    -0.050 C 
BRANCH  26  27
ATOM     27  C   UNL     1      35.336 -40.552 -31.327  0.00  0.00    -0.019 C 
BRANCH  27  28
ATOM     28  C   UNL     1      35.982 -39.737 -30.206  0.00  0.00    +0.090 C 
BRANCH  28  29
ATOM     29  O   UNL     1      35.304 -40.020 -28.977  0.00  0.00    -0.492 OA
BRANCH  29  30
ATOM     30  C   UNL     1      34.628 -38.930 -28.502  0.00  0.00    +0.121 A 
ATOM     31  C   UNL     1      35.268 -37.919 -27.787  0.00  0.00    -0.020 A 
ATOM     32  C   UNL     1      34.527 -36.850 -27.279  0.00  0.00    -0.054 A 
ATOM     33  C   UNL     1      33.138 -36.795 -27.467  0.00  0.00    -0.030 A 
ATOM     34  C   UNL     1      32.506 -37.839 -28.164  0.00  0.00    -0.054 A 
ATOM     35  C   UNL     1      33.248 -38.905 -28.673  0.00  0.00    -0.020 A 
BRANCH  33  36
ATOM     36  C   UNL     1      32.321 -35.654 -26.907  0.00  0.00    +0.034 C 
BRANCH  36  37
ATOM     37  N   UNL     1      31.695 -36.070 -25.665  0.00  0.00    -0.343 N 
ATOM     38  H   UNL     1      30.723 -35.935 -25.600  0.00  0.00    +0.000 HD
BRANCH  37  39
ATOM     39  C   UNL     1      32.314 -36.638 -24.559  0.00  0.00    +0.009 C 
ATOM     40  C   UNL     1      33.213 -36.004 -23.776  0.00  0.00    -0.043 C 
ATOM     41  C   UNL     1      33.859 -36.650 -22.652  0.00  0.00    -0.035 C 
ATOM     42  C   UNL     1      33.597 -37.925 -22.364  0.00  0.00    +0.067 C 
ATOM     43  N   UNL     1      34.137 -38.693 -21.368  0.00  0.00    -0.255 NA
ATOM     44  C   UNL     1      33.577 -39.853 -21.533  0.00  0.00    +0.029 C 
ATOM     45  C   UNL     1      32.620 -39.957 -22.638  0.00  0.00    -0.038 C 
ATOM     46  C   UNL     1      32.665 -38.715 -23.123  0.00  0.00    -0.015 C 
ATOM     47  C   UNL     1      31.927 -38.100 -24.269  0.00  0.00    +0.012 C 
ENDBRANCH  37  39
ENDBRANCH  36  37
ENDBRANCH  33  36
ENDBRANCH  29  30
ENDBRANCH  28  29
ENDBRANCH  27  28
ENDBRANCH  26  27
ENDBRANCH  25  26
ENDBRANCH   1  25
TORSDOF 13
ENDMDL
MODEL 11
REMARK VINA RESULT:    -6.569      2.323      7.636
REMARK INTER + INTRA:         -15.166
REMARK INTER:                 -12.083
REMARK INTRA:                  -3.083
REMARK UNBOUND:                -3.796
REMARK  Name = cpd55.pdb
REMARK  14 active torsions:
REMARK  status: ('A' for Active; 'I' for Inactive)
REMARK    1  A    between atoms: C_1  and  O_2
REMARK    2  A    between atoms: O_2  and  C_3
REMARK    3  A    between atoms: C_12  and  O_13
REMARK    4  A    between atoms: N_19  and  C_20
REMARK    5  A    between atoms: C_20  and  C_21
REMARK    6  A    between atoms: C_21  and  C_22
REMARK    7  A    between atoms: C_22  and  C_23
REMARK    8  A    between atoms: C_23  and  C_24
REMARK    9  A    between atoms: C_24  and  C_25
REMARK   10  A    between atoms: C_25  and  O_26
REMARK   11  A    between atoms: O_26  and  C_27
REMARK   12  A    between atoms: C_30  and  C_31
REMARK   13  A    between atoms: C_31  and  N_32
REMARK   14  A    between atoms: N_32  and  C_33
REMARK                            x       y       z     vdW  Elec       q    Type
REMARK                         _______ _______ _______ _____ _____    ______ ____
ROOT
ATOM      1  C   UNL     1      42.935 -16.308 -34.780  0.00  0.00    -0.040 C 
ENDROOT
BRANCH   1   2
ATOM      2  C   UNL     1      43.850 -17.538 -34.855  0.00  0.00    -0.001 C 
BRANCH   2  18
ATOM      3  C   UNL     1      39.856 -22.746 -34.182  0.00  0.00    +0.162 A 
ATOM      4  C   UNL     1      39.804 -21.891 -33.081  0.00  0.00    -0.016 A 
ATOM      5  C   UNL     1      40.482 -20.659 -33.104  0.00  0.00    -0.053 A 
ATOM      6  C   UNL     1      41.206 -20.235 -34.234  0.00  0.00    -0.026 A 
ATOM      7  C   UNL     1      41.158 -21.052 -35.363  0.00  0.00    +0.016 A 
ATOM      8  C   UNL     1      40.554 -22.303 -35.300  0.00  0.00    +0.167 A 
ATOM      9  O   UNL     1      40.776 -23.086 -36.405  0.00  0.00    -0.484 OA
ATOM     10  C   UNL     1      41.373 -22.202 -37.390  0.00  0.00    +0.116 C 
ATOM     11  C   UNL     1      40.321 -22.068 -38.501  0.00  0.00    +0.015 C 
ATOM     12  C   UNL     1      40.638 -20.943 -39.467  0.00  0.00    +0.077 C 
ATOM     13  C   UNL     1      40.875 -19.674 -38.726  0.00  0.00    -0.059 C 
ATOM     14  C   UNL     1      41.343 -19.641 -37.469  0.00  0.00    -0.071 C 
ATOM     15  C   UNL     1      41.818 -20.867 -36.696  0.00  0.00    +0.056 C 
ATOM     16  C   UNL     1      43.357 -20.835 -36.503  0.00  0.00    -0.023 C 
ATOM     17  C   UNL     1      43.896 -19.928 -35.376  0.00  0.00    +0.000 C 
ATOM     18  N   UNL     1      43.063 -18.742 -35.153  0.00  0.00    -0.298 N 
ATOM     19  C   UNL     1      42.028 -18.964 -34.125  0.00  0.00    +0.024 C 
ATOM     20  H   UNL     1      42.587 -18.577 -36.039  0.00  0.00    +0.000 HD
BRANCH   3  22
ATOM     21  C   UNL     1      38.280 -24.298 -33.313  0.00  0.00    +0.079 C 
ATOM     22  O   UNL     1      39.290 -23.986 -34.262  0.00  0.00    -0.491 OA
ENDBRANCH   3  22
BRANCH  12  23
ATOM     23  O   UNL     1      41.809 -21.231 -40.216  0.00  0.00    -0.388 OA
ATOM     24  H   UNL     1      41.729 -20.841 -41.102  0.00  0.00    +0.000 HD
ENDBRANCH  12  23
ENDBRANCH   2  18
ENDBRANCH   1   2
BRANCH   1  25
ATOM     25  C   UNL     1      42.256 -15.972 -36.111  0.00  0.00    -0.052 C 
BRANCH  25  26
ATOM     26  C   UNL     1      41.863 -14.498 -36.231  0.00  0.00    -0.050 C 
BRANCH  26  27
ATOM     27  C   UNL     1      40.526 -14.283 -36.954  0.00  0.00    -0.019 C 
BRANCH  27  28
ATOM     28  C   UNL     1      40.210 -15.322 -38.032  0.00  0.00    +0.090 C 
BRANCH  28  29
ATOM     29  O   UNL     1      40.568 -14.787 -39.310  0.00  0.00    -0.492 OA
BRANCH  29  30
ATOM     30  C   UNL     1      41.753 -15.298 -39.766  0.00  0.00    +0.121 A 
ATOM     31  C   UNL     1      41.955 -16.669 -39.918  0.00  0.00    -0.020 A 
ATOM     32  C   UNL     1      43.198 -17.146 -40.339  0.00  0.00    -0.054 A 
ATOM     33  C   UNL     1      44.252 -16.256 -40.592  0.00  0.00    -0.030 A 
ATOM     34  C   UNL     1      44.039 -14.880 -40.403  0.00  0.00    -0.054 A 
ATOM     35  C   UNL     1      42.796 -14.405 -39.985  0.00  0.00    -0.020 A 
BRANCH  33  36
ATOM     36  C   UNL     1      45.608 -16.761 -41.029  0.00  0.00    +0.034 C 
BRANCH  36  37
ATOM     37  N   UNL     1      46.076 -17.767 -40.093  0.00  0.00    -0.343 N 
ATOM     38  H   UNL     1      46.420 -17.435 -39.232  0.00  0.00    +0.000 HD
BRANCH  37  39
ATOM     39  C   UNL     1      46.093 -19.143 -40.275  0.00  0.00    +0.009 C 
ATOM     40  C   UNL     1      45.206 -19.999 -39.724  0.00  0.00    -0.043 C 
ATOM     41  C   UNL     1      45.286 -21.433 -39.915  0.00  0.00    -0.035 C 
ATOM     42  C   UNL     1      46.273 -21.964 -40.636  0.00  0.00    +0.067 C 
ATOM     43  N   UNL     1      46.515 -23.287 -40.888  0.00  0.00    -0.255 NA
ATOM     44  C   UNL     1      47.597 -23.273 -41.605  0.00  0.00    +0.029 C 
ATOM     45  C   UNL     1      48.162 -21.953 -41.897  0.00  0.00    -0.038 C 
ATOM     46  C   UNL     1      47.287 -21.165 -41.270  0.00  0.00    -0.015 C 
ATOM     47  C   UNL     1      47.241 -19.674 -41.154  0.00  0.00    +0.012 C 
ENDBRANCH  37  39
ENDBRANCH  36  37
ENDBRANCH  33  36
ENDBRANCH  29  30
ENDBRANCH  28  29
ENDBRANCH  27  28
ENDBRANCH  26  27
ENDBRANCH  25  26
ENDBRANCH   1  25
TORSDOF 13
ENDMDL
MODEL 12
REMARK VINA RESULT:    -6.542      2.512      5.907
REMARK INTER + INTRA:         -15.117
REMARK INTER:                 -10.475
REMARK INTRA:                  -4.642
REMARK UNBOUND:                -3.796
REMARK  Name = cpd55.pdb
REMARK  14 active torsions:
REMARK  status: ('A' for Active; 'I' for Inactive)
REMARK    1  A    between atoms: C_1  and  O_2
REMARK    2  A    between atoms: O_2  and  C_3
REMARK    3  A    between atoms: C_12  and  O_13
REMARK    4  A    between atoms: N_19  and  C_20
REMARK    5  A    between atoms: C_20  and  C_21
REMARK    6  A    between atoms: C_21  and  C_22
REMARK    7  A    between atoms: C_22  and  C_23
REMARK    8  A    between atoms: C_23  and  C_24
REMARK    9  A    between atoms: C_24  and  C_25
REMARK   10  A    between atoms: C_25  and  O_26
REMARK   11  A    between atoms: O_26  and  C_27
REMARK   12  A    between atoms: C_30  and  C_31
REMARK   13  A    between atoms: C_31  and  N_32
REMARK   14  A    between atoms: N_32  and  C_33
REMARK                            x       y       z     vdW  Elec       q    Type
REMARK                         _______ _______ _______ _____ _____    ______ ____
ROOT
ATOM      1  C   UNL     1      44.521 -14.002 -41.858  0.00  0.00    -0.040 C 
ENDROOT
BRANCH   1   2
ATOM      2  C   UNL     1      45.299 -13.834 -40.545  0.00  0.00    -0.001 C 
BRANCH   2  18
ATOM      3  C   UNL     1      46.919 -18.682 -36.374  0.00  0.00    +0.162 A 
ATOM      4  C   UNL     1      46.390 -17.571 -35.717  0.00  0.00    -0.016 A 
ATOM      5  C   UNL     1      45.860 -16.495 -36.452  0.00  0.00    -0.053 A 
ATOM      6  C   UNL     1      45.819 -16.510 -37.859  0.00  0.00    -0.026 A 
ATOM      7  C   UNL     1      46.254 -17.672 -38.494  0.00  0.00    +0.016 A 
ATOM      8  C   UNL     1      46.849 -18.693 -37.762  0.00  0.00    +0.167 A 
ATOM      9  O   UNL     1      47.429 -19.669 -38.534  0.00  0.00    -0.484 OA
ATOM     10  C   UNL     1      46.977 -19.408 -39.889  0.00  0.00    +0.116 C 
ATOM     11  C   UNL     1      46.057 -20.587 -40.241  0.00  0.00    +0.015 C 
ATOM     12  C   UNL     1      45.248 -20.335 -41.499  0.00  0.00    +0.077 C 
ATOM     13  C   UNL     1      44.528 -19.037 -41.401  0.00  0.00    -0.059 C 
ATOM     14  C   UNL     1      44.977 -18.008 -40.666  0.00  0.00    -0.071 C 
ATOM     15  C   UNL     1      46.328 -17.981 -39.960  0.00  0.00    +0.056 C 
ATOM     16  C   UNL     1      47.289 -16.974 -40.645  0.00  0.00    -0.023 C 
ATOM     17  C   UNL     1      47.091 -15.482 -40.300  0.00  0.00    +0.000 C 
ATOM     18  N   UNL     1      45.693 -15.145 -40.014  0.00  0.00    -0.298 N 
ATOM     19  C   UNL     1      45.369 -15.252 -38.579  0.00  0.00    +0.024 C 
ATOM     20  H   UNL     1      45.140 -15.846 -40.507  0.00  0.00    +0.000 HD
BRANCH   3  22
ATOM     21  C   UNL     1      48.439 -19.493 -34.737  0.00  0.00    +0.079 C 
ATOM     22  O   UNL     1      47.509 -19.759 -35.778  0.00  0.00    -0.491 OA
ENDBRANCH   3  22
BRANCH  12  23
ATOM     23  O   UNL     1      46.089 -20.278 -42.641  0.00  0.00    -0.388 OA
ATOM     24  H   UNL     1      46.613 -21.092 -42.698  0.00  0.00    +0.000 HD
ENDBRANCH  12  23
ENDBRANCH   2  18
ENDBRANCH   1   2
BRANCH   1  25
ATOM     25  C   UNL     1      43.309 -14.930 -41.732  0.00  0.00    -0.052 C 
BRANCH  25  26
ATOM     26  C   UNL     1      42.353 -14.522 -40.608  0.00  0.00    -0.050 C 
BRANCH  26  27
ATOM     27  C   UNL     1      41.828 -15.713 -39.795  0.00  0.00    -0.019 C 
BRANCH  27  28
ATOM     28  C   UNL     1      40.551 -15.431 -39.002  0.00  0.00    +0.090 C 
BRANCH  28  29
ATOM     29  O   UNL     1      40.908 -14.874 -37.732  0.00  0.00    -0.492 OA
BRANCH  29  30
ATOM     30  C   UNL     1      41.055 -15.839 -36.774  0.00  0.00    +0.121 A 
ATOM     31  C   UNL     1      42.224 -15.965 -36.026  0.00  0.00    -0.020 A 
ATOM     32  C   UNL     1      42.347 -16.998 -35.093  0.00  0.00    -0.054 A 
ATOM     33  C   UNL     1      41.306 -17.922 -34.917  0.00  0.00    -0.030 A 
ATOM     34  C   UNL     1      40.148 -17.798 -35.702  0.00  0.00    -0.054 A 
ATOM     35  C   UNL     1      40.026 -16.765 -36.631  0.00  0.00    -0.020 A 
BRANCH  33  36
ATOM     36  C   UNL     1      41.433 -19.055 -33.925  0.00  0.00    +0.034 C 
BRANCH  36  37
ATOM     37  N   UNL     1      42.368 -20.042 -34.433  0.00  0.00    -0.343 N 
ATOM     38  H   UNL     1      42.970 -20.454 -33.772  0.00  0.00    +0.000 HD
BRANCH  37  39
ATOM     39  C   UNL     1      42.508 -20.471 -35.746  0.00  0.00    +0.009 C 
ATOM     40  C   UNL     1      43.563 -20.182 -36.537  0.00  0.00    -0.043 C 
ATOM     41  C   UNL     1      43.649 -20.624 -37.914  0.00  0.00    -0.035 C 
ATOM     42  C   UNL     1      42.656 -21.324 -38.462  0.00  0.00    +0.067 C 
ATOM     43  N   UNL     1      42.559 -21.788 -39.745  0.00  0.00    -0.255 NA
ATOM     44  C   UNL     1      41.402 -22.376 -39.776  0.00  0.00    +0.029 C 
ATOM     45  C   UNL     1      40.636 -22.361 -38.527  0.00  0.00    -0.038 C 
ATOM     46  C   UNL     1      41.473 -21.693 -37.731  0.00  0.00    -0.015 C 
ATOM     47  C   UNL     1      41.337 -21.311 -36.291  0.00  0.00    +0.012 C 
ENDBRANCH  37  39
ENDBRANCH  36  37
ENDBRANCH  33  36
ENDBRANCH  29  30
ENDBRANCH  28  29
ENDBRANCH  27  28
ENDBRANCH  26  27
ENDBRANCH  25  26
ENDBRANCH   1  25
TORSDOF 13
ENDMDL
MODEL 13
REMARK VINA RESULT:    -6.539      2.207      4.211
REMARK INTER + INTRA:         -15.112
REMARK INTER:                 -10.182
REMARK INTRA:                  -4.930
REMARK UNBOUND:                -3.796
REMARK  Name = cpd55.pdb
REMARK  14 active torsions:
REMARK  status: ('A' for Active; 'I' for Inactive)
REMARK    1  A    between atoms: C_1  and  O_2
REMARK    2  A    between atoms: O_2  and  C_3
REMARK    3  A    between atoms: C_12  and  O_13
REMARK    4  A    between atoms: N_19  and  C_20
REMARK    5  A    between atoms: C_20  and  C_21
REMARK    6  A    between atoms: C_21  and  C_22
REMARK    7  A    between atoms: C_22  and  C_23
REMARK    8  A    between atoms: C_23  and  C_24
REMARK    9  A    between atoms: C_24  and  C_25
REMARK   10  A    between atoms: C_25  and  O_26
REMARK   11  A    between atoms: O_26  and  C_27
REMARK   12  A    between atoms: C_30  and  C_31
REMARK   13  A    between atoms: C_31  and  N_32
REMARK   14  A    between atoms: N_32  and  C_33
REMARK                            x       y       z     vdW  Elec       q    Type
REMARK                         _______ _______ _______ _____ _____    ______ ____
ROOT
ATOM      1  C   UNL     1      39.879 -19.972 -36.482  0.00  0.00    -0.040 C 
ENDROOT
BRANCH   1   2
ATOM      2  C   UNL     1      40.071 -20.305 -37.969  0.00  0.00    -0.001 C 
BRANCH   2  18
ATOM      3  C   UNL     1      45.702 -21.595 -41.155  0.00  0.00    +0.162 A 
ATOM      4  C   UNL     1      44.590 -21.663 -41.993  0.00  0.00    -0.016 A 
ATOM      5  C   UNL     1      43.320 -21.283 -41.523  0.00  0.00    -0.053 A 
ATOM      6  C   UNL     1      43.129 -20.801 -40.215  0.00  0.00    -0.026 A 
ATOM      7  C   UNL     1      44.268 -20.639 -39.426  0.00  0.00    +0.016 A 
ATOM      8  C   UNL     1      45.503 -21.094 -39.873  0.00  0.00    +0.167 A 
ATOM      9  O   UNL     1      46.485 -21.077 -38.913  0.00  0.00    -0.484 OA
ATOM     10  C   UNL     1      45.926 -20.325 -37.804  0.00  0.00    +0.116 C 
ATOM     11  C   UNL     1      46.748 -19.029 -37.741  0.00  0.00    +0.015 C 
ATOM     12  C   UNL     1      46.115 -17.983 -36.844  0.00  0.00    +0.077 C 
ATOM     13  C   UNL     1      44.695 -17.761 -37.230  0.00  0.00    -0.059 C 
ATOM     14  C   UNL     1      43.939 -18.707 -37.807  0.00  0.00    -0.071 C 
ATOM     15  C   UNL     1      44.380 -20.153 -38.012  0.00  0.00    +0.056 C 
ATOM     16  C   UNL     1      43.591 -21.109 -37.080  0.00  0.00    -0.023 C 
ATOM     17  C   UNL     1      42.164 -21.492 -37.527  0.00  0.00    +0.000 C 
ATOM     18  N   UNL     1      41.500 -20.427 -38.284  0.00  0.00    -0.298 N 
ATOM     19  C   UNL     1      41.710 -20.553 -39.739  0.00  0.00    +0.024 C 
ATOM     20  H   UNL     1      41.948 -19.562 -37.983  0.00  0.00    +0.000 HD
BRANCH   3  22
ATOM     21  C   UNL     1      47.214 -23.382 -41.561  0.00  0.00    +0.079 C 
ATOM     22  O   UNL     1      46.971 -21.985 -41.472  0.00  0.00    -0.491 OA
ENDBRANCH   3  22
BRANCH  12  23
ATOM     23  O   UNL     1      46.133 -18.399 -35.487  0.00  0.00    -0.388 OA
ATOM     24  H   UNL     1      45.232 -18.618 -35.204  0.00  0.00    +0.000 HD
ENDBRANCH  12  23
ENDBRANCH   2  18
ENDBRANCH   1   2
BRANCH   1  25
ATOM     25  C   UNL     1      38.831 -20.850 -35.791  0.00  0.00    -0.052 C 
BRANCH  25  26
ATOM     26  C   UNL     1      39.203 -22.335 -35.780  0.00  0.00    -0.050 C 
BRANCH  26  27
ATOM     27  C   UNL     1      40.142 -22.718 -34.629  0.00  0.00    -0.019 C 
BRANCH  27  28
ATOM     28  C   UNL     1      39.830 -22.032 -33.297  0.00  0.00    +0.090 C 
BRANCH  28  29
ATOM     29  O   UNL     1      41.053 -21.553 -32.726  0.00  0.00    -0.492 OA
BRANCH  29  30
ATOM     30  C   UNL     1      41.365 -20.296 -33.165  0.00  0.00    +0.121 A 
ATOM     31  C   UNL     1      42.566 -20.019 -33.816  0.00  0.00    -0.020 A 
ATOM     32  C   UNL     1      42.863 -18.709 -34.202  0.00  0.00    -0.054 A 
ATOM     33  C   UNL     1      41.967 -17.667 -33.923  0.00  0.00    -0.030 A 
ATOM     34  C   UNL     1      40.776 -17.960 -33.238  0.00  0.00    -0.054 A 
ATOM     35  C   UNL     1      40.480 -19.268 -32.855  0.00  0.00    -0.020 A 
BRANCH  33  36
ATOM     36  C   UNL     1      42.284 -16.243 -34.318  0.00  0.00    +0.034 C 
BRANCH  36  37
ATOM     37  N   UNL     1      41.345 -15.800 -35.332  0.00  0.00    -0.343 N 
ATOM     38  H   UNL     1      40.498 -15.419 -35.005  0.00  0.00    +0.000 HD
BRANCH  37  39
ATOM     39  C   UNL     1      41.506 -15.855 -36.709  0.00  0.00    +0.009 C 
ATOM     40  C   UNL     1      40.853 -16.712 -37.523  0.00  0.00    -0.043 C 
ATOM     41  C   UNL     1      41.080 -16.754 -38.953  0.00  0.00    -0.035 C 
ATOM     42  C   UNL     1      41.978 -15.948 -39.519  0.00  0.00    +0.067 C 
ATOM     43  N   UNL     1      42.339 -15.879 -40.837  0.00  0.00    -0.255 NA
ATOM     44  C   UNL     1      43.259 -14.964 -40.860  0.00  0.00    +0.029 C 
ATOM     45  C   UNL     1      43.585 -14.343 -39.573  0.00  0.00    -0.038 C 
ATOM     46  C   UNL     1      42.746 -14.993 -38.764  0.00  0.00    -0.015 C 
ATOM     47  C   UNL     1      42.530 -14.862 -37.290  0.00  0.00    +0.012 C 
ENDBRANCH  37  39
ENDBRANCH  36  37
ENDBRANCH  33  36
ENDBRANCH  29  30
ENDBRANCH  28  29
ENDBRANCH  27  28
ENDBRANCH  26  27
ENDBRANCH  25  26
ENDBRANCH   1  25
TORSDOF 13
ENDMDL
MODEL 14
REMARK VINA RESULT:    -6.529      1.764      2.679
REMARK INTER + INTRA:         -15.096
REMARK INTER:                 -11.111
REMARK INTRA:                  -3.985
REMARK UNBOUND:                -3.796
REMARK  Name = cpd55.pdb
REMARK  14 active torsions:
REMARK  status: ('A' for Active; 'I' for Inactive)
REMARK    1  A    between atoms: C_1  and  O_2
REMARK    2  A    between atoms: O_2  and  C_3
REMARK    3  A    between atoms: C_12  and  O_13
REMARK    4  A    between atoms: N_19  and  C_20
REMARK    5  A    between atoms: C_20  and  C_21
REMARK    6  A    between atoms: C_21  and  C_22
REMARK    7  A    between atoms: C_22  and  C_23
REMARK    8  A    between atoms: C_23  and  C_24
REMARK    9  A    between atoms: C_24  and  C_25
REMARK   10  A    between atoms: C_25  and  O_26
REMARK   11  A    between atoms: O_26  and  C_27
REMARK   12  A    between atoms: C_30  and  C_31
REMARK   13  A    between atoms: C_31  and  N_32
REMARK   14  A    between atoms: N_32  and  C_33
REMARK                            x       y       z     vdW  Elec       q    Type
REMARK                         _______ _______ _______ _____ _____    ______ ____
ROOT
ATOM      1  C   UNL     1      41.270 -21.114 -36.796  0.00  0.00    -0.040 C 
ENDROOT
BRANCH   1   2
ATOM      2  C   UNL     1      42.659 -21.031 -36.148  0.00  0.00    -0.001 C 
BRANCH   2  18
ATOM      3  C   UNL     1      47.093 -16.646 -38.302  0.00  0.00    +0.162 A 
ATOM      4  C   UNL     1      46.970 -16.638 -36.913  0.00  0.00    -0.016 A 
ATOM      5  C   UNL     1      46.175 -17.600 -36.263  0.00  0.00    -0.053 A 
ATOM      6  C   UNL     1      45.504 -18.610 -36.978  0.00  0.00    -0.026 A 
ATOM      7  C   UNL     1      45.725 -18.667 -38.354  0.00  0.00    +0.016 A 
ATOM      8  C   UNL     1      46.445 -17.664 -38.993  0.00  0.00    +0.167 A 
ATOM      9  O   UNL     1      46.393 -17.726 -40.363  0.00  0.00    -0.484 OA
ATOM     10  C   UNL     1      45.790 -19.011 -40.668  0.00  0.00    +0.116 C 
ATOM     11  C   UNL     1      46.908 -19.835 -41.323  0.00  0.00    +0.015 C 
ATOM     12  C   UNL     1      46.557 -21.306 -41.431  0.00  0.00    +0.077 C 
ATOM     13  C   UNL     1      46.135 -21.837 -40.107  0.00  0.00    -0.059 C 
ATOM     14  C   UNL     1      45.567 -21.072 -39.163  0.00  0.00    -0.071 C 
ATOM     15  C   UNL     1      45.158 -19.617 -39.366  0.00  0.00    +0.056 C 
ATOM     16  C   UNL     1      43.613 -19.476 -39.388  0.00  0.00    -0.023 C 
ATOM     17  C   UNL     1      42.897 -19.475 -38.021  0.00  0.00    +0.000 C 
ATOM     18  N   UNL     1      43.585 -20.294 -37.018  0.00  0.00    -0.298 N 
ATOM     19  C   UNL     1      44.552 -19.516 -36.220  0.00  0.00    +0.024 C 
ATOM     20  H   UNL     1      44.112 -20.986 -37.550  0.00  0.00    +0.000 HD
BRANCH   3  22
ATOM     21  C   UNL     1      48.261 -14.579 -38.383  0.00  0.00    +0.079 C 
ATOM     22  O   UNL     1      47.785 -15.739 -39.051  0.00  0.00    -0.491 OA
ENDBRANCH   3  22
BRANCH  12  23
ATOM     23  O   UNL     1      45.486 -21.508 -42.339  0.00  0.00    -0.388 OA
ATOM     24  H   UNL     1      44.722 -21.869 -41.862  0.00  0.00    +0.000 HD
ENDBRANCH  12  23
ENDBRANCH   2  18
ENDBRANCH   1   2
BRANCH   1  25
ATOM     25  C   UNL     1      40.755 -22.548 -36.952  0.00  0.00    -0.052 C 
BRANCH  25  26
ATOM     26  C   UNL     1      39.537 -22.849 -36.076  0.00  0.00    -0.050 C 
BRANCH  26  27
ATOM     27  C   UNL     1      39.891 -23.076 -34.600  0.00  0.00    -0.019 C 
BRANCH  27  28
ATOM     28  C   UNL     1      38.963 -22.376 -33.606  0.00  0.00    +0.090 C 
BRANCH  28  29
ATOM     29  O   UNL     1      39.720 -22.001 -32.451  0.00  0.00    -0.492 OA
BRANCH  29  30
ATOM     30  C   UNL     1      40.078 -20.681 -32.480  0.00  0.00    +0.121 A 
ATOM     31  C   UNL     1      39.142 -19.659 -32.334  0.00  0.00    -0.020 A 
ATOM     32  C   UNL     1      39.548 -18.325 -32.421  0.00  0.00    -0.054 A 
ATOM     33  C   UNL     1      40.890 -18.007 -32.674  0.00  0.00    -0.030 A 
ATOM     34  C   UNL     1      41.814 -19.050 -32.849  0.00  0.00    -0.054 A 
ATOM     35  C   UNL     1      41.408 -20.382 -32.760  0.00  0.00    -0.020 A 
BRANCH  33  36
ATOM     36  C   UNL     1      41.339 -16.568 -32.790  0.00  0.00    +0.034 C 
BRANCH  36  37
ATOM     37  N   UNL     1      42.720 -16.526 -33.236  0.00  0.00    -0.343 N 
ATOM     38  H   UNL     1      43.374 -17.003 -32.675  0.00  0.00    +0.000 HD
BRANCH  37  39
ATOM     39  C   UNL     1      43.222 -15.891 -34.363  0.00  0.00    +0.009 C 
ATOM     40  C   UNL     1      44.096 -14.862 -34.337  0.00  0.00    -0.043 C 
ATOM     41  C   UNL     1      44.565 -14.207 -35.541  0.00  0.00    -0.035 C 
ATOM     42  C   UNL     1      44.120 -14.592 -36.736  0.00  0.00    +0.067 C 
ATOM     43  N   UNL     1      44.429 -14.067 -37.961  0.00  0.00    -0.255 NA
ATOM     44  C   UNL     1      43.719 -14.771 -38.789  0.00  0.00    +0.029 C 
ATOM     45  C   UNL     1      42.887 -15.821 -38.196  0.00  0.00    -0.038 C 
ATOM     46  C   UNL     1      43.181 -15.670 -36.903  0.00  0.00    -0.015 C 
ATOM     47  C   UNL     1      42.689 -16.422 -35.708  0.00  0.00    +0.012 C 
ENDBRANCH  37  39
ENDBRANCH  36  37
ENDBRANCH  33  36
ENDBRANCH  29  30
ENDBRANCH  28  29
ENDBRANCH  27  28
ENDBRANCH  26  27
ENDBRANCH  25  26
ENDBRANCH   1  25
TORSDOF 13
ENDMDL
MODEL 15
REMARK VINA RESULT:    -6.529      2.879      7.204
REMARK INTER + INTRA:         -15.095
REMARK INTER:                 -11.117
REMARK INTRA:                  -3.978
REMARK UNBOUND:                -3.796
REMARK  Name = cpd55.pdb
REMARK  14 active torsions:
REMARK  status: ('A' for Active; 'I' for Inactive)
REMARK    1  A    between atoms: C_1  and  O_2
REMARK    2  A    between atoms: O_2  and  C_3
REMARK    3  A    between atoms: C_12  and  O_13
REMARK    4  A    between atoms: N_19  and  C_20
REMARK    5  A    between atoms: C_20  and  C_21
REMARK    6  A    between atoms: C_21  and  C_22
REMARK    7  A    between atoms: C_22  and  C_23
REMARK    8  A    between atoms: C_23  and  C_24
REMARK    9  A    between atoms: C_24  and  C_25
REMARK   10  A    between atoms: C_25  and  O_26
REMARK   11  A    between atoms: O_26  and  C_27
REMARK   12  A    between atoms: C_30  and  C_31
REMARK   13  A    between atoms: C_31  and  N_32
REMARK   14  A    between atoms: N_32  and  C_33
REMARK                            x       y       z     vdW  Elec       q    Type
REMARK                         _______ _______ _______ _____ _____    ______ ____
ROOT
ATOM      1  C   UNL     1      40.283 -21.213 -39.015  0.00  0.00    -0.040 C 
ENDROOT
BRANCH   1   2
ATOM      2  C   UNL     1      41.741 -20.759 -38.850  0.00  0.00    -0.001 C 
BRANCH   2  18
ATOM      3  C   UNL     1      44.712 -18.390 -33.457  0.00  0.00    +0.162 A 
ATOM      4  C   UNL     1      45.458 -18.171 -34.614  0.00  0.00    -0.016 A 
ATOM      5  C   UNL     1      44.923 -18.483 -35.876  0.00  0.00    -0.053 A 
ATOM      6  C   UNL     1      43.620 -18.995 -36.021  0.00  0.00    -0.026 A 
ATOM      7  C   UNL     1      42.850 -19.108 -34.864  0.00  0.00    +0.016 A 
ATOM      8  C   UNL     1      43.418 -18.874 -33.616  0.00  0.00    +0.167 A 
ATOM      9  O   UNL     1      42.617 -19.237 -32.562  0.00  0.00    -0.484 OA
ATOM     10  C   UNL     1      41.315 -19.511 -33.143  0.00  0.00    +0.116 C 
ATOM     11  C   UNL     1      40.396 -18.399 -32.614  0.00  0.00    +0.015 C 
ATOM     12  C   UNL     1      39.074 -18.339 -33.354  0.00  0.00    +0.077 C 
ATOM     13  C   UNL     1      39.304 -18.262 -34.822  0.00  0.00    -0.059 C 
ATOM     14  C   UNL     1      40.391 -18.776 -35.417  0.00  0.00    -0.071 C 
ATOM     15  C   UNL     1      41.447 -19.613 -34.703  0.00  0.00    +0.056 C 
ATOM     16  C   UNL     1      41.383 -21.093 -35.164  0.00  0.00    -0.023 C 
ATOM     17  C   UNL     1      42.047 -21.427 -36.517  0.00  0.00    +0.000 C 
ATOM     18  N   UNL     1      41.985 -20.316 -37.471  0.00  0.00    -0.298 N 
ATOM     19  C   UNL     1      43.172 -19.443 -37.400  0.00  0.00    +0.024 C 
ATOM     20  H   UNL     1      41.177 -19.762 -37.187  0.00  0.00    +0.000 HD
BRANCH   3  22
ATOM     21  C   UNL     1      45.075 -16.851 -31.683  0.00  0.00    +0.079 C 
ATOM     22  O   UNL     1      45.137 -18.182 -32.176  0.00  0.00    -0.491 OA
ENDBRANCH   3  22
BRANCH  12  23
ATOM     23  O   UNL     1      38.295 -19.498 -33.099  0.00  0.00    -0.388 OA
ATOM     24  H   UNL     1      37.814 -19.386 -32.264  0.00  0.00    +0.000 HD
ENDBRANCH  12  23
ENDBRANCH   2  18
ENDBRANCH   1   2
BRANCH   1  25
ATOM     25  C   UNL     1      39.265 -20.166 -38.554  0.00  0.00    -0.052 C 
BRANCH  25  26
ATOM     26  C   UNL     1      39.340 -18.861 -39.352  0.00  0.00    -0.050 C 
BRANCH  26  27
ATOM     27  C   UNL     1      38.682 -17.673 -38.637  0.00  0.00    -0.019 C 
BRANCH  27  28
ATOM     28  C   UNL     1      38.726 -16.357 -39.415  0.00  0.00    +0.090 C 
BRANCH  28  29
ATOM     29  O   UNL     1      39.538 -15.422 -38.696  0.00  0.00    -0.492 OA
BRANCH  29  30
ATOM     30  C   UNL     1      40.871 -15.609 -38.939  0.00  0.00    +0.121 A 
ATOM     31  C   UNL     1      41.789 -15.800 -37.908  0.00  0.00    -0.020 A 
ATOM     32  C   UNL     1      43.148 -15.937 -38.202  0.00  0.00    -0.054 A 
ATOM     33  C   UNL     1      43.598 -15.865 -39.529  0.00  0.00    -0.030 A 
ATOM     34  C   UNL     1      42.661 -15.641 -40.552  0.00  0.00    -0.054 A 
ATOM     35  C   UNL     1      41.305 -15.507 -40.257  0.00  0.00    -0.020 A 
BRANCH  33  36
ATOM     36  C   UNL     1      45.067 -15.993 -39.860  0.00  0.00    +0.034 C 
BRANCH  36  37
ATOM     37  N   UNL     1      45.609 -17.174 -39.213  0.00  0.00    -0.343 N 
ATOM     38  H   UNL     1      45.914 -17.061 -38.283  0.00  0.00    +0.000 HD
BRANCH  37  39
ATOM     39  C   UNL     1      45.745 -18.444 -39.756  0.00  0.00    +0.009 C 
ATOM     40  C   UNL     1      46.576 -19.395 -39.279  0.00  0.00    -0.043 C 
ATOM     41  C   UNL     1      46.710 -20.696 -39.902  0.00  0.00    -0.035 C 
ATOM     42  C   UNL     1      46.019 -20.992 -41.003  0.00  0.00    +0.067 C 
ATOM     43  N   UNL     1      46.049 -22.150 -41.732  0.00  0.00    -0.255 NA
ATOM     44  C   UNL     1      45.226 -21.922 -42.710  0.00  0.00    +0.029 C 
ATOM     45  C   UNL     1      44.576 -20.609 -42.715  0.00  0.00    -0.038 C 
ATOM     46  C   UNL     1      45.105 -20.066 -41.616  0.00  0.00    -0.015 C 
ATOM     47  C   UNL     1      44.882 -18.721 -41.001  0.00  0.00    +0.012 C 
ENDBRANCH  37  39
ENDBRANCH  36  37
ENDBRANCH  33  36
ENDBRANCH  29  30
ENDBRANCH  28  29
ENDBRANCH  27  28
ENDBRANCH  26  27
ENDBRANCH  25  26
ENDBRANCH   1  25
TORSDOF 13
ENDMDL
MODEL 16
REMARK VINA RESULT:    -6.514      2.410      7.840
REMARK INTER + INTRA:         -15.070
REMARK INTER:                 -10.672
REMARK INTRA:                  -4.398
REMARK UNBOUND:                -3.796
REMARK  Name = cpd55.pdb
REMARK  14 active torsions:
REMARK  status: ('A' for Active; 'I' for Inactive)
REMARK    1  A    between atoms: C_1  and  O_2
REMARK    2  A    between atoms: O_2  and  C_3
REMARK    3  A    between atoms: C_12  and  O_13
REMARK    4  A    between atoms: N_19  and  C_20
REMARK    5  A    between atoms: C_20  and  C_21
REMARK    6  A    between atoms: C_21  and  C_22
REMARK    7  A    between atoms: C_22  and  C_23
REMARK    8  A    between atoms: C_23  and  C_24
REMARK    9  A    between atoms: C_24  and  C_25
REMARK   10  A    between atoms: C_25  and  O_26
REMARK   11  A    between atoms: O_26  and  C_27
REMARK   12  A    between atoms: C_30  and  C_31
REMARK   13  A    between atoms: C_31  and  N_32
REMARK   14  A    between atoms: N_32  and  C_33
REMARK                            x       y       z     vdW  Elec       q    Type
REMARK                         _______ _______ _______ _____ _____    ______ ____
ROOT
ATOM      1  C   UNL     1      43.019 -15.094 -36.455  0.00  0.00    -0.040 C 
ENDROOT
BRANCH   1   2
ATOM      2  C   UNL     1      41.656 -15.516 -35.887  0.00  0.00    -0.001 C 
BRANCH   2  18
ATOM      3  C   UNL     1      41.887 -21.690 -38.200  0.00  0.00    +0.162 A 
ATOM      4  C   UNL     1      42.721 -20.826 -38.909  0.00  0.00    -0.016 A 
ATOM      5  C   UNL     1      42.909 -19.502 -38.474  0.00  0.00    -0.053 A 
ATOM      6  C   UNL     1      42.292 -19.012 -37.307  0.00  0.00    -0.026 A 
ATOM      7  C   UNL     1      41.548 -19.920 -36.554  0.00  0.00    +0.016 A 
ATOM      8  C   UNL     1      41.304 -21.201 -37.037  0.00  0.00    +0.167 A 
ATOM      9  O   UNL     1      40.379 -21.905 -36.307  0.00  0.00    -0.484 OA
ATOM     10  C   UNL     1      40.165 -21.126 -35.101  0.00  0.00    +0.116 C 
ATOM     11  C   UNL     1      40.749 -21.977 -33.963  0.00  0.00    +0.015 C 
ATOM     12  C   UNL     1      40.895 -21.196 -32.671  0.00  0.00    +0.077 C 
ATOM     13  C   UNL     1      41.651 -19.936 -32.910  0.00  0.00    -0.059 C 
ATOM     14  C   UNL     1      41.652 -19.300 -34.091  0.00  0.00    -0.071 C 
ATOM     15  C   UNL     1      40.786 -19.696 -35.282  0.00  0.00    +0.056 C 
ATOM     16  C   UNL     1      39.675 -18.642 -35.532  0.00  0.00    -0.023 C 
ATOM     17  C   UNL     1      40.094 -17.357 -36.278  0.00  0.00    +0.000 C 
ATOM     18  N   UNL     1      41.481 -16.969 -36.007  0.00  0.00    -0.298 N 
ATOM     19  C   UNL     1      42.427 -17.535 -36.988  0.00  0.00    +0.024 C 
ATOM     20  H   UNL     1      41.703 -17.374 -35.098  0.00  0.00    +0.000 HD
BRANCH   3  22
ATOM     21  C   UNL     1      40.610 -23.152 -39.570  0.00  0.00    +0.079 C 
ATOM     22  O   UNL     1      41.580 -22.974 -38.548  0.00  0.00    -0.491 OA
ENDBRANCH   3  22
BRANCH  12  23
ATOM     23  O   UNL     1      39.626 -20.845 -32.142  0.00  0.00    -0.388 OA
ATOM     24  H   UNL     1      39.675 -19.963 -31.742  0.00  0.00    +0.000 HD
ENDBRANCH  12  23
ENDBRANCH   2  18
ENDBRANCH   1   2
BRANCH   1  25
ATOM     25  C   UNL     1      42.911 -14.139 -37.648  0.00  0.00    -0.052 C 
BRANCH  25  26
ATOM     26  C   UNL     1      41.629 -14.332 -38.460  0.00  0.00    -0.050 C 
BRANCH  26  27
ATOM     27  C   UNL     1      41.531 -13.396 -39.673  0.00  0.00    -0.019 C 
BRANCH  27  28
ATOM     28  C   UNL     1      42.839 -13.212 -40.443  0.00  0.00    +0.090 C 
BRANCH  28  29
ATOM     29  O   UNL     1      42.828 -14.072 -41.587  0.00  0.00    -0.492 OA
BRANCH  29  30
ATOM     30  C   UNL     1      43.664 -15.144 -41.430  0.00  0.00    +0.121 A 
ATOM     31  C   UNL     1      43.219 -16.456 -41.585  0.00  0.00    -0.020 A 
ATOM     32  C   UNL     1      44.098 -17.519 -41.365  0.00  0.00    -0.054 A 
ATOM     33  C   UNL     1      45.422 -17.276 -40.971  0.00  0.00    -0.030 A 
ATOM     34  C   UNL     1      45.844 -15.948 -40.790  0.00  0.00    -0.054 A 
ATOM     35  C   UNL     1      44.966 -14.887 -41.012  0.00  0.00    -0.020 A 
BRANCH  33  36
ATOM     36  C   UNL     1      46.378 -18.418 -40.711  0.00  0.00    +0.034 C 
BRANCH  36  37
ATOM     37  N   UNL     1      47.098 -18.175 -39.475  0.00  0.00    -0.343 N 
ATOM     38  H   UNL     1      47.933 -17.658 -39.551  0.00  0.00    +0.000 HD
BRANCH  37  39
ATOM     39  C   UNL     1      46.744 -18.589 -38.198  0.00  0.00    +0.009 C 
ATOM     40  C   UNL     1      46.711 -19.877 -37.793  0.00  0.00    -0.043 C 
ATOM     41  C   UNL     1      46.300 -20.263 -36.459  0.00  0.00    -0.035 C 
ATOM     42  C   UNL     1      45.910 -19.341 -35.579  0.00  0.00    +0.067 C 
ATOM     43  N   UNL     1      45.464 -19.532 -34.299  0.00  0.00    -0.255 NA
ATOM     44  C   UNL     1      45.190 -18.333 -33.885  0.00  0.00    +0.029 C 
ATOM     45  C   UNL     1      45.432 -17.247 -34.839  0.00  0.00    -0.038 C 
ATOM     46  C   UNL     1      45.892 -17.936 -35.886  0.00  0.00    -0.015 C 
ATOM     47  C   UNL     1      46.347 -17.460 -37.228  0.00  0.00    +0.012 C 
ENDBRANCH  37  39
ENDBRANCH  36  37
ENDBRANCH  33  36
ENDBRANCH  29  30
ENDBRANCH  28  29
ENDBRANCH  27  28
ENDBRANCH  26  27
ENDBRANCH  25  26
ENDBRANCH   1  25
TORSDOF 13
ENDMDL
MODEL 17
REMARK VINA RESULT:    -6.502      2.773      4.591
REMARK INTER + INTRA:         -15.048
REMARK INTER:                 -10.423
REMARK INTRA:                  -4.625
REMARK UNBOUND:                -3.796
REMARK  Name = cpd55.pdb
REMARK  14 active torsions:
REMARK  status: ('A' for Active; 'I' for Inactive)
REMARK    1  A    between atoms: C_1  and  O_2
REMARK    2  A    between atoms: O_2  and  C_3
REMARK    3  A    between atoms: C_12  and  O_13
REMARK    4  A    between atoms: N_19  and  C_20
REMARK    5  A    between atoms: C_20  and  C_21
REMARK    6  A    between atoms: C_21  and  C_22
REMARK    7  A    between atoms: C_22  and  C_23
REMARK    8  A    between atoms: C_23  and  C_24
REMARK    9  A    between atoms: C_24  and  C_25
REMARK   10  A    between atoms: C_25  and  O_26
REMARK   11  A    between atoms: O_26  and  C_27
REMARK   12  A    between atoms: C_30  and  C_31
REMARK   13  A    between atoms: C_31  and  N_32
REMARK   14  A    between atoms: N_32  and  C_33
REMARK                            x       y       z     vdW  Elec       q    Type
REMARK                         _______ _______ _______ _____ _____    ______ ____
ROOT
ATOM      1  C   UNL     1      36.933 -16.839 -37.182  0.00  0.00    -0.040 C 
ENDROOT
BRANCH   1   2
ATOM      2  C   UNL     1      37.713 -16.689 -38.496  0.00  0.00    -0.001 C 
BRANCH   2  18
ATOM      3  C   UNL     1      43.766 -19.240 -39.118  0.00  0.00    +0.162 A 
ATOM      4  C   UNL     1      43.781 -17.847 -39.052  0.00  0.00    -0.016 A 
ATOM      5  C   UNL     1      42.599 -17.134 -38.780  0.00  0.00    -0.053 A 
ATOM      6  C   UNL     1      41.378 -17.792 -38.540  0.00  0.00    -0.026 A 
ATOM      7  C   UNL     1      41.404 -19.186 -38.504  0.00  0.00    +0.016 A 
ATOM      8  C   UNL     1      42.559 -19.877 -38.855  0.00  0.00    +0.167 A 
ATOM      9  O   UNL     1      42.379 -21.231 -38.993  0.00  0.00    -0.484 OA
ATOM     10  C   UNL     1      41.056 -21.500 -38.459  0.00  0.00    +0.116 C 
ATOM     11  C   UNL     1      41.297 -22.320 -37.182  0.00  0.00    +0.015 C 
ATOM     12  C   UNL     1      40.054 -22.433 -36.322  0.00  0.00    +0.077 C 
ATOM     13  C   UNL     1      39.484 -21.084 -36.055  0.00  0.00    -0.059 C 
ATOM     14  C   UNL     1      39.636 -20.049 -36.895  0.00  0.00    -0.071 C 
ATOM     15  C   UNL     1      40.278 -20.149 -38.275  0.00  0.00    +0.056 C 
ATOM     16  C   UNL     1      39.217 -19.970 -39.392  0.00  0.00    -0.023 C 
ATOM     17  C   UNL     1      38.784 -18.523 -39.711  0.00  0.00    +0.000 C 
ATOM     18  N   UNL     1      38.829 -17.644 -38.538  0.00  0.00    -0.298 N 
ATOM     19  C   UNL     1      40.123 -16.950 -38.401  0.00  0.00    +0.024 C 
ATOM     20  H   UNL     1      38.725 -18.263 -37.734  0.00  0.00    +0.000 HD
BRANCH   3  22
ATOM     21  C   UNL     1      46.125 -19.479 -39.272  0.00  0.00    +0.079 C 
ATOM     22  O   UNL     1      44.829 -20.039 -39.427  0.00  0.00    -0.491 OA
ENDBRANCH   3  22
BRANCH  12  23
ATOM     23  O   UNL     1      39.054 -23.203 -36.971  0.00  0.00    -0.388 OA
ATOM     24  H   UNL     1      39.281 -23.302 -37.909  0.00  0.00    +0.000 HD
ENDBRANCH  12  23
ENDBRANCH   2  18
ENDBRANCH   1   2
BRANCH   1  25
ATOM     25  C   UNL     1      35.743 -17.798 -37.286  0.00  0.00    -0.052 C 
BRANCH  25  26
ATOM     26  C   UNL     1      35.132 -18.148 -35.927  0.00  0.00    -0.050 C 
BRANCH  26  27
ATOM     27  C   UNL     1      36.074 -18.962 -35.029  0.00  0.00    -0.019 C 
BRANCH  27  28
ATOM     28  C   UNL     1      35.939 -18.669 -33.534  0.00  0.00    +0.090 C 
BRANCH  28  29
ATOM     29  O   UNL     1      36.252 -19.857 -32.799  0.00  0.00    -0.492 OA
BRANCH  29  30
ATOM     30  C   UNL     1      37.601 -20.068 -32.718  0.00  0.00    +0.121 A 
ATOM     31  C   UNL     1      38.515 -19.016 -32.751  0.00  0.00    -0.020 A 
ATOM     32  C   UNL     1      39.886 -19.284 -32.715  0.00  0.00    -0.054 A 
ATOM     33  C   UNL     1      40.350 -20.606 -32.665  0.00  0.00    -0.030 A 
ATOM     34  C   UNL     1      39.414 -21.655 -32.664  0.00  0.00    -0.054 A 
ATOM     35  C   UNL     1      38.046 -21.386 -32.697  0.00  0.00    -0.020 A 
BRANCH  33  36
ATOM     36  C   UNL     1      41.830 -20.911 -32.645  0.00  0.00    +0.034 C 
BRANCH  36  37
ATOM     37  N   UNL     1      42.333 -20.959 -34.005  0.00  0.00    -0.343 N 
ATOM     38  H   UNL     1      41.973 -21.673 -34.579  0.00  0.00    +0.000 HD
BRANCH  37  39
ATOM     39  C   UNL     1      43.266 -20.112 -34.589  0.00  0.00    +0.009 C 
ATOM     40  C   UNL     1      44.481 -20.501 -35.032  0.00  0.00    -0.043 C 
ATOM     41  C   UNL     1      45.435 -19.572 -35.603  0.00  0.00    -0.035 C 
ATOM     42  C   UNL     1      45.146 -18.274 -35.688  0.00  0.00    +0.067 C 
ATOM     43  N   UNL     1      45.936 -17.263 -36.164  0.00  0.00    -0.255 NA
ATOM     44  C   UNL     1      45.210 -16.199 -36.003  0.00  0.00    +0.029 C 
ATOM     45  C   UNL     1      43.883 -16.406 -35.418  0.00  0.00    -0.038 C 
ATOM     46  C   UNL     1      43.891 -17.729 -35.245  0.00  0.00    -0.015 C 
ATOM     47  C   UNL     1      42.840 -18.635 -34.687  0.00  0.00    +0.012 C 
ENDBRANCH  37  39
ENDBRANCH  36  37
ENDBRANCH  33  36
ENDBRANCH  29  30
ENDBRANCH  28  29
ENDBRANCH  27  28
ENDBRANCH  26  27
ENDBRANCH  25  26
ENDBRANCH   1  25
TORSDOF 13
ENDMDL
MODEL 18
REMARK VINA RESULT:    -6.450      2.569      5.047
REMARK INTER + INTRA:         -14.959
REMARK INTER:                  -9.953
REMARK INTRA:                  -5.006
REMARK UNBOUND:                -3.796
REMARK  Name = cpd55.pdb
REMARK  14 active torsions:
REMARK  status: ('A' for Active; 'I' for Inactive)
REMARK    1  A    between atoms: C_1  and  O_2
REMARK    2  A    between atoms: O_2  and  C_3
REMARK    3  A    between atoms: C_12  and  O_13
REMARK    4  A    between atoms: N_19  and  C_20
REMARK    5  A    between atoms: C_20  and  C_21
REMARK    6  A    between atoms: C_21  and  C_22
REMARK    7  A    between atoms: C_22  and  C_23
REMARK    8  A    between atoms: C_23  and  C_24
REMARK    9  A    between atoms: C_24  and  C_25
REMARK   10  A    between atoms: C_25  and  O_26
REMARK   11  A    between atoms: O_26  and  C_27
REMARK   12  A    between atoms: C_30  and  C_31
REMARK   13  A    between atoms: C_31  and  N_32
REMARK   14  A    between atoms: N_32  and  C_33
REMARK                            x       y       z     vdW  Elec       q    Type
REMARK                         _______ _______ _______ _____ _____    ______ ____
ROOT
ATOM      1  C   UNL     1      40.633 -19.507 -32.701  0.00  0.00    -0.040 C 
ENDROOT
BRANCH   1   2
ATOM      2  C   UNL     1      42.049 -18.997 -33.003  0.00  0.00    -0.001 C 
BRANCH   2  18
ATOM      3  C   UNL     1      45.815 -20.562 -38.189  0.00  0.00    +0.162 A 
ATOM      4  C   UNL     1      46.560 -20.405 -37.021  0.00  0.00    -0.016 A 
ATOM      5  C   UNL     1      45.914 -20.207 -35.787  0.00  0.00    -0.053 A 
ATOM      6  C   UNL     1      44.511 -20.187 -35.681  0.00  0.00    -0.026 A 
ATOM      7  C   UNL     1      43.783 -20.452 -36.841  0.00  0.00    +0.016 A 
ATOM      8  C   UNL     1      44.431 -20.565 -38.067  0.00  0.00    +0.167 A 
ATOM      9  O   UNL     1      43.581 -20.600 -39.145  0.00  0.00    -0.484 OA
ATOM     10  C   UNL     1      42.253 -20.767 -38.584  0.00  0.00    +0.116 C 
ATOM     11  C   UNL     1      41.808 -22.174 -39.014  0.00  0.00    +0.015 C 
ATOM     12  C   UNL     1      40.576 -22.646 -38.267  0.00  0.00    +0.077 C 
ATOM     13  C   UNL     1      40.779 -22.517 -36.798  0.00  0.00    -0.059 C 
ATOM     14  C   UNL     1      41.593 -21.601 -36.253  0.00  0.00    -0.071 C 
ATOM     15  C   UNL     1      42.298 -20.500 -37.038  0.00  0.00    +0.056 C 
ATOM     16  C   UNL     1      41.694 -19.111 -36.703  0.00  0.00    -0.023 C 
ATOM     17  C   UNL     1      42.158 -18.452 -35.386  0.00  0.00    +0.000 C 
ATOM     18  N   UNL     1      42.473 -19.432 -34.341  0.00  0.00    -0.298 N 
ATOM     19  C   UNL     1      43.895 -19.822 -34.343  0.00  0.00    +0.024 C 
ATOM     20  H   UNL     1      41.926 -20.260 -34.574  0.00  0.00    +0.000 HD
BRANCH   3  22
ATOM     21  C   UNL     1      47.236 -21.771 -39.661  0.00  0.00    +0.079 C 
ATOM     22  O   UNL     1      46.321 -20.705 -39.449  0.00  0.00    -0.491 OA
ENDBRANCH   3  22
BRANCH  12  23
ATOM     23  O   UNL     1      39.441 -21.869 -38.616  0.00  0.00    -0.388 OA
ATOM     24  H   UNL     1      39.558 -20.962 -38.291  0.00  0.00    +0.000 HD
ENDBRANCH  12  23
ENDBRANCH   2  18
ENDBRANCH   1   2
BRANCH   1  25
ATOM     25  C   UNL     1      40.509 -21.032 -32.762  0.00  0.00    -0.052 C 
BRANCH  25  26
ATOM     26  C   UNL     1      39.086 -21.509 -33.062  0.00  0.00    -0.050 C 
BRANCH  26  27
ATOM     27  C   UNL     1      38.009 -20.487 -32.675  0.00  0.00    -0.019 C 
BRANCH  27  28
ATOM     28  C   UNL     1      37.253 -19.878 -33.857  0.00  0.00    +0.090 C 
BRANCH  28  29
ATOM     29  O   UNL     1      37.919 -20.243 -35.070  0.00  0.00    -0.492 OA
BRANCH  29  30
ATOM     30  C   UNL     1      38.128 -19.164 -35.884  0.00  0.00    +0.121 A 
ATOM     31  C   UNL     1      38.100 -19.272 -37.274  0.00  0.00    -0.020 A 
ATOM     32  C   UNL     1      38.369 -18.151 -38.064  0.00  0.00    -0.054 A 
ATOM     33  C   UNL     1      38.686 -16.922 -37.468  0.00  0.00    -0.030 A 
ATOM     34  C   UNL     1      38.740 -16.840 -36.067  0.00  0.00    -0.054 A 
ATOM     35  C   UNL     1      38.469 -17.959 -35.279  0.00  0.00    -0.020 A 
BRANCH  33  36
ATOM     36  C   UNL     1      38.997 -15.707 -38.311  0.00  0.00    +0.034 C 
BRANCH  36  37
ATOM     37  N   UNL     1      40.283 -15.160 -37.917  0.00  0.00    -0.343 N 
ATOM     38  H   UNL     1      40.260 -14.331 -37.387  0.00  0.00    +0.000 HD
BRANCH  37  39
ATOM     39  C   UNL     1      41.540 -15.674 -38.203  0.00  0.00    +0.009 C 
ATOM     40  C   UNL     1      42.615 -15.563 -37.393  0.00  0.00    -0.043 C 
ATOM     41  C   UNL     1      43.917 -16.087 -37.751  0.00  0.00    -0.035 C 
ATOM     42  C   UNL     1      44.104 -16.686 -38.926  0.00  0.00    +0.067 C 
ATOM     43  N   UNL     1      45.265 -17.204 -39.434  0.00  0.00    -0.255 NA
ATOM     44  C   UNL     1      44.922 -17.642 -40.607  0.00  0.00    +0.029 C 
ATOM     45  C   UNL     1      43.516 -17.463 -40.978  0.00  0.00    -0.038 C 
ATOM     46  C   UNL     1      43.045 -16.863 -39.883  0.00  0.00    -0.015 C 
ATOM     47  C   UNL     1      41.664 -16.388 -39.562  0.00  0.00    +0.012 C 
ENDBRANCH  37  39
ENDBRANCH  36  37
ENDBRANCH  33  36
ENDBRANCH  29  30
ENDBRANCH  28  29
ENDBRANCH  27  28
ENDBRANCH  26  27
ENDBRANCH  25  26
ENDBRANCH   1  25
TORSDOF 13
ENDMDL
MODEL 19
REMARK VINA RESULT:    -6.372      2.425      6.305
REMARK INTER + INTRA:         -14.825
REMARK INTER:                 -11.420
REMARK INTRA:                  -3.404
REMARK UNBOUND:                -3.796
REMARK  Name = cpd55.pdb
REMARK  14 active torsions:
REMARK  status: ('A' for Active; 'I' for Inactive)
REMARK    1  A    between atoms: C_1  and  O_2
REMARK    2  A    between atoms: O_2  and  C_3
REMARK    3  A    between atoms: C_12  and  O_13
REMARK    4  A    between atoms: N_19  and  C_20
REMARK    5  A    between atoms: C_20  and  C_21
REMARK    6  A    between atoms: C_21  and  C_22
REMARK    7  A    between atoms: C_22  and  C_23
REMARK    8  A    between atoms: C_23  and  C_24
REMARK    9  A    between atoms: C_24  and  C_25
REMARK   10  A    between atoms: C_25  and  O_26
REMARK   11  A    between atoms: O_26  and  C_27
REMARK   12  A    between atoms: C_30  and  C_31
REMARK   13  A    between atoms: C_31  and  N_32
REMARK   14  A    between atoms: N_32  and  C_33
REMARK                            x       y       z     vdW  Elec       q    Type
REMARK                         _______ _______ _______ _____ _____    ______ ____
ROOT
ATOM      1  C   UNL     1      46.427 -15.068 -37.517  0.00  0.00    -0.040 C 
ENDROOT
BRANCH   1   2
ATOM      2  C   UNL     1      47.271 -15.785 -38.581  0.00  0.00    -0.001 C 
BRANCH   2  18
ATOM      3  C   UNL     1      43.044 -20.804 -39.268  0.00  0.00    +0.162 A 
ATOM      4  C   UNL     1      42.394 -19.580 -39.109  0.00  0.00    -0.016 A 
ATOM      5  C   UNL     1      43.130 -18.381 -39.087  0.00  0.00    -0.053 A 
ATOM      6  C   UNL     1      44.527 -18.368 -39.250  0.00  0.00    -0.026 A 
ATOM      7  C   UNL     1      45.147 -19.589 -39.514  0.00  0.00    +0.016 A 
ATOM      8  C   UNL     1      44.422 -20.774 -39.453  0.00  0.00    +0.167 A 
ATOM      9  O   UNL     1      45.196 -21.906 -39.510  0.00  0.00    -0.484 OA
ATOM     10  C   UNL     1      46.522 -21.447 -39.883  0.00  0.00    +0.116 C 
ATOM     11  C   UNL     1      46.757 -22.000 -41.297  0.00  0.00    +0.015 C 
ATOM     12  C   UNL     1      47.959 -21.370 -41.974  0.00  0.00    +0.077 C 
ATOM     13  C   UNL     1      47.859 -19.886 -41.933  0.00  0.00    -0.059 C 
ATOM     14  C   UNL     1      47.202 -19.227 -40.967  0.00  0.00    -0.071 C 
ATOM     15  C   UNL     1      46.601 -19.887 -39.730  0.00  0.00    +0.056 C 
ATOM     16  C   UNL     1      47.396 -19.499 -38.456  0.00  0.00    -0.023 C 
ATOM     17  C   UNL     1      47.097 -18.112 -37.847  0.00  0.00    +0.000 C 
ATOM     18  N   UNL     1      46.719 -17.118 -38.856  0.00  0.00    -0.298 N 
ATOM     19  C   UNL     1      45.260 -17.052 -39.066  0.00  0.00    +0.024 C 
ATOM     20  H   UNL     1      47.141 -17.443 -39.726  0.00  0.00    +0.000 HD
BRANCH   3  22
ATOM     21  C   UNL     1      41.107 -22.110 -39.699  0.00  0.00    +0.079 C 
ATOM     22  O   UNL     1      42.453 -22.034 -39.251  0.00  0.00    -0.491 OA
ENDBRANCH   3  22
BRANCH  12  23
ATOM     23  O   UNL     1      49.163 -21.740 -41.319  0.00  0.00    -0.388 OA
ATOM     24  H   UNL     1      49.921 -21.485 -41.869  0.00  0.00    +0.000 HD
ENDBRANCH  12  23
ENDBRANCH   2  18
ENDBRANCH   1   2
BRANCH   1  25
ATOM     25  C   UNL     1      46.164 -13.594 -37.840  0.00  0.00    -0.052 C 
BRANCH  25  26
ATOM     26  C   UNL     1      45.656 -12.796 -36.637  0.00  0.00    -0.050 C 
BRANCH  26  27
ATOM     27  C   UNL     1      44.288 -13.269 -36.127  0.00  0.00    -0.019 C 
BRANCH  27  28
ATOM     28  C   UNL     1      44.307 -13.883 -34.727  0.00  0.00    +0.090 C 
BRANCH  28  29
ATOM     29  O   UNL     1      43.167 -14.737 -34.580  0.00  0.00    -0.492 OA
BRANCH  29  30
ATOM     30  C   UNL     1      43.525 -16.051 -34.453  0.00  0.00    +0.121 A 
ATOM     31  C   UNL     1      43.744 -16.638 -33.208  0.00  0.00    -0.020 A 
ATOM     32  C   UNL     1      44.157 -17.971 -33.130  0.00  0.00    -0.054 A 
ATOM     33  C   UNL     1      44.371 -18.717 -34.298  0.00  0.00    -0.030 A 
ATOM     34  C   UNL     1      44.175 -18.099 -35.544  0.00  0.00    -0.054 A 
ATOM     35  C   UNL     1      43.760 -16.769 -35.621  0.00  0.00    -0.020 A 
BRANCH  33  36
ATOM     36  C   UNL     1      44.836 -20.154 -34.229  0.00  0.00    +0.034 C 
BRANCH  36  37
ATOM     37  N   UNL     1      43.719 -21.008 -33.867  0.00  0.00    -0.343 N 
ATOM     38  H   UNL     1      43.909 -21.721 -33.216  0.00  0.00    +0.000 HD
BRANCH  37  39
ATOM     39  C   UNL     1      42.415 -20.932 -34.336  0.00  0.00    +0.009 C 
ATOM     40  C   UNL     1      42.061 -21.034 -35.635  0.00  0.00    -0.043 C 
ATOM     41  C   UNL     1      40.688 -20.914 -36.081  0.00  0.00    -0.035 C 
ATOM     42  C   UNL     1      39.713 -20.668 -35.206  0.00  0.00    +0.067 C 
ATOM     43  N   UNL     1      38.380 -20.494 -35.456  0.00  0.00    -0.255 NA
ATOM     44  C   UNL     1      37.873 -20.257 -34.284  0.00  0.00    +0.029 C 
ATOM     45  C   UNL     1      38.813 -20.259 -33.161  0.00  0.00    -0.038 C 
ATOM     46  C   UNL     1      39.956 -20.530 -33.794  0.00  0.00    -0.015 C 
ATOM     47  C   UNL     1      41.342 -20.688 -33.257  0.00  0.00    +0.012 C 
ENDBRANCH  37  39
ENDBRANCH  36  37
ENDBRANCH  33  36
ENDBRANCH  29  30
ENDBRANCH  28  29
ENDBRANCH  27  28
ENDBRANCH  26  27
ENDBRANCH  25  26
ENDBRANCH   1  25
TORSDOF 13
ENDMDL
MODEL 20
REMARK VINA RESULT:    -6.343     18.869     21.914
REMARK INTER + INTRA:         -14.774
REMARK INTER:                  -9.805
REMARK INTRA:                  -4.968
REMARK UNBOUND:                -3.796
REMARK  Name = cpd55.pdb
REMARK  14 active torsions:
REMARK  status: ('A' for Active; 'I' for Inactive)
REMARK    1  A    between atoms: C_1  and  O_2
REMARK    2  A    between atoms: O_2  and  C_3
REMARK    3  A    between atoms: C_12  and  O_13
REMARK    4  A    between atoms: N_19  and  C_20
REMARK    5  A    between atoms: C_20  and  C_21
REMARK    6  A    between atoms: C_21  and  C_22
REMARK    7  A    between atoms: C_22  and  C_23
REMARK    8  A    between atoms: C_23  and  C_24
REMARK    9  A    between atoms: C_24  and  C_25
REMARK   10  A    between atoms: C_25  and  O_26
REMARK   11  A    between atoms: O_26  and  C_27
REMARK   12  A    between atoms: C_30  and  C_31
REMARK   13  A    between atoms: C_31  and  N_32
REMARK   14  A    between atoms: N_32  and  C_33
REMARK                            x       y       z     vdW  Elec       q    Type
REMARK                         _______ _______ _______ _____ _____    ______ ____
ROOT
ATOM      1  C   UNL     1      27.372 -35.512 -30.130  0.00  0.00    -0.040 C 
ENDROOT
BRANCH   1   2
ATOM      2  C   UNL     1      28.727 -34.992 -30.633  0.00  0.00    -0.001 C 
BRANCH   2  18
ATOM      3  C   UNL     1      34.073 -38.850 -30.376  0.00  0.00    +0.162 A 
ATOM      4  C   UNL     1      33.913 -38.246 -31.623  0.00  0.00    -0.016 A 
ATOM      5  C   UNL     1      32.908 -37.282 -31.824  0.00  0.00    -0.053 A 
ATOM      6  C   UNL     1      32.056 -36.875 -30.781  0.00  0.00    -0.026 A 
ATOM      7  C   UNL     1      32.299 -37.409 -29.516  0.00  0.00    +0.016 A 
ATOM      8  C   UNL     1      33.241 -38.420 -29.349  0.00  0.00    +0.167 A 
ATOM      9  O   UNL     1      33.217 -39.004 -28.107  0.00  0.00    -0.484 OA
ATOM     10  C   UNL     1      32.358 -38.158 -27.299  0.00  0.00    +0.116 C 
ATOM     11  C   UNL     1      33.289 -37.513 -26.262  0.00  0.00    +0.015 C 
ATOM     12  C   UNL     1      32.629 -36.363 -25.525  0.00  0.00    +0.077 C 
ATOM     13  C   UNL     1      32.061 -35.385 -26.494  0.00  0.00    -0.059 C 
ATOM     14  C   UNL     1      31.646 -35.733 -27.721  0.00  0.00    -0.071 C 
ATOM     15  C   UNL     1      31.570 -37.169 -28.229  0.00  0.00    +0.056 C 
ATOM     16  C   UNL     1      30.094 -37.621 -28.387  0.00  0.00    -0.023 C 
ATOM     17  C   UNL     1      29.355 -37.145 -29.655  0.00  0.00    +0.000 C 
ATOM     18  N   UNL     1      29.817 -35.835 -30.125  0.00  0.00    -0.298 N 
ATOM     19  C   UNL     1      30.906 -35.943 -31.115  0.00  0.00    +0.024 C 
ATOM     20  H   UNL     1      30.196 -35.371 -29.300  0.00  0.00    +0.000 HD
BRANCH   3  22
ATOM     21  C   UNL     1      35.370 -40.693 -31.127  0.00  0.00    +0.079 C 
ATOM     22  O   UNL     1      34.969 -39.833 -30.070  0.00  0.00    -0.491 OA
ENDBRANCH   3  22
BRANCH  12  23
ATOM     23  O   UNL     1      31.567 -36.826 -24.706  0.00  0.00    -0.388 OA
ATOM     24  H   UNL     1      30.746 -36.371 -24.954  0.00  0.00    +0.000 HD
ENDBRANCH  12  23
ENDBRANCH   2  18
ENDBRANCH   1   2
BRANCH   1  25
ATOM     25  C   UNL     1      26.678 -34.557 -29.154  0.00  0.00    -0.052 C 
BRANCH  25  26
ATOM     26  C   UNL     1      27.650 -33.610 -28.445  0.00  0.00    -0.050 C 
BRANCH  26  27
ATOM     27  C   UNL     1      27.322 -32.127 -28.667  0.00  0.00    -0.019 C 
BRANCH  27  28
ATOM     28  C   UNL     1      28.413 -31.158 -28.207  0.00  0.00    +0.090 C 
BRANCH  28  29
ATOM     29  O   UNL     1      28.987 -30.527 -29.357  0.00  0.00    -0.492 OA
BRANCH  29  30
ATOM     30  C   UNL     1      30.082 -31.204 -29.819  0.00  0.00    +0.121 A 
ATOM     31  C   UNL     1      30.221 -31.557 -31.160  0.00  0.00    -0.020 A 
ATOM     32  C   UNL     1      31.334 -32.292 -31.576  0.00  0.00    -0.054 A 
ATOM     33  C   UNL     1      32.306 -32.694 -30.647  0.00  0.00    -0.030 A 
ATOM     34  C   UNL     1      32.134 -32.356 -29.295  0.00  0.00    -0.054 A 
ATOM     35  C   UNL     1      31.023 -31.620 -28.882  0.00  0.00    -0.020 A 
BRANCH  33  36
ATOM     36  C   UNL     1      33.505 -33.505 -31.080  0.00  0.00    +0.034 C 
BRANCH  36  37
ATOM     37  N   UNL     1      34.194 -34.014 -29.908  0.00  0.00    -0.343 N 
ATOM     38  H   UNL     1      33.861 -33.701 -29.036  0.00  0.00    +0.000 HD
BRANCH  37  39
ATOM     39  C   UNL     1      35.269 -34.892 -29.878  0.00  0.00    +0.009 C 
ATOM     40  C   UNL     1      36.201 -34.994 -30.850  0.00  0.00    -0.043 C 
ATOM     41  C   UNL     1      37.287 -35.951 -30.790  0.00  0.00    -0.035 C 
ATOM     42  C   UNL     1      37.388 -36.795 -29.764  0.00  0.00    +0.067 C 
ATOM     43  N   UNL     1      38.322 -37.775 -29.566  0.00  0.00    -0.255 NA
ATOM     44  C   UNL     1      37.964 -38.323 -28.444  0.00  0.00    +0.029 C 
ATOM     45  C   UNL     1      36.777 -37.757 -27.799  0.00  0.00    -0.038 C 
ATOM     46  C   UNL     1      36.457 -36.795 -28.666  0.00  0.00    -0.015 C 
ATOM     47  C   UNL     1      35.338 -35.804 -28.639  0.00  0.00    +0.012 C 
ENDBRANCH  37  39
ENDBRANCH  36  37
ENDBRANCH  33  36
ENDBRANCH  29  30
ENDBRANCH  28  29
ENDBRANCH  27  28
ENDBRANCH  26  27
ENDBRANCH  25  26
ENDBRANCH   1  25
TORSDOF 13
ENDMDL
