REMARK  Name = cpd98.pdb
REMARK  12 active torsions:
REMARK  status: ('A' for Active; 'I' for Inactive)
REMARK    1  A    between atoms: C_1  and  C_2
REMARK    2  A    between atoms: C_2  and  C_3
REMARK    3  A    between atoms: C_2  and  C_4
REMARK    4  A    between atoms: C_15  and  C_16
REMARK    5  A    between atoms: C_17  and  C_18
REMARK    6  A    between atoms: C_18  and  C_19
REMARK    7  A    between atoms: C_18  and  N_20
REMARK    8  A    between atoms: N_20  and  C_21
REMARK    9  A    between atoms: N_20  and  C_22
REMARK   10  A    between atoms: C_23  and  O_24
REMARK   11  A    between atoms: C_26  and  C_27
REMARK   12  A    between atoms: C_32  and  C_33
REMARK                            x       y       z     vdW  Elec       q    Type
REMARK                         _______ _______ _______ _____ _____    ______ ____
ROOT
ATOM      1  C   UNL     1       2.500   0.360  -0.333  0.00  0.00    +0.188 C 
ATOM      2  N   UNL     1       2.365  -0.814  -0.828  0.00  0.00    -0.250 NA
ATOM      3  C   UNL     1       1.383  -1.757  -0.277  0.00  0.00    +0.067 C 
ATOM      4  C   UNL     1       0.717  -2.502  -1.440  0.00  0.00    -0.011 C 
ATOM      5  C   UNL     1      -0.250  -3.510  -0.900  0.00  0.00    -0.082 C 
ATOM      6  C   UNL     1      -1.063  -3.194   0.122  0.00  0.00    -0.069 C 
ATOM      7  C   UNL     1      -2.006  -4.185   0.753  0.00  0.00    -0.022 C 
ATOM      8  C   UNL     1      -3.457  -3.995   0.289  0.00  0.00    +0.025 C 
ATOM      9  C   UNL     1      -4.346  -5.115   0.827  0.00  0.00    +0.138 C 
ATOM     10  O   UNL     1      -3.901  -6.035   1.515  0.00  0.00    -0.297 OA
ATOM     11  C   UNL     1      -5.814  -5.118   0.422  0.00  0.00    +0.012 C 
ATOM     12  C   UNL     1      -6.328  -3.742  -0.033  0.00  0.00    -0.013 C 
ATOM     13  C   UNL     1      -6.075  -3.588  -1.553  0.00  0.00    -0.058 C 
ATOM     14  C   UNL     1      -7.850  -3.455   0.285  0.00  0.00    +0.007 C 
ATOM     15  C   UNL     1      -7.894  -1.890   0.429  0.00  0.00    +0.061 C 
ATOM     16  C   UNL     1      -6.436  -1.392   0.458  0.00  0.00    -0.020 C 
ATOM     17  C   UNL     1      -5.603  -2.628   0.831  0.00  0.00    -0.020 C 
ATOM     18  C   UNL     1      -5.791  -2.821   2.384  0.00  0.00    -0.059 C 
ATOM     19  C   UNL     1      -4.036  -2.579   0.621  0.00  0.00    -0.025 C 
ATOM     20  C   UNL     1      -3.511  -1.536  -0.394  0.00  0.00    -0.048 C 
ATOM     21  C   UNL     1      -2.112  -0.941  -0.114  0.00  0.00    -0.046 C 
ATOM     22  C   UNL     1      -1.076  -1.782   0.667  0.00  0.00    -0.009 C 
ATOM     23  C   UNL     1       0.379  -1.149   0.744  0.00  0.00    +0.031 C 
ATOM     24  C   UNL     1       0.944  -1.452   2.164  0.00  0.00    -0.054 C 
ATOM     25  C   UNL     1       0.364   0.371   0.570  0.00  0.00    +0.099 C 
ATOM     26  O   UNL     1       1.683   0.912   0.590  0.00  0.00    -0.479 OA
ENDROOT
BRANCH   1  28
ATOM     27  C   UNL     1       4.951   0.613  -0.751  0.00  0.00    -0.054 C 
ATOM     28  C   UNL     1       3.595   1.309  -0.761  0.00  0.00    +0.029 C 
ATOM     29  C   UNL     1       3.268   1.876  -2.138  0.00  0.00    -0.054 C 
ENDBRANCH   1  28
BRANCH  14  30
ATOM     30  C   UNL     1      -9.082  -4.037  -0.495  0.00  0.00    +0.013 C 
ATOM     31  C   UNL     1      -9.111  -3.883  -2.024  0.00  0.00    -0.049 C 
BRANCH  30  32
ATOM     32  N   UNL     1      -9.546  -5.403  -0.155  0.00  0.00    -0.305 N 
ATOM     33  C   UNL     1      -8.678  -6.521  -0.475  0.00  0.00    -0.013 C 
ATOM     34  C   UNL     1     -10.086  -5.526   1.196  0.00  0.00    -0.013 C 
ATOM     35  H   UNL     1     -10.309  -5.497  -0.825  0.00  0.00    +0.000 HD
ENDBRANCH  30  32
ENDBRANCH  14  30
BRANCH  15  36
ATOM     36  O   UNL     1      -8.589  -1.235  -0.616  0.00  0.00    -0.391 OA
ATOM     37  H   UNL     1      -8.145  -1.412  -1.460  0.00  0.00    +0.000 HD
ENDBRANCH  15  36
TORSDOF 4
