@<TRIPOS>MOLECULE
*****
 35 39 0 0 0
SMALL
GASTEIGER

@<TRIPOS>ATOM
      1 C           2.5981   -0.5000    0.0000 C.3     1  UNL1        0.0097
      2 C           1.7321   -0.0000    0.0000 C.3     1  UNL1        0.0758
      3 C           1.7321    1.0000    0.0000 C.3     1  UNL1        0.0097
      4 C           0.8660   -0.5000    0.0000 C.2     1  UNL1        0.1951
      5 N           0.8660   -1.5000    0.0000 N.2     1  UNL1       -0.2432
      6 C          -0.0000   -2.0000    0.0000 C.3     1  UNL1        0.1140
      7 C          -0.0000   -3.0000    0.0000 C.3     1  UNL1        0.0499
      8 C          -0.8660   -3.5000    0.0000 C.2     1  UNL1       -0.0326
      9 C          -1.7321   -3.0000    0.0000 C.2     1  UNL1       -0.0481
     10 C          -2.5139   -3.6235    0.0000 C.3     1  UNL1        0.0290
     11 C          -3.4888   -3.4010    0.0000 C.3     1  UNL1        0.0616
     12 C          -4.0521   -4.2272    0.0000 C.2     1  UNL1        0.1506
     13 O          -3.6182   -5.1282    0.0000 O.2     1  UNL1       -0.2961
     14 C          -5.0493   -4.1525    0.0000 C.3     1  UNL1        0.0646
     15 C          -5.4832   -3.2515    0.0000 C.3     1  UNL1        0.0106
     16 C          -5.6618   -4.2354    0.0000 C.3     1  UNL1        0.0006
     17 C          -6.4431   -2.9711    0.0000 C.3     1  UNL1        0.0455
     18 C          -7.2342   -3.5828    0.0000 C.3     1  UNL1        0.0600
     19 C          -8.1595   -3.2036    0.0000 C.3     1  UNL1        0.0174
     20 N          -7.0999   -4.5738    0.0000 N.3     1  UNL1       -0.2715
     21 C          -7.8910   -5.1855    0.0000 C.3     1  UNL1        0.0896
     22 C          -6.1746   -4.9530    0.0000 C.3     1  UNL1        0.0896
     23 C          -6.4730   -1.9715    0.0000 C.3     1  UNL1        0.1532
     24 O          -7.2992   -1.4082    0.0000 O.3     1  UNL1       -0.2231
     25 C          -5.5316   -1.6342    0.0000 C.3     1  UNL1        0.0330
     26 C          -4.9199   -2.4253    0.0000 C.3     1  UNL1        0.0034
     27 C          -4.0692   -1.8996    0.0000 C.3     1  UNL1        0.0001
     28 C          -3.9227   -2.5000    0.0000 C.3     1  UNL1        0.0073
     29 C          -3.4888   -1.5990    0.0000 C.3     1  UNL1        0.0008
     30 C          -2.5139   -1.3765    0.0000 C.3     1  UNL1        0.0042
     31 C          -1.7321   -2.0000    0.0000 C.3     1  UNL1        0.0233
     32 C          -0.8660   -1.5000    0.0000 C.3     1  UNL1        0.0649
     33 C          -1.7321   -1.0000    0.0000 C.3     1  UNL1        0.0060
     34 C          -0.8660   -0.5000    0.0000 C.3     1  UNL1        0.2087
     35 O          -0.0000   -0.0000    0.0000 O.2     1  UNL1       -0.4635
@<TRIPOS>BOND
     1     1     2    1
     2     2     3    1
     3     2     4    1
     4     4     5    2
     5     5     6    1
     6     6     7    1
     7     7     8    1
     8     8     9    2
     9     9    10    1
    10    10    11    1
    11    11    12    1
    12    12    13    2
    13    12    14    1
    14    14    15    1
    15    15    16    1
    16    15    17    1
    17    17    18    1
    18    18    19    1
    19    18    20    1
    20    20    21    1
    21    20    22    1
    22    17    23    1
    23    23    24    1
    24    23    25    1
    25    25    26    1
    26    15    26    1
    27    26    27    1
    28    26    28    1
    29    11    28    1
    30    28    29    1
    31    29    30    1
    32    30    31    1
    33     9    31    1
    34    31    32    1
    35     6    32    1
    36    32    33    1
    37    32    34    1
    38    34    35    1
    39     4    35    1
