MODEL 1
REMARK VINA RESULT:    -7.527      0.000      0.000
REMARK INTER + INTRA:          -9.798
REMARK INTER:                  -9.068
REMARK INTRA:                  -0.730
REMARK UNBOUND:                -0.730
REMARK  Name = cpd98.pdb
REMARK  12 active torsions:
REMARK  status: ('A' for Active; 'I' for Inactive)
REMARK    1  A    between atoms: C_1  and  C_2
REMARK    2  A    between atoms: C_2  and  C_3
REMARK    3  A    between atoms: C_2  and  C_4
REMARK    4  A    between atoms: C_15  and  C_16
REMARK    5  A    between atoms: C_17  and  C_18
REMARK    6  A    between atoms: C_18  and  C_19
REMARK    7  A    between atoms: C_18  and  N_20
REMARK    8  A    between atoms: N_20  and  C_21
REMARK    9  A    between atoms: N_20  and  C_22
REMARK   10  A    between atoms: C_23  and  O_24
REMARK   11  A    between atoms: C_26  and  C_27
REMARK   12  A    between atoms: C_32  and  C_33
REMARK                            x       y       z     vdW  Elec       q    Type
REMARK                         _______ _______ _______ _____ _____    ______ ____
ROOT
ATOM      1  C   UNL     1      47.124 -21.585 -41.730  0.00  0.00    +0.188 C 
ATOM      2  N   UNL     1      47.260 -20.448 -41.155  0.00  0.00    -0.250 NA
ATOM      3  C   UNL     1      46.121 -19.532 -41.014  0.00  0.00    +0.067 C 
ATOM      4  C   UNL     1      46.182 -18.888 -39.624  0.00  0.00    -0.011 C 
ATOM      5  C   UNL     1      45.060 -17.907 -39.477  0.00  0.00    -0.082 C 
ATOM      6  C   UNL     1      43.827 -18.212 -39.916  0.00  0.00    -0.069 C 
ATOM      7  C   UNL     1      42.676 -17.242 -39.860  0.00  0.00    -0.022 C 
ATOM      8  C   UNL     1      41.715 -17.536 -38.700  0.00  0.00    +0.025 C 
ATOM      9  C   UNL     1      40.657 -16.439 -38.585  0.00  0.00    +0.138 C 
ATOM     10  O   UNL     1      40.640 -15.461 -39.334  0.00  0.00    -0.297 OA
ATOM     11  C   UNL     1      39.646 -16.538 -37.451  0.00  0.00    +0.012 C 
ATOM     12  C   UNL     1      39.486 -17.963 -36.894  0.00  0.00    -0.013 C 
ATOM     13  C   UNL     1      40.528 -18.183 -35.770  0.00  0.00    -0.058 C 
ATOM     14  C   UNL     1      38.041 -18.315 -36.357  0.00  0.00    +0.007 C 
ATOM     15  C   UNL     1      37.952 -19.870 -36.571  0.00  0.00    +0.061 C 
ATOM     16  C   UNL     1      39.168 -20.285 -37.422  0.00  0.00    -0.020 C 
ATOM     17  C   UNL     1      39.643 -18.987 -38.093  0.00  0.00    -0.020 C 
ATOM     18  C   UNL     1      38.637 -18.722 -39.277  0.00  0.00    -0.059 C 
ATOM     19  C   UNL     1      41.072 -18.962 -38.770  0.00  0.00    -0.025 C 
ATOM     20  C   UNL     1      42.083 -20.027 -38.282  0.00  0.00    -0.048 C 
ATOM     21  C   UNL     1      43.114 -20.529 -39.318  0.00  0.00    -0.046 C 
ATOM     22  C   UNL     1      43.544 -19.592 -40.471  0.00  0.00    -0.009 C 
ATOM     23  C   UNL     1      44.733 -20.139 -41.371  0.00  0.00    +0.031 C 
ATOM     24  C   UNL     1      44.429 -19.730 -42.843  0.00  0.00    -0.054 C 
ATOM     25  C   UNL     1      44.841 -21.665 -41.330  0.00  0.00    +0.099 C 
ATOM     26  O   UNL     1      45.946 -22.131 -42.102  0.00  0.00    -0.479 OA
ENDROOT
BRANCH   1  28
ATOM     27  C   UNL     1      49.210 -22.623 -40.826  0.00  0.00    -0.054 C 
ATOM     28  C   UNL     1      48.291 -22.494 -42.036  0.00  0.00    +0.029 C 
ATOM     29  C   UNL     1      47.773 -23.853 -42.491  0.00  0.00    -0.054 C 
ENDBRANCH   1  28
BRANCH  14  30
ATOM     30  C   UNL     1      37.422 -17.844 -34.994  0.00  0.00    +0.013 C 
ATOM     31  C   UNL     1      37.291 -16.334 -34.740  0.00  0.00    -0.049 C 
BRANCH  30  32
ATOM     32  N   UNL     1      36.183 -18.505 -34.520  0.00  0.00    -0.305 N 
ATOM     33  C   UNL     1      36.027 -18.727 -33.094  0.00  0.00    -0.013 C 
ATOM     34  C   UNL     1      34.961 -17.962 -35.105  0.00  0.00    -0.013 C 
ATOM     35  H   UNL     1      36.337 -19.443 -34.889  0.00  0.00    +0.000 HD
ENDBRANCH  30  32
ENDBRANCH  14  30
BRANCH  15  36
ATOM     36  O   UNL     1      37.949 -20.617 -35.368  0.00  0.00    -0.391 OA
ATOM     37  H   UNL     1      37.856 -20.015 -34.614  0.00  0.00    +0.000 HD
ENDBRANCH  15  36
TORSDOF 4
ENDMDL
MODEL 2
REMARK VINA RESULT:    -7.482      2.754      3.569
REMARK INTER + INTRA:          -9.743
REMARK INTER:                  -9.470
REMARK INTRA:                  -0.273
REMARK UNBOUND:                -0.730
REMARK  Name = cpd98.pdb
REMARK  12 active torsions:
REMARK  status: ('A' for Active; 'I' for Inactive)
REMARK    1  A    between atoms: C_1  and  C_2
REMARK    2  A    between atoms: C_2  and  C_3
REMARK    3  A    between atoms: C_2  and  C_4
REMARK    4  A    between atoms: C_15  and  C_16
REMARK    5  A    between atoms: C_17  and  C_18
REMARK    6  A    between atoms: C_18  and  C_19
REMARK    7  A    between atoms: C_18  and  N_20
REMARK    8  A    between atoms: N_20  and  C_21
REMARK    9  A    between atoms: N_20  and  C_22
REMARK   10  A    between atoms: C_23  and  O_24
REMARK   11  A    between atoms: C_26  and  C_27
REMARK   12  A    between atoms: C_32  and  C_33
REMARK                            x       y       z     vdW  Elec       q    Type
REMARK                         _______ _______ _______ _____ _____    ______ ____
ROOT
ATOM      1  C   UNL     1      46.864 -21.668 -41.065  0.00  0.00    +0.188 C 
ATOM      2  N   UNL     1      47.279 -20.460 -41.162  0.00  0.00    -0.250 NA
ATOM      3  C   UNL     1      46.359 -19.373 -41.519  0.00  0.00    +0.067 C 
ATOM      4  C   UNL     1      46.699 -18.146 -40.664  0.00  0.00    -0.011 C 
ATOM      5  C   UNL     1      45.808 -17.005 -41.049  0.00  0.00    -0.082 C 
ATOM      6  C   UNL     1      44.499 -17.208 -41.269  0.00  0.00    -0.069 C 
ATOM      7  C   UNL     1      43.568 -16.115 -41.727  0.00  0.00    -0.022 C 
ATOM      8  C   UNL     1      42.705 -15.560 -40.585  0.00  0.00    +0.025 C 
ATOM      9  C   UNL     1      41.897 -14.353 -41.058  0.00  0.00    +0.138 C 
ATOM     10  O   UNL     1      41.983 -13.912 -42.205  0.00  0.00    -0.297 OA
ATOM     11  C   UNL     1      41.020 -13.637 -40.039  0.00  0.00    +0.012 C 
ATOM     12  C   UNL     1      40.655 -14.508 -38.824  0.00  0.00    -0.013 C 
ATOM     13  C   UNL     1      41.756 -14.354 -37.746  0.00  0.00    -0.058 C 
ATOM     14  C   UNL     1      39.239 -14.209 -38.186  0.00  0.00    +0.007 C 
ATOM     15  C   UNL     1      38.832 -15.594 -37.563  0.00  0.00    +0.061 C 
ATOM     16  C   UNL     1      39.842 -16.640 -38.073  0.00  0.00    -0.020 C 
ATOM     17  C   UNL     1      40.477 -16.003 -39.318  0.00  0.00    -0.020 C 
ATOM     18  C   UNL     1      39.412 -16.158 -40.471  0.00  0.00    -0.059 C 
ATOM     19  C   UNL     1      41.799 -16.641 -39.907  0.00  0.00    -0.025 C 
ATOM     20  C   UNL     1      42.636 -17.507 -38.935  0.00  0.00    -0.048 C 
ATOM     21  C   UNL     1      43.428 -18.678 -39.559  0.00  0.00    -0.046 C 
ATOM     22  C   UNL     1      43.896 -18.575 -41.029  0.00  0.00    -0.009 C 
ATOM     23  C   UNL     1      44.850 -19.751 -41.512  0.00  0.00    +0.031 C 
ATOM     24  C   UNL     1      44.465 -20.087 -42.984  0.00  0.00    -0.054 C 
ATOM     25  C   UNL     1      44.668 -21.026 -40.687  0.00  0.00    +0.099 C 
ATOM     26  O   UNL     1      45.569 -22.050 -41.102  0.00  0.00    -0.479 OA
ENDROOT
BRANCH   1  28
ATOM     27  C   UNL     1      47.790 -23.764 -42.064  0.00  0.00    -0.054 C 
ATOM     28  C   UNL     1      47.794 -22.840 -40.852  0.00  0.00    +0.029 C 
ATOM     29  C   UNL     1      49.197 -22.327 -40.546  0.00  0.00    -0.054 C 
ENDBRANCH   1  28
BRANCH  14  30
ATOM     30  C   UNL     1      38.880 -12.989 -37.266  0.00  0.00    +0.013 C 
ATOM     31  C   UNL     1      39.816 -11.770 -37.279  0.00  0.00    -0.049 C 
BRANCH  30  32
ATOM     32  N   UNL     1      37.480 -12.503 -37.261  0.00  0.00    -0.305 N 
ATOM     33  C   UNL     1      36.663 -12.755 -38.433  0.00  0.00    -0.013 C 
ATOM     34  C   UNL     1      36.750 -12.811 -36.034  0.00  0.00    -0.013 C 
ATOM     35  H   UNL     1      37.648 -11.498 -37.301  0.00  0.00    +0.000 HD
ENDBRANCH  30  32
ENDBRANCH  14  30
BRANCH  15  36
ATOM     36  O   UNL     1      38.822 -15.608 -36.147  0.00  0.00    -0.391 OA
ATOM     37  H   UNL     1      38.016 -15.173 -35.826  0.00  0.00    +0.000 HD
ENDBRANCH  15  36
TORSDOF 4
ENDMDL
MODEL 3
REMARK VINA RESULT:    -7.366     20.954     24.070
REMARK INTER + INTRA:          -9.604
REMARK INTER:                  -8.881
REMARK INTRA:                  -0.724
REMARK UNBOUND:                -0.730
REMARK  Name = cpd98.pdb
REMARK  12 active torsions:
REMARK  status: ('A' for Active; 'I' for Inactive)
REMARK    1  A    between atoms: C_1  and  C_2
REMARK    2  A    between atoms: C_2  and  C_3
REMARK    3  A    between atoms: C_2  and  C_4
REMARK    4  A    between atoms: C_15  and  C_16
REMARK    5  A    between atoms: C_17  and  C_18
REMARK    6  A    between atoms: C_18  and  C_19
REMARK    7  A    between atoms: C_18  and  N_20
REMARK    8  A    between atoms: N_20  and  C_21
REMARK    9  A    between atoms: N_20  and  C_22
REMARK   10  A    between atoms: C_23  and  O_24
REMARK   11  A    between atoms: C_26  and  C_27
REMARK   12  A    between atoms: C_32  and  C_33
REMARK                            x       y       z     vdW  Elec       q    Type
REMARK                         _______ _______ _______ _____ _____    ______ ____
ROOT
ATOM      1  C   UNL     1      38.514 -36.802 -30.420  0.00  0.00    +0.188 C 
ATOM      2  N   UNL     1      37.368 -36.291 -30.678  0.00  0.00    -0.250 NA
ATOM      3  C   UNL     1      36.133 -36.922 -30.193  0.00  0.00    +0.067 C 
ATOM      4  C   UNL     1      35.175 -35.821 -29.724  0.00  0.00    -0.011 C 
ATOM      5  C   UNL     1      33.886 -36.437 -29.276  0.00  0.00    -0.082 C 
ATOM      6  C   UNL     1      33.888 -37.554 -28.529  0.00  0.00    -0.069 C 
ATOM      7  C   UNL     1      32.625 -38.259 -28.107  0.00  0.00    -0.022 C 
ATOM      8  C   UNL     1      32.249 -37.969 -26.647  0.00  0.00    +0.025 C 
ATOM      9  C   UNL     1      30.885 -38.571 -26.313  0.00  0.00    +0.138 C 
ATOM     10  O   UNL     1      30.211 -39.176 -27.147  0.00  0.00    -0.297 OA
ATOM     11  C   UNL     1      30.325 -38.337 -24.916  0.00  0.00    +0.012 C 
ATOM     12  C   UNL     1      31.399 -37.985 -23.875  0.00  0.00    -0.013 C 
ATOM     13  C   UNL     1      31.614 -36.451 -23.872  0.00  0.00    -0.058 C 
ATOM     14  C   UNL     1      31.098 -38.483 -22.404  0.00  0.00    +0.007 C 
ATOM     15  C   UNL     1      32.534 -38.678 -21.794  0.00  0.00    +0.061 C 
ATOM     16  C   UNL     1      33.544 -38.555 -22.951  0.00  0.00    -0.020 C 
ATOM     17  C   UNL     1      32.717 -38.793 -24.225  0.00  0.00    -0.020 C 
ATOM     18  C   UNL     1      32.491 -40.351 -24.306  0.00  0.00    -0.059 C 
ATOM     19  C   UNL     1      33.348 -38.407 -25.623  0.00  0.00    -0.025 C 
ATOM     20  C   UNL     1      34.497 -37.371 -25.596  0.00  0.00    -0.048 C 
ATOM     21  C   UNL     1      35.578 -37.507 -26.692  0.00  0.00    -0.046 C 
ATOM     22  C   UNL     1      35.200 -38.139 -28.051  0.00  0.00    -0.009 C 
ATOM     23  C   UNL     1      36.335 -38.069 -29.161  0.00  0.00    +0.031 C 
ATOM     24  C   UNL     1      36.288 -39.405 -29.960  0.00  0.00    -0.054 C 
ATOM     25  C   UNL     1      37.735 -37.943 -28.557  0.00  0.00    +0.099 C 
ATOM     26  O   UNL     1      38.732 -37.829 -29.569  0.00  0.00    -0.479 OA
ENDROOT
BRANCH   1  28
ATOM     27  C   UNL     1      40.897 -37.335 -30.951  0.00  0.00    -0.054 C 
ATOM     28  C   UNL     1      39.798 -36.281 -31.021  0.00  0.00    +0.029 C 
ATOM     29  C   UNL     1      39.544 -35.833 -32.456  0.00  0.00    -0.054 C 
ENDBRANCH   1  28
BRANCH  14  30
ATOM     30  C   UNL     1      30.084 -37.831 -21.398  0.00  0.00    +0.013 C 
ATOM     31  C   UNL     1      28.632 -37.631 -21.860  0.00  0.00    -0.049 C 
BRANCH  30  32
ATOM     32  N   UNL     1      30.065 -38.327 -20.002  0.00  0.00    -0.305 N 
ATOM     33  C   UNL     1      29.832 -37.368 -18.938  0.00  0.00    -0.013 C 
ATOM     34  C   UNL     1      29.261 -39.531 -19.811  0.00  0.00    -0.013 C 
ATOM     35  H   UNL     1      31.050 -38.568 -19.891  0.00  0.00    +0.000 HD
ENDBRANCH  30  32
ENDBRANCH  14  30
BRANCH  15  36
ATOM     36  O   UNL     1      32.864 -37.739 -20.787  0.00  0.00    -0.391 OA
ATOM     37  H   UNL     1      33.807 -37.520 -20.846  0.00  0.00    +0.000 HD
ENDBRANCH  15  36
TORSDOF 4
ENDMDL
MODEL 4
REMARK VINA RESULT:    -6.866     17.791     19.407
REMARK INTER + INTRA:          -9.002
REMARK INTER:                  -8.272
REMARK INTRA:                  -0.729
REMARK UNBOUND:                -0.730
REMARK  Name = cpd98.pdb
REMARK  12 active torsions:
REMARK  status: ('A' for Active; 'I' for Inactive)
REMARK    1  A    between atoms: C_1  and  C_2
REMARK    2  A    between atoms: C_2  and  C_3
REMARK    3  A    between atoms: C_2  and  C_4
REMARK    4  A    between atoms: C_15  and  C_16
REMARK    5  A    between atoms: C_17  and  C_18
REMARK    6  A    between atoms: C_18  and  C_19
REMARK    7  A    between atoms: C_18  and  N_20
REMARK    8  A    between atoms: N_20  and  C_21
REMARK    9  A    between atoms: N_20  and  C_22
REMARK   10  A    between atoms: C_23  and  O_24
REMARK   11  A    between atoms: C_26  and  C_27
REMARK   12  A    between atoms: C_32  and  C_33
REMARK                            x       y       z     vdW  Elec       q    Type
REMARK                         _______ _______ _______ _____ _____    ______ ____
ROOT
ATOM      1  C   UNL     1      35.555 -36.325 -30.299  0.00  0.00    +0.188 C 
ATOM      2  N   UNL     1      35.057 -36.039 -31.444  0.00  0.00    -0.250 NA
ATOM      3  C   UNL     1      33.649 -35.641 -31.576  0.00  0.00    +0.067 C 
ATOM      4  C   UNL     1      33.559 -34.500 -32.597  0.00  0.00    -0.011 C 
ATOM      5  C   UNL     1      32.125 -34.115 -32.791  0.00  0.00    -0.082 C 
ATOM      6  C   UNL     1      31.300 -34.010 -31.735  0.00  0.00    -0.069 C 
ATOM      7  C   UNL     1      29.833 -33.694 -31.872  0.00  0.00    -0.022 C 
ATOM      8  C   UNL     1      29.512 -32.229 -31.544  0.00  0.00    +0.025 C 
ATOM      9  C   UNL     1      28.048 -31.916 -31.849  0.00  0.00    +0.138 C 
ATOM     10  O   UNL     1      27.280 -32.757 -32.318  0.00  0.00    -0.297 OA
ATOM     11  C   UNL     1      27.563 -30.489 -31.632  0.00  0.00    +0.012 C 
ATOM     12  C   UNL     1      28.441 -29.684 -30.659  0.00  0.00    -0.013 C 
ATOM     13  C   UNL     1      29.582 -29.005 -31.456  0.00  0.00    -0.058 C 
ATOM     14  C   UNL     1      27.672 -28.600 -29.802  0.00  0.00    +0.007 C 
ATOM     15  C   UNL     1      28.537 -28.504 -28.493  0.00  0.00    +0.061 C 
ATOM     16  C   UNL     1      29.553 -29.662 -28.529  0.00  0.00    -0.020 C 
ATOM     17  C   UNL     1      28.971 -30.667 -29.535  0.00  0.00    -0.020 C 
ATOM     18  C   UNL     1      27.818 -31.422 -28.770  0.00  0.00    -0.059 C 
ATOM     19  C   UNL     1      29.906 -31.819 -30.085  0.00  0.00    -0.025 C 
ATOM     20  C   UNL     1      31.430 -31.569 -29.994  0.00  0.00    -0.048 C 
ATOM     21  C   UNL     1      32.325 -32.814 -29.799  0.00  0.00    -0.046 C 
ATOM     22  C   UNL     1      31.843 -34.182 -30.333  0.00  0.00    -0.009 C 
ATOM     23  C   UNL     1      32.912 -35.353 -30.237  0.00  0.00    +0.031 C 
ATOM     24  C   UNL     1      32.144 -36.655 -29.858  0.00  0.00    -0.054 C 
ATOM     25  C   UNL     1      33.956 -35.102 -29.148  0.00  0.00    +0.099 C 
ATOM     26  O   UNL     1      34.935 -36.138 -29.114  0.00  0.00    -0.479 OA
ENDROOT
BRANCH   1  28
ATOM     27  C   UNL     1      37.991 -35.928 -30.697  0.00  0.00    -0.054 C 
ATOM     28  C   UNL     1      36.948 -36.884 -30.128  0.00  0.00    +0.029 C 
ATOM     29  C   UNL     1      37.203 -37.175 -28.653  0.00  0.00    -0.054 C 
ENDBRANCH   1  28
BRANCH  14  30
ATOM     30  C   UNL     1      27.170 -27.203 -30.314  0.00  0.00    +0.013 C 
ATOM     31  C   UNL     1      26.279 -27.167 -31.565  0.00  0.00    -0.049 C 
BRANCH  30  32
ATOM     32  N   UNL     1      26.621 -26.249 -29.322  0.00  0.00    -0.305 N 
ATOM     33  C   UNL     1      26.932 -24.840 -29.481  0.00  0.00    -0.013 C 
ATOM     34  C   UNL     1      25.204 -26.445 -29.032  0.00  0.00    -0.013 C 
ATOM     35  H   UNL     1      27.165 -26.520 -28.503  0.00  0.00    +0.000 HD
ENDBRANCH  30  32
ENDBRANCH  14  30
BRANCH  15  36
ATOM     36  O   UNL     1      29.233 -27.279 -28.352  0.00  0.00    -0.391 OA
ATOM     37  H   UNL     1      29.328 -27.068 -27.410  0.00  0.00    +0.000 HD
ENDBRANCH  15  36
TORSDOF 4
ENDMDL
MODEL 5
REMARK VINA RESULT:    -6.793     18.087     22.357
REMARK INTER + INTRA:          -8.913
REMARK INTER:                  -8.177
REMARK INTRA:                  -0.736
REMARK UNBOUND:                -0.730
REMARK  Name = cpd98.pdb
REMARK  12 active torsions:
REMARK  status: ('A' for Active; 'I' for Inactive)
REMARK    1  A    between atoms: C_1  and  C_2
REMARK    2  A    between atoms: C_2  and  C_3
REMARK    3  A    between atoms: C_2  and  C_4
REMARK    4  A    between atoms: C_15  and  C_16
REMARK    5  A    between atoms: C_17  and  C_18
REMARK    6  A    between atoms: C_18  and  C_19
REMARK    7  A    between atoms: C_18  and  N_20
REMARK    8  A    between atoms: N_20  and  C_21
REMARK    9  A    between atoms: N_20  and  C_22
REMARK   10  A    between atoms: C_23  and  O_24
REMARK   11  A    between atoms: C_26  and  C_27
REMARK   12  A    between atoms: C_32  and  C_33
REMARK                            x       y       z     vdW  Elec       q    Type
REMARK                         _______ _______ _______ _____ _____    ______ ____
ROOT
ATOM      1  C   UNL     1      28.338 -29.731 -29.357  0.00  0.00    +0.188 C 
ATOM      2  N   UNL     1      28.220 -30.459 -30.404  0.00  0.00    -0.250 NA
ATOM      3  C   UNL     1      29.365 -31.209 -30.936  0.00  0.00    +0.067 C 
ATOM      4  C   UNL     1      28.875 -32.589 -31.392  0.00  0.00    -0.011 C 
ATOM      5  C   UNL     1      30.017 -33.352 -31.989  0.00  0.00    -0.082 C 
ATOM      6  C   UNL     1      31.227 -33.335 -31.406  0.00  0.00    -0.069 C 
ATOM      7  C   UNL     1      32.429 -34.025 -31.997  0.00  0.00    -0.022 C 
ATOM      8  C   UNL     1      32.745 -35.356 -31.300  0.00  0.00    +0.025 C 
ATOM      9  C   UNL     1      33.866 -36.094 -32.031  0.00  0.00    +0.138 C 
ATOM     10  O   UNL     1      34.393 -35.646 -33.050  0.00  0.00    -0.297 OA
ATOM     11  C   UNL     1      34.278 -37.464 -31.509  0.00  0.00    +0.012 C 
ATOM     12  C   UNL     1      33.894 -37.701 -30.039  0.00  0.00    -0.013 C 
ATOM     13  C   UNL     1      32.461 -38.288 -29.982  0.00  0.00    -0.058 C 
ATOM     14  C   UNL     1      34.882 -38.632 -29.228  0.00  0.00    +0.007 C 
ATOM     15  C   UNL     1      34.723 -38.118 -27.751  0.00  0.00    +0.061 C 
ATOM     16  C   UNL     1      33.906 -36.812 -27.806  0.00  0.00    -0.020 C 
ATOM     17  C   UNL     1      34.031 -36.328 -29.259  0.00  0.00    -0.020 C 
ATOM     18  C   UNL     1      35.466 -35.685 -29.375  0.00  0.00    -0.059 C 
ATOM     19  C   UNL     1      33.045 -35.203 -29.772  0.00  0.00    -0.025 C 
ATOM     20  C   UNL     1      31.725 -35.034 -28.983  0.00  0.00    -0.048 C 
ATOM     21  C   UNL     1      31.130 -33.608 -28.927  0.00  0.00    -0.046 C 
ATOM     22  C   UNL     1      31.417 -32.624 -30.084  0.00  0.00    -0.009 C 
ATOM     23  C   UNL     1      30.616 -31.254 -30.012  0.00  0.00    +0.031 C 
ATOM     24  C   UNL     1      31.575 -30.127 -30.500  0.00  0.00    -0.054 C 
ATOM     25  C   UNL     1      30.184 -30.905 -28.586  0.00  0.00    +0.099 C 
ATOM     26  O   UNL     1      29.422 -29.700 -28.552  0.00  0.00    -0.479 OA
ENDROOT
BRANCH   1  28
ATOM     27  C   UNL     1      26.012 -28.912 -29.763  0.00  0.00    -0.054 C 
ATOM     28  C   UNL     1      27.237 -28.824 -28.860  0.00  0.00    +0.029 C 
ATOM     29  C   UNL     1      26.895 -29.181 -27.418  0.00  0.00    -0.054 C 
ENDBRANCH   1  28
BRANCH  14  30
ATOM     30  C   UNL     1      34.971 -40.196 -29.330  0.00  0.00    +0.013 C 
ATOM     31  C   UNL     1      35.275 -40.817 -30.703  0.00  0.00    -0.049 C 
BRANCH  30  32
ATOM     32  N   UNL     1      35.757 -40.922 -28.305  0.00  0.00    -0.305 N 
ATOM     33  C   UNL     1      35.274 -42.217 -27.861  0.00  0.00    -0.013 C 
ATOM     34  C   UNL     1      37.191 -40.961 -28.576  0.00  0.00    -0.013 C 
ATOM     35  H   UNL     1      35.590 -40.319 -27.501  0.00  0.00    +0.000 HD
ENDBRANCH  30  32
ENDBRANCH  14  30
BRANCH  15  36
ATOM     36  O   UNL     1      34.076 -39.036 -26.889  0.00  0.00    -0.391 OA
ATOM     37  H   UNL     1      33.119 -39.002 -27.041  0.00  0.00    +0.000 HD
ENDBRANCH  15  36
TORSDOF 4
ENDMDL
MODEL 6
REMARK VINA RESULT:    -6.661      2.554      5.527
REMARK INTER + INTRA:          -8.754
REMARK INTER:                  -8.064
REMARK INTRA:                  -0.691
REMARK UNBOUND:                -0.730
REMARK  Name = cpd98.pdb
REMARK  12 active torsions:
REMARK  status: ('A' for Active; 'I' for Inactive)
REMARK    1  A    between atoms: C_1  and  C_2
REMARK    2  A    between atoms: C_2  and  C_3
REMARK    3  A    between atoms: C_2  and  C_4
REMARK    4  A    between atoms: C_15  and  C_16
REMARK    5  A    between atoms: C_17  and  C_18
REMARK    6  A    between atoms: C_18  and  C_19
REMARK    7  A    between atoms: C_18  and  N_20
REMARK    8  A    between atoms: N_20  and  C_21
REMARK    9  A    between atoms: N_20  and  C_22
REMARK   10  A    between atoms: C_23  and  O_24
REMARK   11  A    between atoms: C_26  and  C_27
REMARK   12  A    between atoms: C_32  and  C_33
REMARK                            x       y       z     vdW  Elec       q    Type
REMARK                         _______ _______ _______ _____ _____    ______ ____
ROOT
ATOM      1  C   UNL     1      43.241 -20.878 -40.181  0.00  0.00    +0.188 C 
ATOM      2  N   UNL     1      42.400 -21.802 -39.899  0.00  0.00    -0.250 NA
ATOM      3  C   UNL     1      41.777 -21.877 -38.571  0.00  0.00    +0.067 C 
ATOM      4  C   UNL     1      40.301 -22.252 -38.745  0.00  0.00    -0.011 C 
ATOM      5  C   UNL     1      39.658 -22.388 -37.399  0.00  0.00    -0.082 C 
ATOM      6  C   UNL     1      39.914 -21.495 -36.429  0.00  0.00    -0.069 C 
ATOM      7  C   UNL     1      39.353 -21.618 -35.036  0.00  0.00    -0.022 C 
ATOM      8  C   UNL     1      38.162 -20.679 -34.796  0.00  0.00    +0.025 C 
ATOM      9  C   UNL     1      37.528 -20.950 -33.433  0.00  0.00    +0.138 C 
ATOM     10  O   UNL     1      37.942 -21.832 -32.679  0.00  0.00    -0.297 OA
ATOM     11  C   UNL     1      36.295 -20.144 -33.046  0.00  0.00    +0.012 C 
ATOM     12  C   UNL     1      36.156 -18.825 -33.823  0.00  0.00    -0.013 C 
ATOM     13  C   UNL     1      35.372 -19.093 -35.132  0.00  0.00    -0.058 C 
ATOM     14  C   UNL     1      35.471 -17.645 -33.025  0.00  0.00    +0.007 C 
ATOM     15  C   UNL     1      36.104 -16.361 -33.675  0.00  0.00    +0.061 C 
ATOM     16  C   UNL     1      37.261 -16.829 -34.579  0.00  0.00    -0.020 C 
ATOM     17  C   UNL     1      37.607 -18.241 -34.079  0.00  0.00    -0.020 C 
ATOM     18  C   UNL     1      38.441 -18.037 -32.757  0.00  0.00    -0.059 C 
ATOM     19  C   UNL     1      38.515 -19.166 -34.986  0.00  0.00    -0.025 C 
ATOM     20  C   UNL     1      38.566 -18.814 -36.492  0.00  0.00    -0.048 C 
ATOM     21  C   UNL     1      39.886 -19.131 -37.232  0.00  0.00    -0.046 C 
ATOM     22  C   UNL     1      40.778 -20.287 -36.723  0.00  0.00    -0.009 C 
ATOM     23  C   UNL     1      42.014 -20.640 -37.657  0.00  0.00    +0.031 C 
ATOM     24  C   UNL     1      43.214 -20.991 -36.728  0.00  0.00    -0.054 C 
ATOM     25  C   UNL     1      42.440 -19.459 -38.532  0.00  0.00    +0.099 C 
ATOM     26  O   UNL     1      43.515 -19.812 -39.399  0.00  0.00    -0.479 OA
ENDROOT
BRANCH   1  28
ATOM     27  C   UNL     1      44.246 -19.413 -41.939  0.00  0.00    -0.054 C 
ATOM     28  C   UNL     1      44.021 -20.847 -41.475  0.00  0.00    +0.029 C 
ATOM     29  C   UNL     1      45.341 -21.588 -41.292  0.00  0.00    -0.054 C 
ENDBRANCH   1  28
BRANCH  14  30
ATOM     30  C   UNL     1      33.935 -17.495 -32.735  0.00  0.00    +0.013 C 
ATOM     31  C   UNL     1      33.187 -18.701 -32.145  0.00  0.00    -0.049 C 
BRANCH  30  32
ATOM     32  N   UNL     1      33.468 -16.271 -32.042  0.00  0.00    -0.305 N 
ATOM     33  C   UNL     1      32.056 -15.943 -32.107  0.00  0.00    -0.013 C 
ATOM     34  C   UNL     1      33.978 -16.130 -30.681  0.00  0.00    -0.013 C 
ATOM     35  H   UNL     1      33.902 -15.562 -32.632  0.00  0.00    +0.000 HD
ENDBRANCH  30  32
ENDBRANCH  14  30
BRANCH  15  36
ATOM     36  O   UNL     1      35.194 -15.596 -34.443  0.00  0.00    -0.391 OA
ATOM     37  H   UNL     1      35.658 -14.839 -34.835  0.00  0.00    +0.000 HD
ENDBRANCH  15  36
TORSDOF 4
ENDMDL
MODEL 7
REMARK VINA RESULT:    -6.494     21.587     24.985
REMARK INTER + INTRA:          -8.553
REMARK INTER:                  -7.977
REMARK INTRA:                  -0.576
REMARK UNBOUND:                -0.730
REMARK  Name = cpd98.pdb
REMARK  12 active torsions:
REMARK  status: ('A' for Active; 'I' for Inactive)
REMARK    1  A    between atoms: C_1  and  C_2
REMARK    2  A    between atoms: C_2  and  C_3
REMARK    3  A    between atoms: C_2  and  C_4
REMARK    4  A    between atoms: C_15  and  C_16
REMARK    5  A    between atoms: C_17  and  C_18
REMARK    6  A    between atoms: C_18  and  C_19
REMARK    7  A    between atoms: C_18  and  N_20
REMARK    8  A    between atoms: N_20  and  C_21
REMARK    9  A    between atoms: N_20  and  C_22
REMARK   10  A    between atoms: C_23  and  O_24
REMARK   11  A    between atoms: C_26  and  C_27
REMARK   12  A    between atoms: C_32  and  C_33
REMARK                            x       y       z     vdW  Elec       q    Type
REMARK                         _______ _______ _______ _____ _____    ______ ____
ROOT
ATOM      1  C   UNL     1      45.139 -35.858 -55.278  0.00  0.00    +0.188 C 
ATOM      2  N   UNL     1      45.239 -34.591 -55.439  0.00  0.00    -0.250 NA
ATOM      3  C   UNL     1      46.313 -33.830 -54.787  0.00  0.00    +0.067 C 
ATOM      4  C   UNL     1      46.837 -32.781 -55.776  0.00  0.00    -0.011 C 
ATOM      5  C   UNL     1      47.896 -31.955 -55.114  0.00  0.00    -0.082 C 
ATOM      6  C   UNL     1      48.830 -32.536 -54.342  0.00  0.00    -0.069 C 
ATOM      7  C   UNL     1      49.877 -31.752 -53.595  0.00  0.00    -0.022 C 
ATOM      8  C   UNL     1      51.246 -31.788 -54.289  0.00  0.00    +0.025 C 
ATOM      9  C   UNL     1      52.231 -30.854 -53.587  0.00  0.00    +0.138 C 
ATOM     10  O   UNL     1      51.909 -30.169 -52.615  0.00  0.00    -0.297 OA
ATOM     11  C   UNL     1      53.630 -30.722 -54.172  0.00  0.00    +0.012 C 
ATOM     12  C   UNL     1      54.039 -31.910 -55.059  0.00  0.00    -0.013 C 
ATOM     13  C   UNL     1      53.579 -31.634 -56.512  0.00  0.00    -0.058 C 
ATOM     14  C   UNL     1      55.582 -32.258 -55.046  0.00  0.00    +0.007 C 
ATOM     15  C   UNL     1      55.600 -33.800 -55.352  0.00  0.00    +0.061 C 
ATOM     16  C   UNL     1      54.146 -34.302 -55.264  0.00  0.00    -0.020 C 
ATOM     17  C   UNL     1      53.406 -33.229 -54.450  0.00  0.00    -0.020 C 
ATOM     18  C   UNL     1      53.807 -33.477 -52.946  0.00  0.00    -0.059 C 
ATOM     19  C   UNL     1      51.824 -33.234 -54.448  0.00  0.00    -0.025 C 
ATOM     20  C   UNL     1      51.138 -33.956 -55.632  0.00  0.00    -0.048 C 
ATOM     21  C   UNL     1      49.773 -34.621 -55.340  0.00  0.00    -0.046 C 
ATOM     22  C   UNL     1      48.876 -34.044 -54.220  0.00  0.00    -0.009 C 
ATOM     23  C   UNL     1      47.428 -34.689 -54.124  0.00  0.00    +0.031 C 
ATOM     24  C   UNL     1      47.068 -34.802 -52.612  0.00  0.00    -0.054 C 
ATOM     25  C   UNL     1      47.376 -36.099 -54.716  0.00  0.00    +0.099 C 
ATOM     26  O   UNL     1      46.057 -36.638 -54.667  0.00  0.00    -0.479 OA
ENDROOT
BRANCH   1  28
ATOM     27  C   UNL     1      44.451 -37.912 -56.524  0.00  0.00    -0.054 C 
ATOM     28  C   UNL     1      43.970 -36.661 -55.799  0.00  0.00    +0.029 C 
ATOM     29  C   UNL     1      43.035 -37.007 -54.646  0.00  0.00    -0.054 C 
ENDBRANCH   1  28
BRANCH  14  30
ATOM     30  C   UNL     1      56.713 -31.467 -55.794  0.00  0.00    +0.013 C 
ATOM     31  C   UNL     1      56.992 -30.019 -55.363  0.00  0.00    -0.049 C 
BRANCH  30  32
ATOM     32  N   UNL     1      58.012 -32.146 -56.019  0.00  0.00    -0.305 N 
ATOM     33  C   UNL     1      58.928 -31.568 -56.985  0.00  0.00    -0.013 C 
ATOM     34  C   UNL     1      58.707 -32.516 -54.790  0.00  0.00    -0.013 C 
ATOM     35  H   UNL     1      57.685 -32.994 -56.481  0.00  0.00    +0.000 HD
ENDBRANCH  30  32
ENDBRANCH  14  30
BRANCH  15  36
ATOM     36  O   UNL     1      56.129 -34.128 -56.624  0.00  0.00    -0.391 OA
ATOM     37  H   UNL     1      55.430 -34.059 -57.293  0.00  0.00    +0.000 HD
ENDBRANCH  15  36
TORSDOF 4
ENDMDL
MODEL 8
REMARK VINA RESULT:    -6.476      3.518      8.953
REMARK INTER + INTRA:          -8.532
REMARK INTER:                  -7.984
REMARK INTRA:                  -0.548
REMARK UNBOUND:                -0.730
REMARK  Name = cpd98.pdb
REMARK  12 active torsions:
REMARK  status: ('A' for Active; 'I' for Inactive)
REMARK    1  A    between atoms: C_1  and  C_2
REMARK    2  A    between atoms: C_2  and  C_3
REMARK    3  A    between atoms: C_2  and  C_4
REMARK    4  A    between atoms: C_15  and  C_16
REMARK    5  A    between atoms: C_17  and  C_18
REMARK    6  A    between atoms: C_18  and  C_19
REMARK    7  A    between atoms: C_18  and  N_20
REMARK    8  A    between atoms: N_20  and  C_21
REMARK    9  A    between atoms: N_20  and  C_22
REMARK   10  A    between atoms: C_23  and  O_24
REMARK   11  A    between atoms: C_26  and  C_27
REMARK   12  A    between atoms: C_32  and  C_33
REMARK                            x       y       z     vdW  Elec       q    Type
REMARK                         _______ _______ _______ _____ _____    ______ ____
ROOT
ATOM      1  C   UNL     1      39.820 -21.247 -34.241  0.00  0.00    +0.188 C 
ATOM      2  N   UNL     1      41.075 -21.236 -33.985  0.00  0.00    -0.250 NA
ATOM      3  C   UNL     1      42.064 -21.127 -35.065  0.00  0.00    +0.067 C 
ATOM      4  C   UNL     1      43.189 -20.193 -34.603  0.00  0.00    -0.011 C 
ATOM      5  C   UNL     1      44.239 -20.110 -35.668  0.00  0.00    -0.082 C 
ATOM      6  C   UNL     1      43.890 -19.995 -36.960  0.00  0.00    -0.069 C 
ATOM      7  C   UNL     1      44.898 -19.977 -38.080  0.00  0.00    -0.022 C 
ATOM      8  C   UNL     1      45.156 -18.562 -38.617  0.00  0.00    +0.025 C 
ATOM      9  C   UNL     1      46.295 -18.572 -39.636  0.00  0.00    +0.138 C 
ATOM     10  O   UNL     1      46.905 -19.601 -39.931  0.00  0.00    -0.297 OA
ATOM     11  C   UNL     1      46.726 -17.241 -40.237  0.00  0.00    +0.012 C 
ATOM     12  C   UNL     1      45.647 -16.149 -40.149  0.00  0.00    -0.013 C 
ATOM     13  C   UNL     1      45.794 -15.404 -38.799  0.00  0.00    -0.058 C 
ATOM     14  C   UNL     1      45.650 -15.105 -41.336  0.00  0.00    +0.007 C 
ATOM     15  C   UNL     1      44.147 -14.652 -41.414  0.00  0.00    +0.061 C 
ATOM     16  C   UNL     1      43.336 -15.597 -40.507  0.00  0.00    -0.020 C 
ATOM     17  C   UNL     1      44.229 -16.834 -40.326  0.00  0.00    -0.020 C 
ATOM     18  C   UNL     1      44.096 -17.660 -41.663  0.00  0.00    -0.059 C 
ATOM     19  C   UNL     1      43.873 -17.867 -39.182  0.00  0.00    -0.025 C 
ATOM     20  C   UNL     1      43.000 -17.332 -38.021  0.00  0.00    -0.048 C 
ATOM     21  C   UNL     1      42.053 -18.349 -37.343  0.00  0.00    -0.046 C 
ATOM     22  C   UNL     1      42.432 -19.848 -37.338  0.00  0.00    -0.009 C 
ATOM     23  C   UNL     1      41.483 -20.775 -36.465  0.00  0.00    +0.031 C 
ATOM     24  C   UNL     1      41.314 -22.121 -37.231  0.00  0.00    -0.054 C 
ATOM     25  C   UNL     1      40.089 -20.173 -36.279  0.00  0.00    +0.099 C 
ATOM     26  O   UNL     1      39.272 -20.996 -35.449  0.00  0.00    -0.479 OA
ENDROOT
BRANCH   1  28
ATOM     27  C   UNL     1      37.967 -20.248 -32.893  0.00  0.00    -0.054 C 
ATOM     28  C   UNL     1      38.771 -21.510 -33.186  0.00  0.00    +0.029 C 
ATOM     29  C   UNL     1      37.870 -22.654 -33.638  0.00  0.00    -0.054 C 
ENDBRANCH   1  28
BRANCH  14  30
ATOM     30  C   UNL     1      46.662 -13.918 -41.520  0.00  0.00    +0.013 C 
ATOM     31  C   UNL     1      48.101 -14.252 -41.946  0.00  0.00    -0.049 C 
BRANCH  30  32
ATOM     32  N   UNL     1      46.215 -12.726 -42.279  0.00  0.00    -0.305 N 
ATOM     33  C   UNL     1      46.564 -11.416 -41.764  0.00  0.00    -0.013 C 
ATOM     34  C   UNL     1      46.463 -12.811 -43.715  0.00  0.00    -0.013 C 
ATOM     35  H   UNL     1      45.210 -12.785 -42.114  0.00  0.00    +0.000 HD
ENDBRANCH  30  32
ENDBRANCH  14  30
BRANCH  15  36
ATOM     36  O   UNL     1      43.927 -13.314 -41.008  0.00  0.00    -0.391 OA
ATOM     37  H   UNL     1      44.337 -12.710 -41.646  0.00  0.00    +0.000 HD
ENDBRANCH  15  36
TORSDOF 4
ENDMDL
MODEL 9
REMARK VINA RESULT:    -6.455      3.988      4.931
REMARK INTER + INTRA:          -8.506
REMARK INTER:                  -7.813
REMARK INTRA:                  -0.693
REMARK UNBOUND:                -0.730
REMARK  Name = cpd98.pdb
REMARK  12 active torsions:
REMARK  status: ('A' for Active; 'I' for Inactive)
REMARK    1  A    between atoms: C_1  and  C_2
REMARK    2  A    between atoms: C_2  and  C_3
REMARK    3  A    between atoms: C_2  and  C_4
REMARK    4  A    between atoms: C_15  and  C_16
REMARK    5  A    between atoms: C_17  and  C_18
REMARK    6  A    between atoms: C_18  and  C_19
REMARK    7  A    between atoms: C_18  and  N_20
REMARK    8  A    between atoms: N_20  and  C_21
REMARK    9  A    between atoms: N_20  and  C_22
REMARK   10  A    between atoms: C_23  and  O_24
REMARK   11  A    between atoms: C_26  and  C_27
REMARK   12  A    between atoms: C_32  and  C_33
REMARK                            x       y       z     vdW  Elec       q    Type
REMARK                         _______ _______ _______ _____ _____    ______ ____
ROOT
ATOM      1  C   UNL     1      46.785 -21.377 -41.037  0.00  0.00    +0.188 C 
ATOM      2  N   UNL     1      46.376 -20.251 -41.490  0.00  0.00    -0.250 NA
ATOM      3  C   UNL     1      45.245 -19.552 -40.866  0.00  0.00    +0.067 C 
ATOM      4  C   UNL     1      45.562 -18.053 -40.823  0.00  0.00    -0.011 C 
ATOM      5  C   UNL     1      44.398 -17.312 -40.240  0.00  0.00    -0.082 C 
ATOM      6  C   UNL     1      43.753 -17.795 -39.165  0.00  0.00    -0.069 C 
ATOM      7  C   UNL     1      42.534 -17.132 -38.577  0.00  0.00    -0.022 C 
ATOM      8  C   UNL     1      42.856 -16.327 -37.310  0.00  0.00    +0.025 C 
ATOM      9  C   UNL     1      41.628 -15.547 -36.842  0.00  0.00    +0.138 C 
ATOM     10  O   UNL     1      40.558 -15.577 -37.451  0.00  0.00    -0.297 OA
ATOM     11  C   UNL     1      41.777 -14.646 -35.624  0.00  0.00    +0.012 C 
ATOM     12  C   UNL     1      42.964 -15.025 -34.721  0.00  0.00    -0.013 C 
ATOM     13  C   UNL     1      44.231 -14.288 -35.221  0.00  0.00    -0.058 C 
ATOM     14  C   UNL     1      42.754 -14.738 -33.181  0.00  0.00    +0.007 C 
ATOM     15  C   UNL     1      43.663 -15.820 -32.491  0.00  0.00    +0.061 C 
ATOM     16  C   UNL     1      44.118 -16.802 -33.588  0.00  0.00    -0.020 C 
ATOM     17  C   UNL     1      43.118 -16.602 -34.737  0.00  0.00    -0.020 C 
ATOM     18  C   UNL     1      41.807 -17.363 -34.304  0.00  0.00    -0.059 C 
ATOM     19  C   UNL     1      43.470 -17.194 -36.161  0.00  0.00    -0.025 C 
ATOM     20  C   UNL     1      44.968 -17.466 -36.440  0.00  0.00    -0.048 C 
ATOM     21  C   UNL     1      45.291 -18.642 -37.391  0.00  0.00    -0.046 C 
ATOM     22  C   UNL     1      44.264 -19.041 -38.475  0.00  0.00    -0.009 C 
ATOM     23  C   UNL     1      44.771 -20.139 -39.505  0.00  0.00    +0.031 C 
ATOM     24  C   UNL     1      43.567 -21.077 -39.816  0.00  0.00    -0.054 C 
ATOM     25  C   UNL     1      45.892 -21.006 -38.929  0.00  0.00    +0.099 C 
ATOM     26  O   UNL     1      46.368 -21.949 -39.887  0.00  0.00    -0.479 OA
ENDROOT
BRANCH   1  28
ATOM     27  C   UNL     1      48.913 -22.656 -40.748  0.00  0.00    -0.054 C 
ATOM     28  C   UNL     1      47.840 -22.206 -41.733  0.00  0.00    +0.029 C 
ATOM     29  C   UNL     1      47.180 -23.396 -42.422  0.00  0.00    -0.054 C 
ENDBRANCH   1  28
BRANCH  14  30
ATOM     30  C   UNL     1      42.831 -13.333 -32.484  0.00  0.00    +0.013 C 
ATOM     31  C   UNL     1      42.059 -12.165 -33.119  0.00  0.00    -0.049 C 
BRANCH  30  32
ATOM     32  N   UNL     1      42.649 -13.268 -31.014  0.00  0.00    -0.305 N 
ATOM     33  C   UNL     1      43.531 -12.402 -30.253  0.00  0.00    -0.013 C 
ATOM     34  C   UNL     1      41.260 -13.103 -30.596  0.00  0.00    -0.013 C 
ATOM     35  H   UNL     1      42.962 -14.205 -30.761  0.00  0.00    +0.000 HD
ENDBRANCH  30  32
ENDBRANCH  14  30
BRANCH  15  36
ATOM     36  O   UNL     1      44.802 -15.285 -31.842  0.00  0.00    -0.391 OA
ATOM     37  H   UNL     1      45.118 -14.510 -32.331  0.00  0.00    +0.000 HD
ENDBRANCH  15  36
TORSDOF 4
ENDMDL
MODEL 10
REMARK VINA RESULT:    -6.438     17.549     21.682
REMARK INTER + INTRA:          -8.486
REMARK INTER:                  -7.935
REMARK INTRA:                  -0.551
REMARK UNBOUND:                -0.730
REMARK  Name = cpd98.pdb
REMARK  12 active torsions:
REMARK  status: ('A' for Active; 'I' for Inactive)
REMARK    1  A    between atoms: C_1  and  C_2
REMARK    2  A    between atoms: C_2  and  C_3
REMARK    3  A    between atoms: C_2  and  C_4
REMARK    4  A    between atoms: C_15  and  C_16
REMARK    5  A    between atoms: C_17  and  C_18
REMARK    6  A    between atoms: C_18  and  C_19
REMARK    7  A    between atoms: C_18  and  N_20
REMARK    8  A    between atoms: N_20  and  C_21
REMARK    9  A    between atoms: N_20  and  C_22
REMARK   10  A    between atoms: C_23  and  O_24
REMARK   11  A    between atoms: C_26  and  C_27
REMARK   12  A    between atoms: C_32  and  C_33
REMARK                            x       y       z     vdW  Elec       q    Type
REMARK                         _______ _______ _______ _____ _____    ______ ____
ROOT
ATOM      1  C   UNL     1      27.842 -29.657 -33.249  0.00  0.00    +0.188 C 
ATOM      2  N   UNL     1      28.536 -29.276 -32.242  0.00  0.00    -0.250 NA
ATOM      3  C   UNL     1      28.886 -30.215 -31.168  0.00  0.00    +0.067 C 
ATOM      4  C   UNL     1      30.333 -29.946 -30.738  0.00  0.00    -0.011 C 
ATOM      5  C   UNL     1      30.696 -30.856 -29.605  0.00  0.00    -0.082 C 
ATOM      6  C   UNL     1      30.333 -32.149 -29.627  0.00  0.00    -0.069 C 
ATOM      7  C   UNL     1      30.607 -33.095 -28.487  0.00  0.00    -0.022 C 
ATOM      8  C   UNL     1      31.803 -34.018 -28.761  0.00  0.00    +0.025 C 
ATOM      9  C   UNL     1      32.141 -34.844 -27.522  0.00  0.00    +0.138 C 
ATOM     10  O   UNL     1      31.521 -34.727 -26.464  0.00  0.00    -0.297 OA
ATOM     11  C   UNL     1      33.340 -35.781 -27.595  0.00  0.00    +0.012 C 
ATOM     12  C   UNL     1      33.731 -36.166 -29.031  0.00  0.00    -0.013 C 
ATOM     13  C   UNL     1      34.725 -35.113 -29.581  0.00  0.00    -0.058 C 
ATOM     14  C   UNL     1      34.346 -37.614 -29.194  0.00  0.00    +0.007 C 
ATOM     15  C   UNL     1      33.954 -38.003 -30.666  0.00  0.00    +0.061 C 
ATOM     16  C   UNL     1      32.956 -36.942 -31.169  0.00  0.00    -0.020 C 
ATOM     17  C   UNL     1      32.408 -36.279 -29.896  0.00  0.00    -0.020 C 
ATOM     18  C   UNL     1      31.357 -37.292 -29.301  0.00  0.00    -0.059 C 
ATOM     19  C   UNL     1      31.617 -34.916 -30.030  0.00  0.00    -0.025 C 
ATOM     20  C   UNL     1      31.881 -34.091 -31.312  0.00  0.00    -0.048 C 
ATOM     21  C   UNL     1      30.705 -33.239 -31.842  0.00  0.00    -0.046 C 
ATOM     22  C   UNL     1      29.642 -32.718 -30.848  0.00  0.00    -0.009 C 
ATOM     23  C   UNL     1      28.582 -31.711 -31.468  0.00  0.00    +0.031 C 
ATOM     24  C   UNL     1      27.202 -32.028 -30.817  0.00  0.00    -0.054 C 
ATOM     25  C   UNL     1      28.427 -31.885 -32.981  0.00  0.00    +0.099 C 
ATOM     26  O   UNL     1      27.511 -30.937 -33.525  0.00  0.00    -0.479 OA
ENDROOT
BRANCH   1  28
ATOM     27  C   UNL     1      26.015 -28.063 -33.856  0.00  0.00    -0.054 C 
ATOM     28  C   UNL     1      27.327 -28.700 -34.299  0.00  0.00    +0.029 C 
ATOM     29  C   UNL     1      28.389 -27.646 -34.591  0.00  0.00    -0.054 C 
ENDBRANCH   1  28
BRANCH  14  30
ATOM     30  C   UNL     1      35.806 -38.046 -28.810  0.00  0.00    +0.013 C 
ATOM     31  C   UNL     1      36.380 -37.554 -27.472  0.00  0.00    -0.049 C 
BRANCH  30  32
ATOM     32  N   UNL     1      36.185 -39.468 -28.985  0.00  0.00    -0.305 N 
ATOM     33  C   UNL     1      37.541 -39.862 -28.650  0.00  0.00    -0.013 C 
ATOM     34  C   UNL     1      35.213 -40.412 -28.441  0.00  0.00    -0.013 C 
ATOM     35  H   UNL     1      36.167 -39.527 -30.003  0.00  0.00    +0.000 HD
ENDBRANCH  30  32
ENDBRANCH  14  30
BRANCH  15  36
ATOM     36  O   UNL     1      35.053 -38.067 -31.556  0.00  0.00    -0.391 OA
ATOM     37  H   UNL     1      35.655 -38.774 -31.276  0.00  0.00    +0.000 HD
ENDBRANCH  15  36
TORSDOF 4
ENDMDL
MODEL 11
REMARK VINA RESULT:    -6.433     17.273     20.772
REMARK INTER + INTRA:          -8.480
REMARK INTER:                  -7.947
REMARK INTRA:                  -0.533
REMARK UNBOUND:                -0.730
REMARK  Name = cpd98.pdb
REMARK  12 active torsions:
REMARK  status: ('A' for Active; 'I' for Inactive)
REMARK    1  A    between atoms: C_1  and  C_2
REMARK    2  A    between atoms: C_2  and  C_3
REMARK    3  A    between atoms: C_2  and  C_4
REMARK    4  A    between atoms: C_15  and  C_16
REMARK    5  A    between atoms: C_17  and  C_18
REMARK    6  A    between atoms: C_18  and  C_19
REMARK    7  A    between atoms: C_18  and  N_20
REMARK    8  A    between atoms: N_20  and  C_21
REMARK    9  A    between atoms: N_20  and  C_22
REMARK   10  A    between atoms: C_23  and  O_24
REMARK   11  A    between atoms: C_26  and  C_27
REMARK   12  A    between atoms: C_32  and  C_33
REMARK                            x       y       z     vdW  Elec       q    Type
REMARK                         _______ _______ _______ _____ _____    ______ ____
ROOT
ATOM      1  C   UNL     1      26.955 -26.566 -30.392  0.00  0.00    +0.188 C 
ATOM      2  N   UNL     1      27.045 -27.198 -29.281  0.00  0.00    -0.250 NA
ATOM      3  C   UNL     1      27.357 -28.633 -29.253  0.00  0.00    +0.067 C 
ATOM      4  C   UNL     1      28.328 -28.898 -28.096  0.00  0.00    -0.011 C 
ATOM      5  C   UNL     1      28.618 -30.365 -28.012  0.00  0.00    -0.082 C 
ATOM      6  C   UNL     1      28.842 -31.079 -29.127  0.00  0.00    -0.069 C 
ATOM      7  C   UNL     1      29.070 -32.568 -29.112  0.00  0.00    -0.022 C 
ATOM      8  C   UNL     1      30.552 -32.940 -29.262  0.00  0.00    +0.025 C 
ATOM      9  C   UNL     1      30.751 -34.444 -29.081  0.00  0.00    +0.138 C 
ATOM     10  O   UNL     1      29.817 -35.205 -28.827  0.00  0.00    -0.297 OA
ATOM     11  C   UNL     1      32.172 -34.988 -29.145  0.00  0.00    +0.012 C 
ATOM     12  C   UNL     1      33.151 -34.063 -29.888  0.00  0.00    -0.013 C 
ATOM     13  C   UNL     1      33.754 -33.054 -28.879  0.00  0.00    -0.058 C 
ATOM     14  C   UNL     1      34.315 -34.801 -30.662  0.00  0.00    +0.007 C 
ATOM     15  C   UNL     1      34.643 -33.810 -31.838  0.00  0.00    +0.061 C 
ATOM     16  C   UNL     1      33.538 -32.737 -31.854  0.00  0.00    -0.020 C 
ATOM     17  C   UNL     1      32.370 -33.360 -31.074  0.00  0.00    -0.020 C 
ATOM     18  C   UNL     1      31.687 -34.380 -32.064  0.00  0.00    -0.059 C 
ATOM     19  C   UNL     1      31.191 -32.421 -30.593  0.00  0.00    -0.025 C 
ATOM     20  C   UNL     1      31.518 -30.913 -30.476  0.00  0.00    -0.048 C 
ATOM     21  C   UNL     1      30.356 -29.930 -30.745  0.00  0.00    -0.046 C 
ATOM     22  C   UNL     1      28.904 -30.383 -30.470  0.00  0.00    -0.009 C 
ATOM     23  C   UNL     1      27.808 -29.242 -30.611  0.00  0.00    +0.031 C 
ATOM     24  C   UNL     1      26.545 -29.887 -31.256  0.00  0.00    -0.054 C 
ATOM     25  C   UNL     1      28.264 -28.106 -31.529  0.00  0.00    +0.099 C 
ATOM     26  O   UNL     1      27.288 -27.069 -31.601  0.00  0.00    -0.479 OA
ENDROOT
BRANCH   1  28
ATOM     27  C   UNL     1      27.498 -24.190 -29.838  0.00  0.00    -0.054 C 
ATOM     28  C   UNL     1      26.488 -25.132 -30.484  0.00  0.00    +0.029 C 
ATOM     29  C   UNL     1      26.241 -24.769 -31.944  0.00  0.00    -0.054 C 
ENDBRANCH   1  28
BRANCH  14  30
ATOM     30  C   UNL     1      35.597 -35.436 -30.016  0.00  0.00    +0.013 C 
ATOM     31  C   UNL     1      35.440 -36.198 -28.691  0.00  0.00    -0.049 C 
BRANCH  30  32
ATOM     32  N   UNL     1      36.517 -36.203 -30.889  0.00  0.00    -0.305 N 
ATOM     33  C   UNL     1      37.876 -35.720 -31.046  0.00  0.00    -0.013 C 
ATOM     34  C   UNL     1      36.495 -37.644 -30.651  0.00  0.00    -0.013 C 
ATOM     35  H   UNL     1      36.092 -36.012 -31.796  0.00  0.00    +0.000 HD
ENDBRANCH  30  32
ENDBRANCH  14  30
BRANCH  15  36
ATOM     36  O   UNL     1      35.905 -33.178 -31.724  0.00  0.00    -0.391 OA
ATOM     37  H   UNL     1      36.269 -33.341 -30.840  0.00  0.00    +0.000 HD
ENDBRANCH  15  36
TORSDOF 4
ENDMDL
MODEL 12
REMARK VINA RESULT:    -6.383     22.822     25.821
REMARK INTER + INTRA:          -8.420
REMARK INTER:                  -7.725
REMARK INTRA:                  -0.695
REMARK UNBOUND:                -0.730
REMARK  Name = cpd98.pdb
REMARK  12 active torsions:
REMARK  status: ('A' for Active; 'I' for Inactive)
REMARK    1  A    between atoms: C_1  and  C_2
REMARK    2  A    between atoms: C_2  and  C_3
REMARK    3  A    between atoms: C_2  and  C_4
REMARK    4  A    between atoms: C_15  and  C_16
REMARK    5  A    between atoms: C_17  and  C_18
REMARK    6  A    between atoms: C_18  and  C_19
REMARK    7  A    between atoms: C_18  and  N_20
REMARK    8  A    between atoms: N_20  and  C_21
REMARK    9  A    between atoms: N_20  and  C_22
REMARK   10  A    between atoms: C_23  and  O_24
REMARK   11  A    between atoms: C_26  and  C_27
REMARK   12  A    between atoms: C_32  and  C_33
REMARK                            x       y       z     vdW  Elec       q    Type
REMARK                         _______ _______ _______ _____ _____    ______ ____
ROOT
ATOM      1  C   UNL     1      34.604 -36.587 -30.242  0.00  0.00    +0.188 C 
ATOM      2  N   UNL     1      35.056 -37.738 -29.906  0.00  0.00    -0.250 NA
ATOM      3  C   UNL     1      34.316 -38.964 -30.234  0.00  0.00    +0.067 C 
ATOM      4  C   UNL     1      35.320 -40.036 -30.673  0.00  0.00    -0.011 C 
ATOM      5  C   UNL     1      34.594 -41.314 -30.960  0.00  0.00    -0.082 C 
ATOM      6  C   UNL     1      33.434 -41.300 -31.638  0.00  0.00    -0.069 C 
ATOM      7  C   UNL     1      32.623 -42.544 -31.896  0.00  0.00    -0.022 C 
ATOM      8  C   UNL     1      32.793 -43.071 -33.328  0.00  0.00    +0.025 C 
ATOM      9  C   UNL     1      32.083 -44.413 -33.495  0.00  0.00    +0.138 C 
ATOM     10  O   UNL     1      31.491 -44.965 -32.567  0.00  0.00    -0.297 OA
ATOM     11  C   UNL     1      32.191 -45.114 -34.843  0.00  0.00    +0.012 C 
ATOM     12  C   UNL     1      32.544 -44.166 -36.001  0.00  0.00    -0.013 C 
ATOM     13  C   UNL     1      34.085 -44.061 -36.114  0.00  0.00    -0.058 C 
ATOM     14  C   UNL     1      31.934 -44.564 -37.405  0.00  0.00    +0.007 C 
ATOM     15  C   UNL     1      31.794 -43.179 -38.137  0.00  0.00    +0.061 C 
ATOM     16  C   UNL     1      32.056 -42.079 -37.090  0.00  0.00    -0.020 C 
ATOM     17  C   UNL     1      31.847 -42.768 -35.732  0.00  0.00    -0.020 C 
ATOM     18  C   UNL     1      30.286 -42.875 -35.539  0.00  0.00    -0.059 C 
ATOM     19  C   UNL     1      32.362 -42.041 -34.425  0.00  0.00    -0.025 C 
ATOM     20  C   UNL     1      33.467 -40.976 -34.621  0.00  0.00    -0.048 C 
ATOM     21  C   UNL     1      33.472 -39.792 -33.627  0.00  0.00    -0.046 C 
ATOM     22  C   UNL     1      32.906 -39.999 -32.203  0.00  0.00    -0.009 C 
ATOM     23  C   UNL     1      33.121 -38.776 -31.212  0.00  0.00    +0.031 C 
ATOM     24  C   UNL     1      31.838 -38.656 -30.336  0.00  0.00    -0.054 C 
ATOM     25  C   UNL     1      33.298 -37.450 -31.953  0.00  0.00    +0.099 C 
ATOM     26  O   UNL     1      33.542 -36.375 -31.049  0.00  0.00    -0.479 OA
ENDROOT
BRANCH   1  28
ATOM     27  C   UNL     1      36.325 -34.856 -30.781  0.00  0.00    -0.054 C 
ATOM     28  C   UNL     1      35.246 -35.293 -29.797  0.00  0.00    +0.029 C 
ATOM     29  C   UNL     1      34.173 -34.223 -29.633  0.00  0.00    -0.054 C 
ENDBRANCH   1  28
BRANCH  14  30
ATOM     30  C   UNL     1      32.452 -45.709 -38.346  0.00  0.00    +0.013 C 
ATOM     31  C   UNL     1      32.560 -47.129 -37.768  0.00  0.00    -0.049 C 
BRANCH  30  32
ATOM     32  N   UNL     1      31.888 -45.802 -39.713  0.00  0.00    -0.305 N 
ATOM     33  C   UNL     1      32.608 -46.587 -40.699  0.00  0.00    -0.013 C 
ATOM     34  C   UNL     1      30.459 -46.100 -39.745  0.00  0.00    -0.013 C 
ATOM     35  H   UNL     1      32.032 -44.842 -40.024  0.00  0.00    +0.000 HD
ENDBRANCH  30  32
ENDBRANCH  14  30
BRANCH  15  36
ATOM     36  O   UNL     1      32.686 -43.010 -39.223  0.00  0.00    -0.391 OA
ATOM     37  H   UNL     1      32.431 -43.604 -39.946  0.00  0.00    +0.000 HD
ENDBRANCH  15  36
TORSDOF 4
ENDMDL
MODEL 13
REMARK VINA RESULT:    -6.181      3.948      6.345
REMARK INTER + INTRA:          -8.176
REMARK INTER:                  -7.469
REMARK INTRA:                  -0.706
REMARK UNBOUND:                -0.730
REMARK  Name = cpd98.pdb
REMARK  12 active torsions:
REMARK  status: ('A' for Active; 'I' for Inactive)
REMARK    1  A    between atoms: C_1  and  C_2
REMARK    2  A    between atoms: C_2  and  C_3
REMARK    3  A    between atoms: C_2  and  C_4
REMARK    4  A    between atoms: C_15  and  C_16
REMARK    5  A    between atoms: C_17  and  C_18
REMARK    6  A    between atoms: C_18  and  C_19
REMARK    7  A    between atoms: C_18  and  N_20
REMARK    8  A    between atoms: N_20  and  C_21
REMARK    9  A    between atoms: N_20  and  C_22
REMARK   10  A    between atoms: C_23  and  O_24
REMARK   11  A    between atoms: C_26  and  C_27
REMARK   12  A    between atoms: C_32  and  C_33
REMARK                            x       y       z     vdW  Elec       q    Type
REMARK                         _______ _______ _______ _____ _____    ______ ____
ROOT
ATOM      1  C   UNL     1      45.476 -12.180 -41.275  0.00  0.00    +0.188 C 
ATOM      2  N   UNL     1      44.724 -12.929 -41.992  0.00  0.00    -0.250 NA
ATOM      3  C   UNL     1      44.653 -14.377 -41.752  0.00  0.00    +0.067 C 
ATOM      4  C   UNL     1      43.194 -14.824 -41.903  0.00  0.00    -0.011 C 
ATOM      5  C   UNL     1      43.104 -16.308 -41.717  0.00  0.00    -0.082 C 
ATOM      6  C   UNL     1      43.794 -16.914 -40.737  0.00  0.00    -0.069 C 
ATOM      7  C   UNL     1      43.799 -18.408 -40.544  0.00  0.00    -0.022 C 
ATOM      8  C   UNL     1      42.884 -18.857 -39.397  0.00  0.00    +0.025 C 
ATOM      9  C   UNL     1      42.797 -20.381 -39.341  0.00  0.00    +0.138 C 
ATOM     10  O   UNL     1      43.383 -21.103 -40.149  0.00  0.00    -0.297 OA
ATOM     11  C   UNL     1      41.886 -21.007 -38.293  0.00  0.00    +0.012 C 
ATOM     12  C   UNL     1      41.583 -20.075 -37.108  0.00  0.00    -0.013 C 
ATOM     13  C   UNL     1      40.338 -19.219 -37.447  0.00  0.00    -0.058 C 
ATOM     14  C   UNL     1      41.368 -20.801 -35.720  0.00  0.00    +0.007 C 
ATOM     15  C   UNL     1      41.822 -19.716 -34.677  0.00  0.00    +0.061 C 
ATOM     16  C   UNL     1      42.497 -18.577 -35.466  0.00  0.00    -0.020 C 
ATOM     17  C   UNL     1      42.874 -19.201 -36.818  0.00  0.00    -0.020 C 
ATOM     18  C   UNL     1      44.165 -20.065 -36.548  0.00  0.00    -0.059 C 
ATOM     19  C   UNL     1      43.276 -18.244 -38.011  0.00  0.00    -0.025 C 
ATOM     20  C   UNL     1      42.781 -16.781 -37.915  0.00  0.00    -0.048 C 
ATOM     21  C   UNL     1      43.681 -15.701 -38.557  0.00  0.00    -0.046 C 
ATOM     22  C   UNL     1      44.588 -16.086 -39.749  0.00  0.00    -0.009 C 
ATOM     23  C   UNL     1      45.335 -14.867 -40.443  0.00  0.00    +0.031 C 
ATOM     24  C   UNL     1      46.760 -15.357 -40.835  0.00  0.00    -0.054 C 
ATOM     25  C   UNL     1      45.502 -13.673 -39.501  0.00  0.00    +0.099 C 
ATOM     26  O   UNL     1      46.126 -12.573 -40.159  0.00  0.00    -0.479 OA
ENDROOT
BRANCH   1  28
ATOM     27  C   UNL     1      46.545 -10.546 -42.835  0.00  0.00    -0.054 C 
ATOM     28  C   UNL     1      45.702 -10.716 -41.577  0.00  0.00    +0.029 C 
ATOM     29  C   UNL     1      44.357 -10.010 -41.705  0.00  0.00    -0.054 C 
ENDBRANCH   1  28
BRANCH  14  30
ATOM     30  C   UNL     1      40.081 -21.582 -35.277  0.00  0.00    +0.013 C 
ATOM     31  C   UNL     1      39.666 -22.819 -36.090  0.00  0.00    -0.049 C 
BRANCH  30  32
ATOM     32  N   UNL     1      39.910 -21.892 -33.837  0.00  0.00    -0.305 N 
ATOM     33  C   UNL     1      38.570 -21.846 -33.281  0.00  0.00    -0.013 C 
ATOM     34  C   UNL     1      40.619 -23.091 -33.401  0.00  0.00    -0.013 C 
ATOM     35  H   UNL     1      40.363 -21.074 -33.430  0.00  0.00    +0.000 HD
ENDBRANCH  30  32
ENDBRANCH  14  30
BRANCH  15  36
ATOM     36  O   UNL     1      40.763 -19.182 -33.904  0.00  0.00    -0.391 OA
ATOM     37  H   UNL     1      41.126 -18.623 -33.200  0.00  0.00    +0.000 HD
ENDBRANCH  15  36
TORSDOF 4
ENDMDL
MODEL 14
REMARK VINA RESULT:    -6.050     31.747     35.139
REMARK INTER + INTRA:          -8.019
REMARK INTER:                  -7.436
REMARK INTRA:                  -0.583
REMARK UNBOUND:                -0.730
REMARK  Name = cpd98.pdb
REMARK  12 active torsions:
REMARK  status: ('A' for Active; 'I' for Inactive)
REMARK    1  A    between atoms: C_1  and  C_2
REMARK    2  A    between atoms: C_2  and  C_3
REMARK    3  A    between atoms: C_2  and  C_4
REMARK    4  A    between atoms: C_15  and  C_16
REMARK    5  A    between atoms: C_17  and  C_18
REMARK    6  A    between atoms: C_18  and  C_19
REMARK    7  A    between atoms: C_18  and  N_20
REMARK    8  A    between atoms: N_20  and  C_21
REMARK    9  A    between atoms: N_20  and  C_22
REMARK   10  A    between atoms: C_23  and  O_24
REMARK   11  A    between atoms: C_26  and  C_27
REMARK   12  A    between atoms: C_32  and  C_33
REMARK                            x       y       z     vdW  Elec       q    Type
REMARK                         _______ _______ _______ _____ _____    ______ ____
ROOT
ATOM      1  C   UNL     1      35.191 -41.973 -17.507  0.00  0.00    +0.188 C 
ATOM      2  N   UNL     1      35.171 -43.254 -17.498  0.00  0.00    -0.250 NA
ATOM      3  C   UNL     1      36.333 -44.031 -17.950  0.00  0.00    +0.067 C 
ATOM      4  C   UNL     1      36.513 -45.229 -17.011  0.00  0.00    -0.011 C 
ATOM      5  C   UNL     1      37.660 -46.068 -17.485  0.00  0.00    -0.082 C 
ATOM      6  C   UNL     1      38.798 -45.490 -17.905  0.00  0.00    -0.069 C 
ATOM      7  C   UNL     1      39.958 -46.275 -18.458  0.00  0.00    -0.022 C 
ATOM      8  C   UNL     1      41.094 -46.444 -17.439  0.00  0.00    +0.025 C 
ATOM      9  C   UNL     1      42.174 -47.377 -17.984  0.00  0.00    +0.138 C 
ATOM     10  O   UNL     1      42.082 -47.914 -19.090  0.00  0.00    -0.297 OA
ATOM     11  C   UNL     1      43.357 -47.704 -17.083  0.00  0.00    +0.012 C 
ATOM     12  C   UNL     1      43.584 -46.669 -15.969  0.00  0.00    -0.013 C 
ATOM     13  C   UNL     1      42.739 -47.067 -14.733  0.00  0.00    -0.058 C 
ATOM     14  C   UNL     1      45.092 -46.464 -15.539  0.00  0.00    +0.007 C 
ATOM     15  C   UNL     1      45.118 -44.976 -15.033  0.00  0.00    +0.061 C 
ATOM     16  C   UNL     1      43.771 -44.336 -15.423  0.00  0.00    -0.020 C 
ATOM     17  C   UNL     1      43.213 -45.236 -16.536  0.00  0.00    -0.020 C 
ATOM     18  C   UNL     1      44.013 -44.854 -17.840  0.00  0.00    -0.059 C 
ATOM     19  C   UNL     1      41.692 -45.086 -16.943  0.00  0.00    -0.025 C 
ATOM     20  C   UNL     1      40.759 -44.445 -15.888  0.00  0.00    -0.048 C 
ATOM     21  C   UNL     1      39.562 -43.629 -16.427  0.00  0.00    -0.046 C 
ATOM     22  C   UNL     1      38.963 -43.988 -17.807  0.00  0.00    -0.009 C 
ATOM     23  C   UNL     1      37.632 -43.207 -18.183  0.00  0.00    +0.031 C 
ATOM     24  C   UNL     1      37.694 -42.888 -19.706  0.00  0.00    -0.054 C 
ATOM     25  C   UNL     1      37.507 -41.876 -17.439  0.00  0.00    +0.099 C 
ATOM     26  O   UNL     1      36.282 -41.216 -17.751  0.00  0.00    -0.479 OA
ENDROOT
BRANCH   1  28
ATOM     27  C   UNL     1      32.716 -41.764 -17.783  0.00  0.00    -0.054 C 
ATOM     28  C   UNL     1      33.974 -41.132 -17.199  0.00  0.00    +0.029 C 
ATOM     29  C   UNL     1      33.855 -40.942 -15.691  0.00  0.00    -0.054 C 
ENDBRANCH   1  28
BRANCH  14  30
ATOM     30  C   UNL     1      45.936 -47.436 -14.640  0.00  0.00    +0.013 C 
ATOM     31  C   UNL     1      45.852 -48.944 -14.925  0.00  0.00    -0.049 C 
BRANCH  30  32
ATOM     32  N   UNL     1      47.351 -47.090 -14.371  0.00  0.00    -0.305 N 
ATOM     33  C   UNL     1      47.780 -46.987 -12.988  0.00  0.00    -0.013 C 
ATOM     34  C   UNL     1      48.309 -47.856 -15.163  0.00  0.00    -0.013 C 
ATOM     35  H   UNL     1      47.356 -46.122 -14.693  0.00  0.00    +0.000 HD
ENDBRANCH  30  32
ENDBRANCH  14  30
BRANCH  15  36
ATOM     36  O   UNL     1      45.308 -44.846 -13.636  0.00  0.00    -0.391 OA
ATOM     37  H   UNL     1      45.813 -45.606 -13.307  0.00  0.00    +0.000 HD
ENDBRANCH  15  36
TORSDOF 4
ENDMDL
MODEL 15
REMARK VINA RESULT:    -6.039     23.190     28.241
REMARK INTER + INTRA:          -8.005
REMARK INTER:                  -7.276
REMARK INTRA:                  -0.729
REMARK UNBOUND:                -0.730
REMARK  Name = cpd98.pdb
REMARK  12 active torsions:
REMARK  status: ('A' for Active; 'I' for Inactive)
REMARK    1  A    between atoms: C_1  and  C_2
REMARK    2  A    between atoms: C_2  and  C_3
REMARK    3  A    between atoms: C_2  and  C_4
REMARK    4  A    between atoms: C_15  and  C_16
REMARK    5  A    between atoms: C_17  and  C_18
REMARK    6  A    between atoms: C_18  and  C_19
REMARK    7  A    between atoms: C_18  and  N_20
REMARK    8  A    between atoms: N_20  and  C_21
REMARK    9  A    between atoms: N_20  and  C_22
REMARK   10  A    between atoms: C_23  and  O_24
REMARK   11  A    between atoms: C_26  and  C_27
REMARK   12  A    between atoms: C_32  and  C_33
REMARK                            x       y       z     vdW  Elec       q    Type
REMARK                         _______ _______ _______ _____ _____    ______ ____
ROOT
ATOM      1  C   UNL     1      60.377 -10.858 -29.045  0.00  0.00    +0.188 C 
ATOM      2  N   UNL     1      60.514 -12.110 -28.811  0.00  0.00    -0.250 NA
ATOM      3  C   UNL     1      61.558 -12.894 -29.484  0.00  0.00    +0.067 C 
ATOM      4  C   UNL     1      62.167 -13.868 -28.468  0.00  0.00    -0.011 C 
ATOM      5  C   UNL     1      63.198 -14.718 -29.146  0.00  0.00    -0.082 C 
ATOM      6  C   UNL     1      64.067 -14.172 -30.014  0.00  0.00    -0.069 C 
ATOM      7  C   UNL     1      65.078 -14.986 -30.778  0.00  0.00    -0.022 C 
ATOM      8  C   UNL     1      66.489 -14.882 -30.182  0.00  0.00    +0.025 C 
ATOM      9  C   UNL     1      67.445 -15.843 -30.887  0.00  0.00    +0.138 C 
ATOM     10  O   UNL     1      67.074 -16.594 -31.790  0.00  0.00    -0.297 OA
ATOM     11  C   UNL     1      68.882 -15.914 -30.390  0.00  0.00    +0.012 C 
ATOM     12  C   UNL     1      69.324 -14.665 -29.609  0.00  0.00    -0.013 C 
ATOM     13  C   UNL     1      68.966 -14.854 -28.114  0.00  0.00    -0.058 C 
ATOM     14  C   UNL     1      70.854 -14.293 -29.747  0.00  0.00    +0.007 C 
ATOM     15  C   UNL     1      70.861 -12.734 -29.541  0.00  0.00    +0.061 C 
ATOM     16  C   UNL     1      69.394 -12.263 -29.564  0.00  0.00    -0.020 C 
ATOM     17  C   UNL     1      68.625 -13.398 -30.257  0.00  0.00    -0.020 C 
ATOM     18  C   UNL     1      68.921 -13.241 -31.797  0.00  0.00    -0.059 C 
ATOM     19  C   UNL     1      67.046 -13.419 -30.153  0.00  0.00    -0.025 C 
ATOM     20  C   UNL     1      66.425 -12.634 -28.974  0.00  0.00    -0.048 C 
ATOM     21  C   UNL     1      65.030 -12.012 -29.216  0.00  0.00    -0.046 C 
ATOM     22  C   UNL     1      64.074 -12.675 -30.234  0.00  0.00    -0.009 C 
ATOM     23  C   UNL     1      62.609 -12.061 -30.273  0.00  0.00    +0.031 C 
ATOM     24  C   UNL     1      62.148 -12.052 -31.762  0.00  0.00    -0.054 C 
ATOM     25  C   UNL     1      62.567 -10.617 -29.770  0.00  0.00    +0.099 C 
ATOM     26  O   UNL     1      61.237 -10.104 -29.764  0.00  0.00    -0.479 OA
ENDROOT
BRANCH   1  28
ATOM     27  C   UNL     1      58.543  -9.258 -29.610  0.00  0.00    -0.054 C 
ATOM     28  C   UNL     1      59.229 -10.043 -28.499  0.00  0.00    +0.029 C 
ATOM     29  C   UNL     1      58.249 -10.962 -27.777  0.00  0.00    -0.054 C 
ENDBRANCH   1  28
BRANCH  14  30
ATOM     30  C   UNL     1      72.049 -15.015 -29.028  0.00  0.00    +0.013 C 
ATOM     31  C   UNL     1      72.207 -16.530 -29.230  0.00  0.00    -0.049 C 
BRANCH  30  32
ATOM     32  N   UNL     1      73.392 -14.391 -29.102  0.00  0.00    -0.305 N 
ATOM     33  C   UNL     1      74.268 -14.516 -27.952  0.00  0.00    -0.013 C 
ATOM     34  C   UNL     1      74.108 -14.672 -30.343  0.00  0.00    -0.013 C 
ATOM     35  H   UNL     1      73.125 -13.407 -29.090  0.00  0.00    +0.000 HD
ENDBRANCH  30  32
ENDBRANCH  14  30
BRANCH  15  36
ATOM     36  O   UNL     1      71.466 -12.316 -28.332  0.00  0.00    -0.391 OA
ATOM     37  H   UNL     1      71.077 -11.472 -28.051  0.00  0.00    +0.000 HD
ENDBRANCH  15  36
TORSDOF 4
ENDMDL
MODEL 16
REMARK VINA RESULT:    -5.954     19.728     23.160
REMARK INTER + INTRA:          -7.902
REMARK INTER:                  -7.208
REMARK INTRA:                  -0.694
REMARK UNBOUND:                -0.730
REMARK  Name = cpd98.pdb
REMARK  12 active torsions:
REMARK  status: ('A' for Active; 'I' for Inactive)
REMARK    1  A    between atoms: C_1  and  C_2
REMARK    2  A    between atoms: C_2  and  C_3
REMARK    3  A    between atoms: C_2  and  C_4
REMARK    4  A    between atoms: C_15  and  C_16
REMARK    5  A    between atoms: C_17  and  C_18
REMARK    6  A    between atoms: C_18  and  C_19
REMARK    7  A    between atoms: C_18  and  N_20
REMARK    8  A    between atoms: N_20  and  C_21
REMARK    9  A    between atoms: N_20  and  C_22
REMARK   10  A    between atoms: C_23  and  O_24
REMARK   11  A    between atoms: C_26  and  C_27
REMARK   12  A    between atoms: C_32  and  C_33
REMARK                            x       y       z     vdW  Elec       q    Type
REMARK                         _______ _______ _______ _____ _____    ______ ____
ROOT
ATOM      1  C   UNL     1      47.301 -24.647 -57.577  0.00  0.00    +0.188 C 
ATOM      2  N   UNL     1      46.199 -25.121 -58.027  0.00  0.00    -0.250 NA
ATOM      3  C   UNL     1      46.114 -26.506 -58.507  0.00  0.00    +0.067 C 
ATOM      4  C   UNL     1      44.781 -27.102 -58.038  0.00  0.00    -0.011 C 
ATOM      5  C   UNL     1      44.645 -28.499 -58.563  0.00  0.00    -0.082 C 
ATOM      6  C   UNL     1      45.693 -29.340 -58.538  0.00  0.00    -0.069 C 
ATOM      7  C   UNL     1      45.638 -30.731 -59.113  0.00  0.00    -0.022 C 
ATOM      8  C   UNL     1      45.477 -31.809 -58.033  0.00  0.00    +0.025 C 
ATOM      9  C   UNL     1      45.266 -33.182 -58.669  0.00  0.00    +0.138 C 
ATOM     10  O   UNL     1      45.217 -33.341 -59.890  0.00  0.00    -0.297 OA
ATOM     11  C   UNL     1      45.034 -34.370 -57.744  0.00  0.00    +0.012 C 
ATOM     12  C   UNL     1      45.551 -34.144 -56.314  0.00  0.00    -0.013 C 
ATOM     13  C   UNL     1      44.433 -33.477 -55.475  0.00  0.00    -0.058 C 
ATOM     14  C   UNL     1      46.069 -35.442 -55.574  0.00  0.00    +0.007 C 
ATOM     15  C   UNL     1      47.145 -34.877 -54.577  0.00  0.00    +0.061 C 
ATOM     16  C   UNL     1      47.386 -33.402 -54.951  0.00  0.00    -0.020 C 
ATOM     17  C   UNL     1      46.871 -33.270 -56.393  0.00  0.00    -0.020 C 
ATOM     18  C   UNL     1      47.987 -33.904 -57.308  0.00  0.00    -0.059 C 
ATOM     19  C   UNL     1      46.642 -31.822 -56.987  0.00  0.00    -0.025 C 
ATOM     20  C   UNL     1      46.451 -30.680 -55.961  0.00  0.00    -0.048 C 
ATOM     21  C   UNL     1      46.952 -29.280 -56.383  0.00  0.00    -0.046 C 
ATOM     22  C   UNL     1      46.989 -28.911 -57.884  0.00  0.00    -0.009 C 
ATOM     23  C   UNL     1      47.351 -27.395 -58.192  0.00  0.00    +0.031 C 
ATOM     24  C   UNL     1      48.249 -27.381 -59.465  0.00  0.00    -0.054 C 
ATOM     25  C   UNL     1      48.147 -26.744 -57.060  0.00  0.00    +0.099 C 
ATOM     26  O   UNL     1      48.416 -25.370 -57.334  0.00  0.00    -0.479 OA
ENDROOT
BRANCH   1  28
ATOM     27  C   UNL     1      48.387 -23.041 -56.000  0.00  0.00    -0.054 C 
ATOM     28  C   UNL     1      47.481 -23.191 -57.216  0.00  0.00    +0.029 C 
ATOM     29  C   UNL     1      48.030 -22.432 -58.419  0.00  0.00    -0.054 C 
ENDBRANCH   1  28
BRANCH  14  30
ATOM     30  C   UNL     1      45.171 -36.564 -54.942  0.00  0.00    +0.013 C 
ATOM     31  C   UNL     1      44.248 -37.365 -55.874  0.00  0.00    -0.049 C 
BRANCH  30  32
ATOM     32  N   UNL     1      45.797 -37.506 -53.983  0.00  0.00    -0.305 N 
ATOM     33  C   UNL     1      45.054 -37.863 -52.789  0.00  0.00    -0.013 C 
ATOM     34  C   UNL     1      46.384 -38.686 -54.610  0.00  0.00    -0.013 C 
ATOM     35  H   UNL     1      46.547 -36.914 -53.626  0.00  0.00    +0.000 HD
ENDBRANCH  30  32
ENDBRANCH  14  30
BRANCH  15  36
ATOM     36  O   UNL     1      46.766 -34.956 -53.215  0.00  0.00    -0.391 OA
ATOM     37  H   UNL     1      47.421 -35.478 -52.727  0.00  0.00    +0.000 HD
ENDBRANCH  15  36
TORSDOF 4
ENDMDL
MODEL 17
REMARK VINA RESULT:    -5.912     23.949     28.612
REMARK INTER + INTRA:          -7.852
REMARK INTER:                  -7.125
REMARK INTRA:                  -0.726
REMARK UNBOUND:                -0.730
REMARK  Name = cpd98.pdb
REMARK  12 active torsions:
REMARK  status: ('A' for Active; 'I' for Inactive)
REMARK    1  A    between atoms: C_1  and  C_2
REMARK    2  A    between atoms: C_2  and  C_3
REMARK    3  A    between atoms: C_2  and  C_4
REMARK    4  A    between atoms: C_15  and  C_16
REMARK    5  A    between atoms: C_17  and  C_18
REMARK    6  A    between atoms: C_18  and  C_19
REMARK    7  A    between atoms: C_18  and  N_20
REMARK    8  A    between atoms: N_20  and  C_21
REMARK    9  A    between atoms: N_20  and  C_22
REMARK   10  A    between atoms: C_23  and  O_24
REMARK   11  A    between atoms: C_26  and  C_27
REMARK   12  A    between atoms: C_32  and  C_33
REMARK                            x       y       z     vdW  Elec       q    Type
REMARK                         _______ _______ _______ _____ _____    ______ ____
ROOT
ATOM      1  C   UNL     1      61.168 -11.604 -30.723  0.00  0.00    +0.188 C 
ATOM      2  N   UNL     1      61.457 -12.816 -31.021  0.00  0.00    -0.250 NA
ATOM      3  C   UNL     1      62.854 -13.253 -31.131  0.00  0.00    +0.067 C 
ATOM      4  C   UNL     1      62.979 -14.648 -30.505  0.00  0.00    -0.011 C 
ATOM      5  C   UNL     1      64.386 -15.139 -30.655  0.00  0.00    -0.082 C 
ATOM      6  C   UNL     1      65.423 -14.314 -30.434  0.00  0.00    -0.069 C 
ATOM      7  C   UNL     1      66.857 -14.730 -30.636  0.00  0.00    -0.022 C 
ATOM      8  C   UNL     1      67.568 -15.052 -29.314  0.00  0.00    +0.025 C 
ATOM      9  C   UNL     1      68.962 -15.619 -29.577  0.00  0.00    +0.138 C 
ATOM     10  O   UNL     1      69.396 -15.796 -30.716  0.00  0.00    -0.297 OA
ATOM     11  C   UNL     1      69.797 -16.046 -28.377  0.00  0.00    +0.012 C 
ATOM     12  C   UNL     1      69.361 -15.384 -27.059  0.00  0.00    -0.013 C 
ATOM     13  C   UNL     1      68.261 -16.251 -26.400  0.00  0.00    -0.058 C 
ATOM     14  C   UNL     1      70.526 -15.123 -26.022  0.00  0.00    +0.007 C 
ATOM     15  C   UNL     1      70.012 -13.873 -25.218  0.00  0.00    +0.061 C 
ATOM     16  C   UNL     1      68.775 -13.329 -25.959  0.00  0.00    -0.020 C 
ATOM     17  C   UNL     1      68.878 -13.909 -27.379  0.00  0.00    -0.020 C 
ATOM     18  C   UNL     1      69.965 -13.041 -28.120  0.00  0.00    -0.059 C 
ATOM     19  C   UNL     1      67.607 -13.844 -28.318  0.00  0.00    -0.025 C 
ATOM     20  C   UNL     1      66.238 -13.689 -27.614  0.00  0.00    -0.048 C 
ATOM     21  C   UNL     1      65.146 -12.914 -28.385  0.00  0.00    -0.046 C 
ATOM     22  C   UNL     1      65.174 -12.908 -29.931  0.00  0.00    -0.009 C 
ATOM     23  C   UNL     1      63.912 -12.233 -30.621  0.00  0.00    +0.031 C 
ATOM     24  C   UNL     1      64.424 -11.455 -31.870  0.00  0.00    -0.054 C 
ATOM     25  C   UNL     1      63.216 -11.224 -29.704  0.00  0.00    +0.099 C 
ATOM     26  O   UNL     1      62.057 -10.670 -30.323  0.00  0.00    -0.479 OA
ENDROOT
BRANCH   1  28
ATOM     27  C   UNL     1      59.679  -9.709 -30.062  0.00  0.00    -0.054 C 
ATOM     28  C   UNL     1      59.755 -11.068 -30.748  0.00  0.00    +0.029 C 
ATOM     29  C   UNL     1      59.263 -10.996 -32.189  0.00  0.00    -0.054 C 
ENDBRANCH   1  28
BRANCH  14  30
ATOM     30  C   UNL     1      71.210 -16.203 -25.111  0.00  0.00    +0.013 C 
ATOM     31  C   UNL     1      71.907 -17.391 -25.793  0.00  0.00    -0.049 C 
BRANCH  30  32
ATOM     32  N   UNL     1      72.067 -15.738 -23.994  0.00  0.00    -0.305 N 
ATOM     33  C   UNL     1      72.094 -16.527 -22.777  0.00  0.00    -0.013 C 
ATOM     34  C   UNL     1      73.415 -15.354 -24.403  0.00  0.00    -0.013 C 
ATOM     35  H   UNL     1      71.554 -14.900 -23.722  0.00  0.00    +0.000 HD
ENDBRANCH  30  32
ENDBRANCH  14  30
BRANCH  15  36
ATOM     36  O   UNL     1      69.664 -14.155 -23.876  0.00  0.00    -0.391 OA
ATOM     37  H   UNL     1      69.112 -13.438 -23.527  0.00  0.00    +0.000 HD
ENDBRANCH  15  36
TORSDOF 4
ENDMDL
MODEL 18
REMARK VINA RESULT:    -5.878     30.253     33.188
REMARK INTER + INTRA:          -7.811
REMARK INTER:                  -7.072
REMARK INTRA:                  -0.739
REMARK UNBOUND:                -0.730
REMARK  Name = cpd98.pdb
REMARK  12 active torsions:
REMARK  status: ('A' for Active; 'I' for Inactive)
REMARK    1  A    between atoms: C_1  and  C_2
REMARK    2  A    between atoms: C_2  and  C_3
REMARK    3  A    between atoms: C_2  and  C_4
REMARK    4  A    between atoms: C_15  and  C_16
REMARK    5  A    between atoms: C_17  and  C_18
REMARK    6  A    between atoms: C_18  and  C_19
REMARK    7  A    between atoms: C_18  and  N_20
REMARK    8  A    between atoms: N_20  and  C_21
REMARK    9  A    between atoms: N_20  and  C_22
REMARK   10  A    between atoms: C_23  and  O_24
REMARK   11  A    between atoms: C_26  and  C_27
REMARK   12  A    between atoms: C_32  and  C_33
REMARK                            x       y       z     vdW  Elec       q    Type
REMARK                         _______ _______ _______ _____ _____    ______ ____
ROOT
ATOM      1  C   UNL     1      61.228 -49.837 -46.462  0.00  0.00    +0.188 C 
ATOM      2  N   UNL     1      60.493 -49.749 -45.416  0.00  0.00    -0.250 NA
ATOM      3  C   UNL     1      59.360 -48.815 -45.366  0.00  0.00    +0.067 C 
ATOM      4  C   UNL     1      58.189 -49.508 -44.659  0.00  0.00    -0.011 C 
ATOM      5  C   UNL     1      57.039 -48.555 -44.546  0.00  0.00    -0.082 C 
ATOM      6  C   UNL     1      56.703 -47.768 -45.582  0.00  0.00    -0.069 C 
ATOM      7  C   UNL     1      55.602 -46.742 -45.505  0.00  0.00    -0.022 C 
ATOM      8  C   UNL     1      54.308 -47.215 -46.182  0.00  0.00    +0.025 C 
ATOM      9  C   UNL     1      53.178 -46.215 -45.943  0.00  0.00    +0.138 C 
ATOM     10  O   UNL     1      53.334 -45.196 -45.268  0.00  0.00    -0.297 OA
ATOM     11  C   UNL     1      51.800 -46.548 -46.499  0.00  0.00    +0.012 C 
ATOM     12  C   UNL     1      51.834 -47.562 -47.654  0.00  0.00    -0.013 C 
ATOM     13  C   UNL     1      51.766 -48.994 -47.068  0.00  0.00    -0.058 C 
ATOM     14  C   UNL     1      50.701 -47.379 -48.742  0.00  0.00    +0.007 C 
ATOM     15  C   UNL     1      51.365 -47.952 -50.047  0.00  0.00    +0.061 C 
ATOM     16  C   UNL     1      52.859 -48.177 -49.739  0.00  0.00    -0.020 C 
ATOM     17  C   UNL     1      53.145 -47.304 -48.507  0.00  0.00    -0.020 C 
ATOM     18  C   UNL     1      53.260 -45.827 -49.044  0.00  0.00    -0.059 C 
ATOM     19  C   UNL     1      54.485 -47.543 -47.703  0.00  0.00    -0.025 C 
ATOM     20  C   UNL     1      55.153 -48.928 -47.876  0.00  0.00    -0.048 C 
ATOM     21  C   UNL     1      56.695 -48.971 -47.769  0.00  0.00    -0.046 C 
ATOM     22  C   UNL     1      57.422 -47.915 -46.905  0.00  0.00    -0.009 C 
ATOM     23  C   UNL     1      58.981 -48.157 -46.724  0.00  0.00    +0.031 C 
ATOM     24  C   UNL     1      59.676 -46.763 -46.756  0.00  0.00    -0.054 C 
ATOM     25  C   UNL     1      59.578 -48.995 -47.857  0.00  0.00    +0.099 C 
ATOM     26  O   UNL     1      60.966 -49.245 -47.647  0.00  0.00    -0.479 OA
ENDROOT
BRANCH   1  28
ATOM     27  C   UNL     1      62.214 -52.101 -46.079  0.00  0.00    -0.054 C 
ATOM     28  C   UNL     1      62.491 -50.665 -46.509  0.00  0.00    +0.029 C 
ATOM     29  C   UNL     1      63.086 -50.607 -47.912  0.00  0.00    -0.054 C 
ENDBRANCH   1  28
BRANCH  14  30
ATOM     30  C   UNL     1      49.194 -47.791 -48.585  0.00  0.00    +0.013 C 
ATOM     31  C   UNL     1      48.382 -47.151 -47.449  0.00  0.00    -0.049 C 
BRANCH  30  32
ATOM     32  N   UNL     1      48.347 -47.829 -49.801  0.00  0.00    -0.305 N 
ATOM     33  C   UNL     1      47.270 -48.799 -49.856  0.00  0.00    -0.013 C 
ATOM     34  C   UNL     1      47.895 -46.515 -50.248  0.00  0.00    -0.013 C 
ATOM     35  H   UNL     1      49.025 -48.190 -50.472  0.00  0.00    +0.000 HD
ENDBRANCH  30  32
ENDBRANCH  14  30
BRANCH  15  36
ATOM     36  O   UNL     1      50.795 -49.166 -50.498  0.00  0.00    -0.391 OA
ATOM     37  H   UNL     1      50.000 -49.362 -49.978  0.00  0.00    +0.000 HD
ENDBRANCH  15  36
TORSDOF 4
ENDMDL
MODEL 19
REMARK VINA RESULT:    -5.761     27.740     34.801
REMARK INTER + INTRA:          -7.670
REMARK INTER:                  -6.952
REMARK INTRA:                  -0.717
REMARK UNBOUND:                -0.730
REMARK  Name = cpd98.pdb
REMARK  12 active torsions:
REMARK  status: ('A' for Active; 'I' for Inactive)
REMARK    1  A    between atoms: C_1  and  C_2
REMARK    2  A    between atoms: C_2  and  C_3
REMARK    3  A    between atoms: C_2  and  C_4
REMARK    4  A    between atoms: C_15  and  C_16
REMARK    5  A    between atoms: C_17  and  C_18
REMARK    6  A    between atoms: C_18  and  C_19
REMARK    7  A    between atoms: C_18  and  N_20
REMARK    8  A    between atoms: N_20  and  C_21
REMARK    9  A    between atoms: N_20  and  C_22
REMARK   10  A    between atoms: C_23  and  O_24
REMARK   11  A    between atoms: C_26  and  C_27
REMARK   12  A    between atoms: C_32  and  C_33
REMARK                            x       y       z     vdW  Elec       q    Type
REMARK                         _______ _______ _______ _____ _____    ______ ____
ROOT
ATOM      1  C   UNL     1      49.671 -45.522 -48.152  0.00  0.00    +0.188 C 
ATOM      2  N   UNL     1      49.357 -46.761 -48.063  0.00  0.00    -0.250 NA
ATOM      3  C   UNL     1      50.349 -47.811 -48.322  0.00  0.00    +0.067 C 
ATOM      4  C   UNL     1      50.154 -48.931 -47.293  0.00  0.00    -0.011 C 
ATOM      5  C   UNL     1      51.120 -50.041 -47.573  0.00  0.00    -0.082 C 
ATOM      6  C   UNL     1      52.397 -49.768 -47.891  0.00  0.00    -0.069 C 
ATOM      7  C   UNL     1      53.396 -50.837 -48.251  0.00  0.00    -0.022 C 
ATOM      8  C   UNL     1      54.353 -51.161 -47.095  0.00  0.00    +0.025 C 
ATOM      9  C   UNL     1      55.240 -52.354 -47.447  0.00  0.00    +0.138 C 
ATOM     10  O   UNL     1      55.140 -52.954 -48.519  0.00  0.00    -0.297 OA
ATOM     11  C   UNL     1      56.220 -52.851 -46.393  0.00  0.00    +0.012 C 
ATOM     12  C   UNL     1      56.564 -51.796 -45.328  0.00  0.00    -0.013 C 
ATOM     13  C   UNL     1      55.530 -51.885 -44.179  0.00  0.00    -0.058 C 
ATOM     14  C   UNL     1      58.027 -51.891 -44.737  0.00  0.00    +0.007 C 
ATOM     15  C   UNL     1      58.343 -50.406 -44.328  0.00  0.00    +0.061 C 
ATOM     16  C   UNL     1      57.225 -49.523 -44.915  0.00  0.00    -0.020 C 
ATOM     17  C   UNL     1      56.591 -50.373 -46.027  0.00  0.00    -0.020 C 
ATOM     18  C   UNL     1      57.585 -50.296 -47.248  0.00  0.00    -0.059 C 
ATOM     19  C   UNL     1      55.194 -49.928 -46.620  0.00  0.00    -0.025 C 
ATOM     20  C   UNL     1      54.331 -49.005 -45.727  0.00  0.00    -0.048 C 
ATOM     21  C   UNL     1      53.414 -47.997 -46.456  0.00  0.00    -0.046 C 
ATOM     22  C   UNL     1      52.891 -48.338 -47.871  0.00  0.00    -0.009 C 
ATOM     23  C   UNL     1      51.819 -47.319 -48.452  0.00  0.00    +0.031 C 
ATOM     24  C   UNL     1      52.107 -47.159 -49.975  0.00  0.00    -0.054 C 
ATOM     25  C   UNL     1      51.929 -45.932 -47.816  0.00  0.00    +0.099 C 
ATOM     26  O   UNL     1      50.926 -45.049 -48.313  0.00  0.00    -0.479 OA
ENDROOT
BRANCH   1  28
ATOM     27  C   UNL     1      49.126 -43.169 -48.797  0.00  0.00    -0.054 C 
ATOM     28  C   UNL     1      48.655 -44.409 -48.045  0.00  0.00    +0.029 C 
ATOM     29  C   UNL     1      47.307 -44.898 -48.564  0.00  0.00    -0.054 C 
ENDBRANCH   1  28
BRANCH  14  30
ATOM     30  C   UNL     1      58.530 -52.941 -43.683  0.00  0.00    +0.013 C 
ATOM     31  C   UNL     1      58.273 -54.430 -43.963  0.00  0.00    -0.049 C 
BRANCH  30  32
ATOM     32  N   UNL     1      59.907 -52.797 -43.152  0.00  0.00    -0.305 N 
ATOM     33  C   UNL     1      60.152 -53.173 -41.772  0.00  0.00    -0.013 C 
ATOM     34  C   UNL     1      60.941 -53.331 -44.035  0.00  0.00    -0.013 C 
ATOM     35  H   UNL     1      59.979 -51.780 -43.136  0.00  0.00    +0.000 HD
ENDBRANCH  30  32
ENDBRANCH  14  30
BRANCH  15  36
ATOM     36  O   UNL     1      58.415 -50.197 -42.930  0.00  0.00    -0.391 OA
ATOM     37  H   UNL     1      57.751 -50.747 -42.486  0.00  0.00    +0.000 HD
ENDBRANCH  15  36
TORSDOF 4
ENDMDL
MODEL 20
REMARK VINA RESULT:    -5.730     17.876     19.931
REMARK INTER + INTRA:          -7.633
REMARK INTER:                  -6.907
REMARK INTRA:                  -0.727
REMARK UNBOUND:                -0.730
REMARK  Name = cpd98.pdb
REMARK  12 active torsions:
REMARK  status: ('A' for Active; 'I' for Inactive)
REMARK    1  A    between atoms: C_1  and  C_2
REMARK    2  A    between atoms: C_2  and  C_3
REMARK    3  A    between atoms: C_2  and  C_4
REMARK    4  A    between atoms: C_15  and  C_16
REMARK    5  A    between atoms: C_17  and  C_18
REMARK    6  A    between atoms: C_18  and  C_19
REMARK    7  A    between atoms: C_18  and  N_20
REMARK    8  A    between atoms: N_20  and  C_21
REMARK    9  A    between atoms: N_20  and  C_22
REMARK   10  A    between atoms: C_23  and  O_24
REMARK   11  A    between atoms: C_26  and  C_27
REMARK   12  A    between atoms: C_32  and  C_33
REMARK                            x       y       z     vdW  Elec       q    Type
REMARK                         _______ _______ _______ _____ _____    ______ ____
ROOT
ATOM      1  C   UNL     1      34.968 -35.310 -30.177  0.00  0.00    +0.188 C 
ATOM      2  N   UNL     1      34.274 -34.998 -29.147  0.00  0.00    -0.250 NA
ATOM      3  C   UNL     1      33.407 -33.812 -29.151  0.00  0.00    +0.067 C 
ATOM      4  C   UNL     1      32.099 -34.163 -28.432  0.00  0.00    -0.011 C 
ATOM      5  C   UNL     1      31.219 -32.952 -28.375  0.00  0.00    -0.082 C 
ATOM      6  C   UNL     1      31.091 -32.153 -29.448  0.00  0.00    -0.069 C 
ATOM      7  C   UNL     1      30.277 -30.885 -29.430  0.00  0.00    -0.022 C 
ATOM      8  C   UNL     1      28.909 -31.053 -30.104  0.00  0.00    +0.025 C 
ATOM      9  C   UNL     1      28.060 -29.796 -29.922  0.00  0.00    +0.138 C 
ATOM     10  O   UNL     1      28.460 -28.818 -29.289  0.00  0.00    -0.297 OA
ATOM     11  C   UNL     1      26.644 -29.803 -30.484  0.00  0.00    +0.012 C 
ATOM     12  C   UNL     1      26.430 -30.844 -31.595  0.00  0.00    -0.013 C 
ATOM     13  C   UNL     1      26.009 -32.188 -30.951  0.00  0.00    -0.058 C 
ATOM     14  C   UNL     1      25.381 -30.435 -32.705  0.00  0.00    +0.007 C 
ATOM     15  C   UNL     1      25.888 -31.211 -33.976  0.00  0.00    +0.061 C 
ATOM     16  C   UNL     1      27.278 -31.783 -33.638  0.00  0.00    -0.020 C 
ATOM     17  C   UNL     1      27.767 -30.955 -32.440  0.00  0.00    -0.020 C 
ATOM     18  C   UNL     1      28.245 -29.576 -33.036  0.00  0.00    -0.059 C 
ATOM     19  C   UNL     1      29.004 -31.481 -31.607  0.00  0.00    -0.025 C 
ATOM     20  C   UNL     1      29.310 -32.994 -31.713  0.00  0.00    -0.048 C 
ATOM     21  C   UNL     1      30.793 -33.411 -31.583  0.00  0.00    -0.046 C 
ATOM     22  C   UNL     1      31.756 -32.530 -30.754  0.00  0.00    -0.009 C 
ATOM     23  C   UNL     1      33.206 -33.142 -30.540  0.00  0.00    +0.031 C 
ATOM     24  C   UNL     1      34.224 -31.965 -30.621  0.00  0.00    -0.054 C 
ATOM     25  C   UNL     1      33.581 -34.149 -31.629  0.00  0.00    +0.099 C 
ATOM     26  O   UNL     1      34.864 -34.724 -31.390  0.00  0.00    -0.479 OA
ENDROOT
BRANCH   1  28
ATOM     27  C   UNL     1      37.313 -35.952 -30.757  0.00  0.00    -0.054 C 
ATOM     28  C   UNL     1      35.987 -36.425 -30.172  0.00  0.00    +0.029 C 
ATOM     29  C   UNL     1      36.159 -36.952 -28.752  0.00  0.00    -0.054 C 
ENDBRANCH   1  28
BRANCH  14  30
ATOM     30  C   UNL     1      23.819 -30.456 -32.553  0.00  0.00    +0.013 C 
ATOM     31  C   UNL     1      23.196 -29.700 -31.369  0.00  0.00    -0.049 C 
BRANCH  30  32
ATOM     32  N   UNL     1      22.993 -30.201 -33.756  0.00  0.00    -0.305 N 
ATOM     33  C   UNL     1      21.659 -30.770 -33.805  0.00  0.00    -0.013 C 
ATOM     34  C   UNL     1      22.985 -28.805 -34.184  0.00  0.00    -0.013 C 
ATOM     35  H   UNL     1      23.510 -30.753 -34.440  0.00  0.00    +0.000 HD
ENDBRANCH  30  32
ENDBRANCH  14  30
BRANCH  15  36
ATOM     36  O   UNL     1      25.037 -32.266 -34.383  0.00  0.00    -0.391 OA
ATOM     37  H   UNL     1      24.967 -32.270 -35.351  0.00  0.00    +0.000 HD
ENDBRANCH  15  36
TORSDOF 4
ENDMDL
