MODEL 1
REMARK VINA RESULT:    -7.547      0.000      0.000
REMARK INTER + INTRA:         -14.725
REMARK INTER:                 -12.400
REMARK INTRA:                  -2.325
REMARK UNBOUND:                -2.325
REMARK  Name = cpd78.pdb
REMARK  14 active torsions:
REMARK  status: ('A' for Active; 'I' for Inactive)
REMARK    1  A    between atoms: C_1  and  O_2
REMARK    2  A    between atoms: O_2  and  C_3
REMARK    3  A    between atoms: C_5  and  C_6
REMARK    4  A    between atoms: N_8  and  C_9
REMARK    5  A    between atoms: C_9  and  C_10
REMARK    6  A    between atoms: C_10  and  C_11
REMARK    7  A    between atoms: C_11  and  C_12
REMARK    8  A    between atoms: C_12  and  C_13
REMARK    9  A    between atoms: N_15  and  N_16
REMARK   10  A    between atoms: N_16  and  C_17
REMARK   11  A    between atoms: C_32  and  O_33
REMARK   12  A    between atoms: O_33  and  C_34
REMARK   13  A    between atoms: C_35  and  O_36
REMARK   14  A    between atoms: O_36  and  C_37
REMARK                            x       y       z     vdW  Elec       q    Type
REMARK                         _______ _______ _______ _____ _____    ______ ____
ROOT
ATOM      1  C   UNL A   1      34.365 -32.457 -30.791  0.00  0.00    +0.025 C 
ENDROOT
BRANCH   1   2
ATOM      2  C   UNL A   1      34.658 -33.666 -31.658  0.00  0.00    +0.229 C 
ATOM      3  O   UNL A   1      33.813 -34.191 -32.380  0.00  0.00    -0.274 OA
ATOM      4  N   UNL A   1      35.960 -34.124 -31.558  0.00  0.00    -0.236 N 
ATOM      5  H   UNL A   1      36.688 -33.551 -31.225  0.00  0.00    +0.000 HD
BRANCH   4   6
ATOM      6  N   UNL A   1      36.187 -35.461 -31.962  0.00  0.00    -0.264 N 
ATOM      7  H   UNL A   1      35.770 -35.889 -32.745  0.00  0.00    +0.000 HD
BRANCH   6   8
ATOM      8  C   UNL A   1      37.103 -36.104 -31.076  0.00  0.00    +0.058 A 
ATOM      9  C   UNL A   1      36.654 -36.684 -29.873  0.00  0.00    -0.003 A 
ATOM     10  C   UNL A   1      37.601 -37.337 -29.082  0.00  0.00    +0.047 A 
ATOM     11  N   UNL A   1      38.896 -37.491 -29.449  0.00  0.00    -0.251 NA
ATOM     12  C   UNL A   1      39.316 -36.956 -30.603  0.00  0.00    +0.073 A 
ATOM     13  C   UNL A   1      40.650 -37.119 -30.959  0.00  0.00    -0.036 A 
ATOM     14  C   UNL A   1      41.175 -36.578 -32.135  0.00  0.00    -0.060 A 
ATOM     15  C   UNL A   1      40.353 -35.844 -32.977  0.00  0.00    -0.061 A 
ATOM     16  C   UNL A   1      39.012 -35.670 -32.640  0.00  0.00    -0.051 A 
ATOM     17  C   UNL A   1      38.466 -36.237 -31.461  0.00  0.00    +0.023 A 
ATOM     18  C   UNL A   1      37.233 -37.977 -27.768  0.00  0.00    -0.010 C 
ATOM     19  C   UNL A   1      35.939 -37.430 -27.178  0.00  0.00    -0.047 C 
ATOM     20  C   UNL A   1      34.848 -37.451 -28.236  0.00  0.00    -0.049 C 
ATOM     21  C   UNL A   1      35.220 -36.550 -29.414  0.00  0.00    -0.024 C 
ENDBRANCH   6   8
ENDBRANCH   4   6
ENDBRANCH   1   2
BRANCH   1  22
ATOM     22  C   UNL A   1      33.567 -32.859 -29.551  0.00  0.00    -0.043 C 
BRANCH  22  23
ATOM     23  C   UNL A   1      32.061 -32.873 -29.806  0.00  0.00    -0.037 C 
BRANCH  23  24
ATOM     24  C   UNL A   1      31.470 -34.232 -29.434  0.00  0.00    +0.012 C 
BRANCH  24  27
ATOM     25  C   UNL A   1      31.224 -36.474 -30.425  0.00  0.00    +0.244 C 
ATOM     26  O   UNL A   1      30.224 -36.740 -29.769  0.00  0.00    -0.270 OA
ATOM     27  N   UNL A   1      31.920 -35.289 -30.314  0.00  0.00    -0.311 N 
ATOM     28  H   UNL A   1      32.740 -35.160 -30.844  0.00  0.00    +0.000 HD
BRANCH  25  31
ATOM     29  C   UNL A   1      33.086 -39.433 -31.892  0.00  0.00    +0.166 A 
ATOM     30  C   UNL A   1      32.572 -38.531 -30.961  0.00  0.00    -0.004 A 
ATOM     31  C   UNL A   1      31.765 -37.466 -31.390  0.00  0.00    +0.044 A 
ATOM     32  C   UNL A   1      31.486 -37.284 -32.751  0.00  0.00    -0.004 A 
ATOM     33  C   UNL A   1      31.987 -38.180 -33.695  0.00  0.00    +0.166 A 
ATOM     34  C   UNL A   1      32.795 -39.244 -33.256  0.00  0.00    +0.204 A 
BRANCH  29  36
ATOM     35  C   UNL A   1      35.174 -40.247 -31.055  0.00  0.00    +0.079 C 
ATOM     36  O   UNL A   1      33.882 -40.508 -31.587  0.00  0.00    -0.491 OA
ENDBRANCH  29  36
BRANCH  33  37
ATOM     37  O   UNL A   1      31.762 -38.104 -35.045  0.00  0.00    -0.491 OA
ATOM     38  C   UNL A   1      30.435 -38.333 -35.502  0.00  0.00    +0.079 C 
ENDBRANCH  33  37
BRANCH  34  39
ATOM     39  O   UNL A   1      33.262 -40.160 -34.173  0.00  0.00    -0.488 OA
ATOM     40  C   UNL A   1      32.361 -41.265 -34.253  0.00  0.00    +0.079 C 
ENDBRANCH  34  39
ENDBRANCH  25  31
ENDBRANCH  24  27
ENDBRANCH  23  24
ENDBRANCH  22  23
ENDBRANCH   1  22
TORSDOF 11
ENDMDL
MODEL 2
REMARK VINA RESULT:    -7.505     16.873     20.243
REMARK INTER + INTRA:         -14.655
REMARK INTER:                 -13.403
REMARK INTRA:                  -1.252
REMARK UNBOUND:                -2.325
REMARK  Name = cpd78.pdb
REMARK  14 active torsions:
REMARK  status: ('A' for Active; 'I' for Inactive)
REMARK    1  A    between atoms: C_1  and  O_2
REMARK    2  A    between atoms: O_2  and  C_3
REMARK    3  A    between atoms: C_5  and  C_6
REMARK    4  A    between atoms: N_8  and  C_9
REMARK    5  A    between atoms: C_9  and  C_10
REMARK    6  A    between atoms: C_10  and  C_11
REMARK    7  A    between atoms: C_11  and  C_12
REMARK    8  A    between atoms: C_12  and  C_13
REMARK    9  A    between atoms: N_15  and  N_16
REMARK   10  A    between atoms: N_16  and  C_17
REMARK   11  A    between atoms: C_32  and  O_33
REMARK   12  A    between atoms: O_33  and  C_34
REMARK   13  A    between atoms: C_35  and  O_36
REMARK   14  A    between atoms: O_36  and  C_37
REMARK                            x       y       z     vdW  Elec       q    Type
REMARK                         _______ _______ _______ _____ _____    ______ ____
ROOT
ATOM      1  C   UNL A   1      46.062 -19.415 -34.798  0.00  0.00    +0.025 C 
ENDROOT
BRANCH   1   2
ATOM      2  C   UNL A   1      47.136 -19.276 -35.858  0.00  0.00    +0.229 C 
ATOM      3  O   UNL A   1      48.083 -18.499 -35.753  0.00  0.00    -0.274 OA
ATOM      4  N   UNL A   1      46.950 -20.100 -36.954  0.00  0.00    -0.236 N 
ATOM      5  H   UNL A   1      46.382 -20.903 -36.910  0.00  0.00    +0.000 HD
BRANCH   4   6
ATOM      6  N   UNL A   1      47.620 -19.724 -38.142  0.00  0.00    -0.264 N 
ATOM      7  H   UNL A   1      48.555 -19.417 -38.186  0.00  0.00    +0.000 HD
BRANCH   6   8
ATOM      8  C   UNL A   1      46.753 -19.851 -39.269  0.00  0.00    +0.058 A 
ATOM      9  C   UNL A   1      45.849 -18.822 -39.601  0.00  0.00    -0.003 A 
ATOM     10  C   UNL A   1      45.068 -18.998 -40.746  0.00  0.00    +0.047 A 
ATOM     11  N   UNL A   1      45.189 -20.066 -41.570  0.00  0.00    -0.251 NA
ATOM     12  C   UNL A   1      46.063 -21.033 -41.262  0.00  0.00    +0.073 A 
ATOM     13  C   UNL A   1      46.168 -22.124 -42.118  0.00  0.00    -0.036 A 
ATOM     14  C   UNL A   1      47.040 -23.185 -41.863  0.00  0.00    -0.060 A 
ATOM     15  C   UNL A   1      47.824 -23.167 -40.719  0.00  0.00    -0.061 A 
ATOM     16  C   UNL A   1      47.736 -22.082 -39.849  0.00  0.00    -0.051 A 
ATOM     17  C   UNL A   1      46.871 -20.990 -40.114  0.00  0.00    +0.023 A 
ATOM     18  C   UNL A   1      44.058 -17.969 -41.183  0.00  0.00    -0.010 C 
ATOM     19  C   UNL A   1      43.628 -17.036 -40.057  0.00  0.00    -0.047 C 
ATOM     20  C   UNL A   1      44.859 -16.479 -39.360  0.00  0.00    -0.049 C 
ATOM     21  C   UNL A   1      45.675 -17.605 -38.723  0.00  0.00    -0.024 C 
ENDBRANCH   6   8
ENDBRANCH   4   6
ENDBRANCH   1   2
BRANCH   1  22
ATOM     22  C   UNL A   1      45.193 -18.158 -34.737  0.00  0.00    -0.043 C 
BRANCH  22  23
ATOM     23  C   UNL A   1      45.252 -17.473 -33.373  0.00  0.00    -0.037 C 
BRANCH  23  24
ATOM     24  C   UNL A   1      43.864 -17.440 -32.734  0.00  0.00    +0.012 C 
BRANCH  24  27
ATOM     25  C   UNL A   1      41.965 -18.817 -33.486  0.00  0.00    +0.244 C 
ATOM     26  O   UNL A   1      41.364 -17.865 -33.968  0.00  0.00    -0.270 OA
ATOM     27  N   UNL A   1      43.177 -18.710 -32.838  0.00  0.00    -0.311 N 
ATOM     28  H   UNL A   1      43.584 -19.512 -32.439  0.00  0.00    +0.000 HD
BRANCH  25  31
ATOM     29  C   UNL A   1      40.756 -22.280 -32.524  0.00  0.00    +0.166 A 
ATOM     30  C   UNL A   1      41.289 -20.996 -32.421  0.00  0.00    -0.004 A 
ATOM     31  C   UNL A   1      41.378 -20.181 -33.559  0.00  0.00    +0.044 A 
ATOM     32  C   UNL A   1      40.956 -20.651 -34.809  0.00  0.00    -0.004 A 
ATOM     33  C   UNL A   1      40.415 -21.931 -34.931  0.00  0.00    +0.166 A 
ATOM     34  C   UNL A   1      40.330 -22.741 -33.784  0.00  0.00    +0.204 A 
BRANCH  29  36
ATOM     35  C   UNL A   1      41.779 -23.857 -31.046  0.00  0.00    +0.079 C 
ATOM     36  O   UNL A   1      40.620 -23.160 -31.481  0.00  0.00    -0.491 OA
ENDBRANCH  29  36
BRANCH  33  37
ATOM     37  O   UNL A   1      39.958 -22.481 -36.100  0.00  0.00    -0.491 OA
ATOM     38  C   UNL A   1      40.808 -22.403 -37.238  0.00  0.00    +0.079 C 
ENDBRANCH  33  37
BRANCH  34  39
ATOM     39  O   UNL A   1      39.759 -23.991 -33.882  0.00  0.00    -0.488 OA
ATOM     40  C   UNL A   1      38.365 -23.910 -33.588  0.00  0.00    +0.079 C 
ENDBRANCH  34  39
ENDBRANCH  25  31
ENDBRANCH  24  27
ENDBRANCH  23  24
ENDBRANCH  22  23
ENDBRANCH   1  22
TORSDOF 11
ENDMDL
MODEL 3
REMARK VINA RESULT:    -7.450      2.869      5.353
REMARK INTER + INTRA:         -14.566
REMARK INTER:                 -13.571
REMARK INTRA:                  -0.995
REMARK UNBOUND:                -2.325
REMARK  Name = cpd78.pdb
REMARK  14 active torsions:
REMARK  status: ('A' for Active; 'I' for Inactive)
REMARK    1  A    between atoms: C_1  and  O_2
REMARK    2  A    between atoms: O_2  and  C_3
REMARK    3  A    between atoms: C_5  and  C_6
REMARK    4  A    between atoms: N_8  and  C_9
REMARK    5  A    between atoms: C_9  and  C_10
REMARK    6  A    between atoms: C_10  and  C_11
REMARK    7  A    between atoms: C_11  and  C_12
REMARK    8  A    between atoms: C_12  and  C_13
REMARK    9  A    between atoms: N_15  and  N_16
REMARK   10  A    between atoms: N_16  and  C_17
REMARK   11  A    between atoms: C_32  and  O_33
REMARK   12  A    between atoms: O_33  and  C_34
REMARK   13  A    between atoms: C_35  and  O_36
REMARK   14  A    between atoms: O_36  and  C_37
REMARK                            x       y       z     vdW  Elec       q    Type
REMARK                         _______ _______ _______ _____ _____    ______ ____
ROOT
ATOM      1  C   UNL A   1      36.165 -40.929 -29.550  0.00  0.00    +0.025 C 
ENDROOT
BRANCH   1   2
ATOM      2  C   UNL A   1      36.475 -39.761 -28.636  0.00  0.00    +0.229 C 
ATOM      3  O   UNL A   1      35.743 -39.426 -27.707  0.00  0.00    -0.274 OA
ATOM      4  N   UNL A   1      37.654 -39.105 -28.946  0.00  0.00    -0.236 N 
ATOM      5  H   UNL A   1      38.362 -39.534 -29.477  0.00  0.00    +0.000 HD
BRANCH   4   6
ATOM      6  N   UNL A   1      37.784 -37.784 -28.455  0.00  0.00    -0.264 N 
ATOM      7  H   UNL A   1      37.910 -37.548 -27.508  0.00  0.00    +0.000 HD
BRANCH   6   8
ATOM      8  C   UNL A   1      37.706 -36.842 -29.525  0.00  0.00    +0.058 A 
ATOM      9  C   UNL A   1      36.567 -36.028 -29.686  0.00  0.00    -0.003 A 
ATOM     10  C   UNL A   1      36.585 -35.097 -30.727  0.00  0.00    +0.047 A 
ATOM     11  N   UNL A   1      37.658 -34.902 -31.530  0.00  0.00    -0.251 NA
ATOM     12  C   UNL A   1      38.748 -35.664 -31.362  0.00  0.00    +0.073 A 
ATOM     13  C   UNL A   1      39.836 -35.452 -32.200  0.00  0.00    -0.036 A 
ATOM     14  C   UNL A   1      41.004 -36.213 -32.105  0.00  0.00    -0.060 A 
ATOM     15  C   UNL A   1      41.089 -37.222 -31.157  0.00  0.00    -0.061 A 
ATOM     16  C   UNL A   1      40.010 -37.449 -30.305  0.00  0.00    -0.051 A 
ATOM     17  C   UNL A   1      38.831 -36.664 -30.379  0.00  0.00    +0.023 A 
ATOM     18  C   UNL A   1      35.414 -34.189 -31.000  0.00  0.00    -0.010 C 
ATOM     19  C   UNL A   1      34.107 -34.706 -30.412  0.00  0.00    -0.047 C 
ATOM     20  C   UNL A   1      34.315 -35.072 -28.951  0.00  0.00    -0.049 C 
ATOM     21  C   UNL A   1      35.343 -36.196 -28.817  0.00  0.00    -0.024 C 
ENDBRANCH   6   8
ENDBRANCH   4   6
ENDBRANCH   1   2
BRANCH   1  22
ATOM     22  C   UNL A   1      35.189 -41.898 -28.882  0.00  0.00    -0.043 C 
BRANCH  22  23
ATOM     23  C   UNL A   1      33.797 -41.848 -29.507  0.00  0.00    -0.037 C 
BRANCH  23  24
ATOM     24  C   UNL A   1      33.752 -40.806 -30.624  0.00  0.00    +0.012 C 
BRANCH  24  27
ATOM     25  C   UNL A   1      34.341 -41.590 -32.884  0.00  0.00    +0.244 C 
ATOM     26  O   UNL A   1      35.517 -41.268 -32.775  0.00  0.00    -0.270 OA
ATOM     27  N   UNL A   1      33.395 -41.382 -31.903  0.00  0.00    -0.311 N 
ATOM     28  H   UNL A   1      32.458 -41.629 -32.075  0.00  0.00    +0.000 HD
BRANCH  25  31
ATOM     29  C   UNL A   1      33.262 -44.182 -35.433  0.00  0.00    +0.166 A 
ATOM     30  C   UNL A   1      33.695 -43.613 -34.235  0.00  0.00    -0.004 A 
ATOM     31  C   UNL A   1      33.857 -42.223 -34.138  0.00  0.00    +0.044 A 
ATOM     32  C   UNL A   1      33.609 -41.397 -35.242  0.00  0.00    -0.004 A 
ATOM     33  C   UNL A   1      33.171 -41.947 -36.446  0.00  0.00    +0.166 A 
ATOM     34  C   UNL A   1      33.012 -43.342 -36.534  0.00  0.00    +0.204 A 
BRANCH  29  36
ATOM     35  C   UNL A   1      34.192 -46.384 -35.506  0.00  0.00    +0.079 C 
ATOM     36  O   UNL A   1      33.069 -45.524 -35.639  0.00  0.00    -0.491 OA
ENDBRANCH  29  36
BRANCH  33  37
ATOM     37  O   UNL A   1      32.885 -41.230 -37.579  0.00  0.00    -0.491 OA
ATOM     38  C   UNL A   1      31.899 -40.210 -37.478  0.00  0.00    +0.079 C 
ENDBRANCH  33  37
BRANCH  34  39
ATOM     39  O   UNL A   1      32.539 -43.895 -37.704  0.00  0.00    -0.488 OA
ATOM     40  C   UNL A   1      31.114 -43.969 -37.662  0.00  0.00    +0.079 C 
ENDBRANCH  34  39
ENDBRANCH  25  31
ENDBRANCH  24  27
ENDBRANCH  23  24
ENDBRANCH  22  23
ENDBRANCH   1  22
TORSDOF 11
ENDMDL
MODEL 4
REMARK VINA RESULT:    -7.119      4.962      8.325
REMARK INTER + INTRA:         -14.022
REMARK INTER:                 -12.888
REMARK INTRA:                  -1.134
REMARK UNBOUND:                -2.325
REMARK  Name = cpd78.pdb
REMARK  14 active torsions:
REMARK  status: ('A' for Active; 'I' for Inactive)
REMARK    1  A    between atoms: C_1  and  O_2
REMARK    2  A    between atoms: O_2  and  C_3
REMARK    3  A    between atoms: C_5  and  C_6
REMARK    4  A    between atoms: N_8  and  C_9
REMARK    5  A    between atoms: C_9  and  C_10
REMARK    6  A    between atoms: C_10  and  C_11
REMARK    7  A    between atoms: C_11  and  C_12
REMARK    8  A    between atoms: C_12  and  C_13
REMARK    9  A    between atoms: N_15  and  N_16
REMARK   10  A    between atoms: N_16  and  C_17
REMARK   11  A    between atoms: C_32  and  O_33
REMARK   12  A    between atoms: O_33  and  C_34
REMARK   13  A    between atoms: C_35  and  O_36
REMARK   14  A    between atoms: O_36  and  C_37
REMARK                            x       y       z     vdW  Elec       q    Type
REMARK                         _______ _______ _______ _____ _____    ______ ____
ROOT
ATOM      1  C   UNL A   1      35.258 -40.611 -29.496  0.00  0.00    +0.025 C 
ENDROOT
BRANCH   1   2
ATOM      2  C   UNL A   1      35.901 -39.587 -28.582  0.00  0.00    +0.229 C 
ATOM      3  O   UNL A   1      35.400 -39.234 -27.516  0.00  0.00    -0.274 OA
ATOM      4  N   UNL A   1      37.099 -39.085 -29.059  0.00  0.00    -0.236 N 
ATOM      5  H   UNL A   1      37.630 -39.563 -29.736  0.00  0.00    +0.000 HD
BRANCH   4   6
ATOM      6  N   UNL A   1      37.519 -37.846 -28.518  0.00  0.00    -0.264 N 
ATOM      7  H   UNL A   1      37.740 -37.694 -27.570  0.00  0.00    +0.000 HD
BRANCH   6   8
ATOM      8  C   UNL A   1      37.578 -36.848 -29.537  0.00  0.00    +0.058 A 
ATOM      9  C   UNL A   1      36.508 -35.952 -29.729  0.00  0.00    -0.003 A 
ATOM     10  C   UNL A   1      36.660 -34.973 -30.714  0.00  0.00    +0.047 A 
ATOM     11  N   UNL A   1      37.797 -34.811 -31.431  0.00  0.00    -0.251 NA
ATOM     12  C   UNL A   1      38.821 -35.653 -31.232  0.00  0.00    +0.073 A 
ATOM     13  C   UNL A   1      39.977 -35.474 -31.983  0.00  0.00    -0.036 A 
ATOM     14  C   UNL A   1      41.083 -36.316 -31.852  0.00  0.00    -0.060 A 
ATOM     15  C   UNL A   1      41.036 -37.375 -30.957  0.00  0.00    -0.061 A 
ATOM     16  C   UNL A   1      39.887 -37.571 -30.193  0.00  0.00    -0.051 A 
ATOM     17  C   UNL A   1      38.769 -36.705 -30.303  0.00  0.00    +0.023 A 
ATOM     18  C   UNL A   1      35.572 -33.975 -31.014  0.00  0.00    -0.010 C 
ATOM     19  C   UNL A   1      34.196 -34.430 -30.544  0.00  0.00    -0.047 C 
ATOM     20  C   UNL A   1      34.276 -34.883 -29.095  0.00  0.00    -0.049 C 
ATOM     21  C   UNL A   1      35.217 -36.080 -28.955  0.00  0.00    -0.024 C 
ENDBRANCH   6   8
ENDBRANCH   4   6
ENDBRANCH   1   2
BRANCH   1  22
ATOM     22  C   UNL A   1      35.254 -41.994 -28.844  0.00  0.00    -0.043 C 
BRANCH  22  23
ATOM     23  C   UNL A   1      33.957 -42.278 -28.088  0.00  0.00    -0.037 C 
BRANCH  23  24
ATOM     24  C   UNL A   1      34.263 -42.786 -26.679  0.00  0.00    +0.012 C 
BRANCH  24  27
ATOM     25  C   UNL A   1      33.797 -42.112 -24.356  0.00  0.00    +0.244 C 
ATOM     26  O   UNL A   1      33.686 -43.266 -23.961  0.00  0.00    -0.270 OA
ATOM     27  N   UNL A   1      34.050 -41.772 -25.668  0.00  0.00    -0.311 N 
ATOM     28  H   UNL A   1      34.086 -40.822 -25.922  0.00  0.00    +0.000 HD
BRANCH  25  31
ATOM     29  C   UNL A   1      33.211 -38.642 -22.945  0.00  0.00    +0.166 A 
ATOM     30  C   UNL A   1      33.335 -39.688 -23.859  0.00  0.00    -0.004 A 
ATOM     31  C   UNL A   1      33.633 -40.982 -23.405  0.00  0.00    +0.044 A 
ATOM     32  C   UNL A   1      33.830 -41.233 -22.041  0.00  0.00    -0.004 A 
ATOM     33  C   UNL A   1      33.704 -40.200 -21.113  0.00  0.00    +0.166 A 
ATOM     34  C   UNL A   1      33.406 -38.906 -21.576  0.00  0.00    +0.204 A 
BRANCH  29  36
ATOM     35  C   UNL A   1      31.732 -37.093 -24.011  0.00  0.00    +0.079 C 
ATOM     36  O   UNL A   1      32.922 -37.342 -23.275  0.00  0.00    -0.491 OA
ENDBRANCH  29  36
BRANCH  33  37
ATOM     37  O   UNL A   1      33.859 -40.340 -19.758  0.00  0.00    -0.491 OA
ATOM     38  C   UNL A   1      35.165 -40.631 -19.274  0.00  0.00    +0.079 C 
ENDBRANCH  33  37
BRANCH  34  39
ATOM     39  O   UNL A   1      33.237 -37.885 -20.667  0.00  0.00    -0.488 OA
ATOM     40  C   UNL A   1      31.880 -37.851 -20.225  0.00  0.00    +0.079 C 
ENDBRANCH  34  39
ENDBRANCH  25  31
ENDBRANCH  24  27
ENDBRANCH  23  24
ENDBRANCH  22  23
ENDBRANCH   1  22
TORSDOF 11
ENDMDL
MODEL 5
REMARK VINA RESULT:    -6.978     17.196     20.710
REMARK INTER + INTRA:         -13.790
REMARK INTER:                 -10.831
REMARK INTRA:                  -2.958
REMARK UNBOUND:                -2.325
REMARK  Name = cpd78.pdb
REMARK  14 active torsions:
REMARK  status: ('A' for Active; 'I' for Inactive)
REMARK    1  A    between atoms: C_1  and  O_2
REMARK    2  A    between atoms: O_2  and  C_3
REMARK    3  A    between atoms: C_5  and  C_6
REMARK    4  A    between atoms: N_8  and  C_9
REMARK    5  A    between atoms: C_9  and  C_10
REMARK    6  A    between atoms: C_10  and  C_11
REMARK    7  A    between atoms: C_11  and  C_12
REMARK    8  A    between atoms: C_12  and  C_13
REMARK    9  A    between atoms: N_15  and  N_16
REMARK   10  A    between atoms: N_16  and  C_17
REMARK   11  A    between atoms: C_32  and  O_33
REMARK   12  A    between atoms: O_33  and  C_34
REMARK   13  A    between atoms: C_35  and  O_36
REMARK   14  A    between atoms: O_36  and  C_37
REMARK                            x       y       z     vdW  Elec       q    Type
REMARK                         _______ _______ _______ _____ _____    ______ ____
ROOT
ATOM      1  C   UNL A   1      44.084 -16.578 -34.844  0.00  0.00    +0.025 C 
ENDROOT
BRANCH   1   2
ATOM      2  C   UNL A   1      43.038 -17.153 -35.778  0.00  0.00    +0.229 C 
ATOM      3  O   UNL A   1      42.722 -16.618 -36.839  0.00  0.00    -0.274 OA
ATOM      4  N   UNL A   1      42.471 -18.331 -35.325  0.00  0.00    -0.236 N 
ATOM      5  H   UNL A   1      42.914 -18.896 -34.651  0.00  0.00    +0.000 HD
BRANCH   4   6
ATOM      6  N   UNL A   1      41.217 -18.678 -35.884  0.00  0.00    -0.264 N 
ATOM      7  H   UNL A   1      40.504 -18.036 -36.104  0.00  0.00    +0.000 HD
BRANCH   6   8
ATOM      8  C   UNL A   1      41.131 -20.089 -36.082  0.00  0.00    +0.058 A 
ATOM      9  C   UNL A   1      40.684 -20.936 -35.048  0.00  0.00    -0.003 A 
ATOM     10  C   UNL A   1      40.581 -22.299 -35.334  0.00  0.00    +0.047 A 
ATOM     11  N   UNL A   1      40.823 -22.821 -36.560  0.00  0.00    -0.251 NA
ATOM     12  C   UNL A   1      41.229 -22.011 -37.547  0.00  0.00    +0.073 A 
ATOM     13  C   UNL A   1      41.479 -22.568 -38.796  0.00  0.00    -0.036 A 
ATOM     14  C   UNL A   1      41.922 -21.799 -39.874  0.00  0.00    -0.060 A 
ATOM     15  C   UNL A   1      42.135 -20.439 -39.704  0.00  0.00    -0.061 A 
ATOM     16  C   UNL A   1      41.887 -19.860 -38.461  0.00  0.00    -0.051 A 
ATOM     17  C   UNL A   1      41.414 -20.630 -37.368  0.00  0.00    +0.023 A 
ATOM     18  C   UNL A   1      40.130 -23.295 -34.297  0.00  0.00    -0.010 C 
ATOM     19  C   UNL A   1      40.291 -22.787 -32.870  0.00  0.00    -0.047 C 
ATOM     20  C   UNL A   1      39.674 -21.403 -32.748  0.00  0.00    -0.049 C 
ATOM     21  C   UNL A   1      40.393 -20.410 -33.663  0.00  0.00    -0.024 C 
ENDBRANCH   6   8
ENDBRANCH   4   6
ENDBRANCH   1   2
BRANCH   1  22
ATOM     22  C   UNL A   1      45.487 -16.757 -35.425  0.00  0.00    -0.043 C 
BRANCH  22  23
ATOM     23  C   UNL A   1      46.423 -17.496 -34.470  0.00  0.00    -0.037 C 
BRANCH  23  24
ATOM     24  C   UNL A   1      46.539 -18.966 -34.870  0.00  0.00    +0.012 C 
BRANCH  24  27
ATOM     25  C   UNL A   1      45.502 -19.879 -36.909  0.00  0.00    +0.244 C 
ATOM     26  O   UNL A   1      44.610 -20.452 -36.293  0.00  0.00    -0.270 OA
ATOM     27  N   UNL A   1      46.505 -19.153 -36.305  0.00  0.00    -0.311 N 
ATOM     28  H   UNL A   1      47.213 -18.753 -36.860  0.00  0.00    +0.000 HD
BRANCH  25  31
ATOM     29  C   UNL A   1      45.752 -21.254 -40.434  0.00  0.00    +0.166 A 
ATOM     30  C   UNL A   1      45.680 -21.204 -39.042  0.00  0.00    -0.004 A 
ATOM     31  C   UNL A   1      45.555 -19.967 -38.391  0.00  0.00    +0.044 A 
ATOM     32  C   UNL A   1      45.523 -18.774 -39.125  0.00  0.00    -0.004 A 
ATOM     33  C   UNL A   1      45.589 -18.806 -40.517  0.00  0.00    +0.166 A 
ATOM     34  C   UNL A   1      45.715 -20.050 -41.161  0.00  0.00    +0.204 A 
BRANCH  29  36
ATOM     35  C   UNL A   1      47.139 -23.051 -41.187  0.00  0.00    +0.079 C 
ATOM     36  O   UNL A   1      45.874 -22.404 -41.172  0.00  0.00    -0.491 OA
ENDBRANCH  29  36
BRANCH  33  37
ATOM     37  O   UNL A   1      45.550 -17.702 -41.330  0.00  0.00    -0.491 OA
ATOM     38  C   UNL A   1      45.427 -16.431 -40.703  0.00  0.00    +0.079 C 
ENDBRANCH  33  37
BRANCH  34  39
ATOM     39  O   UNL A   1      45.738 -20.099 -42.538  0.00  0.00    -0.488 OA
ATOM     40  C   UNL A   1      44.403 -20.143 -43.042  0.00  0.00    +0.079 C 
ENDBRANCH  34  39
ENDBRANCH  25  31
ENDBRANCH  24  27
ENDBRANCH  23  24
ENDBRANCH  22  23
ENDBRANCH   1  22
TORSDOF 11
ENDMDL
MODEL 6
REMARK VINA RESULT:    -6.910     16.281     19.686
REMARK INTER + INTRA:         -13.678
REMARK INTER:                 -13.232
REMARK INTRA:                  -0.446
REMARK UNBOUND:                -2.325
REMARK  Name = cpd78.pdb
REMARK  14 active torsions:
REMARK  status: ('A' for Active; 'I' for Inactive)
REMARK    1  A    between atoms: C_1  and  O_2
REMARK    2  A    between atoms: O_2  and  C_3
REMARK    3  A    between atoms: C_5  and  C_6
REMARK    4  A    between atoms: N_8  and  C_9
REMARK    5  A    between atoms: C_9  and  C_10
REMARK    6  A    between atoms: C_10  and  C_11
REMARK    7  A    between atoms: C_11  and  C_12
REMARK    8  A    between atoms: C_12  and  C_13
REMARK    9  A    between atoms: N_15  and  N_16
REMARK   10  A    between atoms: N_16  and  C_17
REMARK   11  A    between atoms: C_32  and  O_33
REMARK   12  A    between atoms: O_33  and  C_34
REMARK   13  A    between atoms: C_35  and  O_36
REMARK   14  A    between atoms: O_36  and  C_37
REMARK                            x       y       z     vdW  Elec       q    Type
REMARK                         _______ _______ _______ _____ _____    ______ ____
ROOT
ATOM      1  C   UNL A   1      45.925 -18.969 -34.771  0.00  0.00    +0.025 C 
ENDROOT
BRANCH   1   2
ATOM      2  C   UNL A   1      46.887 -18.995 -35.941  0.00  0.00    +0.229 C 
ATOM      3  O   UNL A   1      47.782 -18.166 -36.091  0.00  0.00    -0.274 OA
ATOM      4  N   UNL A   1      46.661 -20.034 -36.827  0.00  0.00    -0.236 N 
ATOM      5  H   UNL A   1      46.159 -20.840 -36.566  0.00  0.00    +0.000 HD
BRANCH   4   6
ATOM      6  N   UNL A   1      47.195 -19.876 -38.129  0.00  0.00    -0.264 N 
ATOM      7  H   UNL A   1      47.991 -19.340 -38.347  0.00  0.00    +0.000 HD
BRANCH   6   8
ATOM      8  C   UNL A   1      46.416 -20.600 -39.081  0.00  0.00    +0.058 A 
ATOM      9  C   UNL A   1      45.043 -20.329 -39.243  0.00  0.00    -0.003 A 
ATOM     10  C   UNL A   1      44.359 -21.045 -40.228  0.00  0.00    +0.047 A 
ATOM     11  N   UNL A   1      44.964 -21.923 -41.063  0.00  0.00    -0.251 NA
ATOM     12  C   UNL A   1      46.275 -22.163 -40.921  0.00  0.00    +0.073 A 
ATOM     13  C   UNL A   1      46.876 -23.072 -41.783  0.00  0.00    -0.036 A 
ATOM     14  C   UNL A   1      48.232 -23.395 -41.692  0.00  0.00    -0.060 A 
ATOM     15  C   UNL A   1      49.011 -22.806 -40.707  0.00  0.00    -0.061 A 
ATOM     16  C   UNL A   1      48.429 -21.890 -39.834  0.00  0.00    -0.051 A 
ATOM     17  C   UNL A   1      47.059 -21.539 -39.936  0.00  0.00    +0.023 A 
ATOM     18  C   UNL A   1      42.885 -20.847 -40.475  0.00  0.00    -0.010 C 
ATOM     19  C   UNL A   1      42.159 -20.226 -39.288  0.00  0.00    -0.047 C 
ATOM     20  C   UNL A   1      42.909 -18.989 -38.822  0.00  0.00    -0.049 C 
ATOM     21  C   UNL A   1      44.315 -19.357 -38.345  0.00  0.00    -0.024 C 
ENDBRANCH   6   8
ENDBRANCH   4   6
ENDBRANCH   1   2
BRANCH   1  22
ATOM     22  C   UNL A   1      45.725 -17.540 -34.264  0.00  0.00    -0.043 C 
BRANCH  22  23
ATOM     23  C   UNL A   1      44.856 -17.482 -33.010  0.00  0.00    -0.037 C 
BRANCH  23  24
ATOM     24  C   UNL A   1      43.391 -17.264 -33.386  0.00  0.00    +0.012 C 
BRANCH  24  27
ATOM     25  C   UNL A   1      41.424 -18.527 -32.609  0.00  0.00    +0.244 C 
ATOM     26  O   UNL A   1      40.969 -17.582 -31.977  0.00  0.00    -0.270 OA
ATOM     27  N   UNL A   1      42.612 -18.481 -33.307  0.00  0.00    -0.311 N 
ATOM     28  H   UNL A   1      42.938 -19.292 -33.759  0.00  0.00    +0.000 HD
BRANCH  25  31
ATOM     29  C   UNL A   1      40.676 -22.238 -32.820  0.00  0.00    +0.166 A 
ATOM     30  C   UNL A   1      41.385 -21.038 -32.777  0.00  0.00    -0.004 A 
ATOM     31  C   UNL A   1      40.698 -19.824 -32.633  0.00  0.00    +0.044 A 
ATOM     32  C   UNL A   1      39.300 -19.799 -32.554  0.00  0.00    -0.004 A 
ATOM     33  C   UNL A   1      38.575 -20.989 -32.591  0.00  0.00    +0.166 A 
ATOM     34  C   UNL A   1      39.272 -22.202 -32.735  0.00  0.00    +0.204 A 
BRANCH  29  36
ATOM     35  C   UNL A   1      41.793 -24.088 -31.795  0.00  0.00    +0.079 C 
ATOM     36  O   UNL A   1      41.242 -23.480 -32.956  0.00  0.00    -0.491 OA
ENDBRANCH  29  36
BRANCH  33  37
ATOM     37  O   UNL A   1      37.209 -21.079 -32.505  0.00  0.00    -0.491 OA
ATOM     38  C   UNL A   1      36.449 -19.976 -32.982  0.00  0.00    +0.079 C 
ENDBRANCH  33  37
BRANCH  34  39
ATOM     39  O   UNL A   1      38.571 -23.389 -32.730  0.00  0.00    -0.488 OA
ATOM     40  C   UNL A   1      38.313 -23.804 -34.071  0.00  0.00    +0.079 C 
ENDBRANCH  34  39
ENDBRANCH  25  31
ENDBRANCH  24  27
ENDBRANCH  23  24
ENDBRANCH  22  23
ENDBRANCH   1  22
TORSDOF 11
ENDMDL
MODEL 7
REMARK VINA RESULT:    -6.899      2.347      4.653
REMARK INTER + INTRA:         -13.660
REMARK INTER:                 -12.312
REMARK INTRA:                  -1.348
REMARK UNBOUND:                -2.325
REMARK  Name = cpd78.pdb
REMARK  14 active torsions:
REMARK  status: ('A' for Active; 'I' for Inactive)
REMARK    1  A    between atoms: C_1  and  O_2
REMARK    2  A    between atoms: O_2  and  C_3
REMARK    3  A    between atoms: C_5  and  C_6
REMARK    4  A    between atoms: N_8  and  C_9
REMARK    5  A    between atoms: C_9  and  C_10
REMARK    6  A    between atoms: C_10  and  C_11
REMARK    7  A    between atoms: C_11  and  C_12
REMARK    8  A    between atoms: C_12  and  C_13
REMARK    9  A    between atoms: N_15  and  N_16
REMARK   10  A    between atoms: N_16  and  C_17
REMARK   11  A    between atoms: C_32  and  O_33
REMARK   12  A    between atoms: O_33  and  C_34
REMARK   13  A    between atoms: C_35  and  O_36
REMARK   14  A    between atoms: O_36  and  C_37
REMARK                            x       y       z     vdW  Elec       q    Type
REMARK                         _______ _______ _______ _____ _____    ______ ____
ROOT
ATOM      1  C   UNL A   1      35.766 -40.972 -29.298  0.00  0.00    +0.025 C 
ENDROOT
BRANCH   1   2
ATOM      2  C   UNL A   1      36.238 -39.851 -28.395  0.00  0.00    +0.229 C 
ATOM      3  O   UNL A   1      35.584 -39.443 -27.437  0.00  0.00    -0.274 OA
ATOM      4  N   UNL A   1      37.469 -39.328 -28.749  0.00  0.00    -0.236 N 
ATOM      5  H   UNL A   1      38.105 -39.829 -29.309  0.00  0.00    +0.000 HD
BRANCH   4   6
ATOM      6  N   UNL A   1      37.763 -38.032 -28.262  0.00  0.00    -0.264 N 
ATOM      7  H   UNL A   1      37.943 -37.815 -27.318  0.00  0.00    +0.000 HD
BRANCH   6   8
ATOM      8  C   UNL A   1      37.763 -37.083 -29.328  0.00  0.00    +0.058 A 
ATOM      9  C   UNL A   1      36.651 -36.246 -29.547  0.00  0.00    -0.003 A 
ATOM     10  C   UNL A   1      36.745 -35.310 -30.579  0.00  0.00    +0.047 A 
ATOM     11  N   UNL A   1      37.864 -35.132 -31.321  0.00  0.00    -0.251 NA
ATOM     12  C   UNL A   1      38.928 -35.916 -31.098  0.00  0.00    +0.073 A 
ATOM     13  C   UNL A   1      40.065 -35.722 -31.874  0.00  0.00    -0.036 A 
ATOM     14  C   UNL A   1      41.210 -36.507 -31.719  0.00  0.00    -0.060 A 
ATOM     15  C   UNL A   1      41.222 -37.522 -30.774  0.00  0.00    -0.061 A 
ATOM     16  C   UNL A   1      40.094 -37.731 -29.984  0.00  0.00    -0.051 A 
ATOM     17  C   UNL A   1      38.936 -36.923 -30.118  0.00  0.00    +0.023 A 
ATOM     18  C   UNL A   1      35.609 -34.377 -30.910  0.00  0.00    -0.010 C 
ATOM     19  C   UNL A   1      34.261 -34.870 -30.398  0.00  0.00    -0.047 C 
ATOM     20  C   UNL A   1      34.381 -35.248 -28.930  0.00  0.00    -0.049 C 
ATOM     21  C   UNL A   1      35.378 -36.394 -28.748  0.00  0.00    -0.024 C 
ENDBRANCH   6   8
ENDBRANCH   4   6
ENDBRANCH   1   2
BRANCH   1  22
ATOM     22  C   UNL A   1      35.305 -40.424 -30.649  0.00  0.00    -0.043 C 
BRANCH  22  23
ATOM     23  C   UNL A   1      34.190 -39.389 -30.509  0.00  0.00    -0.037 C 
BRANCH  23  24
ATOM     24  C   UNL A   1      34.028 -38.602 -31.809  0.00  0.00    +0.012 C 
BRANCH  24  27
ATOM     25  C   UNL A   1      32.566 -38.769 -33.784  0.00  0.00    +0.244 C 
ATOM     26  O   UNL A   1      32.308 -37.572 -33.792  0.00  0.00    -0.270 OA
ATOM     27  N   UNL A   1      33.372 -39.373 -32.843  0.00  0.00    -0.311 N 
ATOM     28  H   UNL A   1      33.504 -40.348 -32.874  0.00  0.00    +0.000 HD
BRANCH  25  31
ATOM     29  C   UNL A   1      31.760 -41.835 -35.864  0.00  0.00    +0.166 A 
ATOM     30  C   UNL A   1      32.307 -41.026 -34.869  0.00  0.00    -0.004 A 
ATOM     31  C   UNL A   1      31.980 -39.662 -34.817  0.00  0.00    +0.044 A 
ATOM     32  C   UNL A   1      31.122 -39.097 -35.770  0.00  0.00    -0.004 A 
ATOM     33  C   UNL A   1      30.562 -39.892 -36.769  0.00  0.00    +0.166 A 
ATOM     34  C   UNL A   1      30.896 -41.257 -36.814  0.00  0.00    +0.204 A 
BRANCH  29  36
ATOM     35  C   UNL A   1      33.362 -43.590 -36.138  0.00  0.00    +0.079 C 
ATOM     36  O   UNL A   1      32.008 -43.176 -36.010  0.00  0.00    -0.491 OA
ENDBRANCH  29  36
BRANCH  33  37
ATOM     37  O   UNL A   1      29.701 -39.444 -37.737  0.00  0.00    -0.491 OA
ATOM     38  C   UNL A   1      30.161 -38.406 -38.593  0.00  0.00    +0.079 C 
ENDBRANCH  33  37
BRANCH  34  39
ATOM     39  O   UNL A   1      30.317 -42.063 -37.769  0.00  0.00    -0.488 OA
ATOM     40  C   UNL A   1      31.157 -42.128 -38.921  0.00  0.00    +0.079 C 
ENDBRANCH  34  39
ENDBRANCH  25  31
ENDBRANCH  24  27
ENDBRANCH  23  24
ENDBRANCH  22  23
ENDBRANCH   1  22
TORSDOF 11
ENDMDL
MODEL 8
REMARK VINA RESULT:    -6.822      1.053      3.795
REMARK INTER + INTRA:         -13.533
REMARK INTER:                 -11.520
REMARK INTRA:                  -2.013
REMARK UNBOUND:                -2.325
REMARK  Name = cpd78.pdb
REMARK  14 active torsions:
REMARK  status: ('A' for Active; 'I' for Inactive)
REMARK    1  A    between atoms: C_1  and  O_2
REMARK    2  A    between atoms: O_2  and  C_3
REMARK    3  A    between atoms: C_5  and  C_6
REMARK    4  A    between atoms: N_8  and  C_9
REMARK    5  A    between atoms: C_9  and  C_10
REMARK    6  A    between atoms: C_10  and  C_11
REMARK    7  A    between atoms: C_11  and  C_12
REMARK    8  A    between atoms: C_12  and  C_13
REMARK    9  A    between atoms: N_15  and  N_16
REMARK   10  A    between atoms: N_16  and  C_17
REMARK   11  A    between atoms: C_32  and  O_33
REMARK   12  A    between atoms: O_33  and  C_34
REMARK   13  A    between atoms: C_35  and  O_36
REMARK   14  A    between atoms: O_36  and  C_37
REMARK                            x       y       z     vdW  Elec       q    Type
REMARK                         _______ _______ _______ _____ _____    ______ ____
ROOT
ATOM      1  C   UNL A   1      34.251 -32.396 -30.325  0.00  0.00    +0.025 C 
ENDROOT
BRANCH   1   2
ATOM      2  C   UNL A   1      34.612 -33.476 -31.325  0.00  0.00    +0.229 C 
ATOM      3  O   UNL A   1      33.827 -33.889 -32.176  0.00  0.00    -0.274 OA
ATOM      4  N   UNL A   1      35.902 -33.956 -31.188  0.00  0.00    -0.236 N 
ATOM      5  H   UNL A   1      36.602 -33.441 -30.723  0.00  0.00    +0.000 HD
BRANCH   4   6
ATOM      6  N   UNL A   1      36.162 -35.227 -31.753  0.00  0.00    -0.264 N 
ATOM      7  H   UNL A   1      35.874 -35.511 -32.651  0.00  0.00    +0.000 HD
BRANCH   6   8
ATOM      8  C   UNL A   1      36.899 -36.041 -30.841  0.00  0.00    +0.058 A 
ATOM      9  C   UNL A   1      38.296 -36.174 -30.962  0.00  0.00    -0.003 A 
ATOM     10  C   UNL A   1      38.953 -36.949 -30.002  0.00  0.00    +0.047 A 
ATOM     11  N   UNL A   1      38.323 -37.511 -28.944  0.00  0.00    -0.251 NA
ATOM     12  C   UNL A   1      36.996 -37.366 -28.820  0.00  0.00    +0.073 A 
ATOM     13  C   UNL A   1      36.367 -37.956 -27.730  0.00  0.00    -0.036 A 
ATOM     14  C   UNL A   1      34.987 -37.869 -27.535  0.00  0.00    -0.060 A 
ATOM     15  C   UNL A   1      34.206 -37.187 -28.456  0.00  0.00    -0.061 A 
ATOM     16  C   UNL A   1      34.817 -36.586 -29.554  0.00  0.00    -0.051 A 
ATOM     17  C   UNL A   1      36.221 -36.648 -29.746  0.00  0.00    +0.023 A 
ATOM     18  C   UNL A   1      40.443 -37.171 -30.046  0.00  0.00    -0.010 C 
ATOM     19  C   UNL A   1      41.043 -36.927 -31.425  0.00  0.00    -0.047 C 
ATOM     20  C   UNL A   1      40.574 -35.581 -31.954  0.00  0.00    -0.049 C 
ATOM     21  C   UNL A   1      39.054 -35.565 -32.118  0.00  0.00    -0.024 C 
ENDBRANCH   6   8
ENDBRANCH   4   6
ENDBRANCH   1   2
BRANCH   1  22
ATOM     22  C   UNL A   1      33.120 -32.861 -29.407  0.00  0.00    -0.043 C 
BRANCH  22  23
ATOM     23  C   UNL A   1      31.743 -32.440 -29.918  0.00  0.00    -0.037 C 
BRANCH  23  24
ATOM     24  C   UNL A   1      30.742 -33.584 -29.754  0.00  0.00    +0.012 C 
BRANCH  24  27
ATOM     25  C   UNL A   1      30.486 -35.082 -31.692  0.00  0.00    +0.244 C 
ATOM     26  O   UNL A   1      29.550 -34.447 -32.159  0.00  0.00    -0.270 OA
ATOM     27  N   UNL A   1      31.118 -34.759 -30.510  0.00  0.00    -0.311 N 
ATOM     28  H   UNL A   1      31.838 -35.340 -30.173  0.00  0.00    +0.000 HD
BRANCH  25  31
ATOM     29  C   UNL A   1      31.182 -37.661 -34.383  0.00  0.00    +0.166 A 
ATOM     30  C   UNL A   1      30.719 -36.505 -33.755  0.00  0.00    -0.004 A 
ATOM     31  C   UNL A   1      30.987 -36.292 -32.395  0.00  0.00    +0.044 A 
ATOM     32  C   UNL A   1      31.698 -37.242 -31.649  0.00  0.00    -0.004 A 
ATOM     33  C   UNL A   1      32.173 -38.401 -32.262  0.00  0.00    +0.166 A 
ATOM     34  C   UNL A   1      31.899 -38.606 -33.626  0.00  0.00    +0.204 A 
BRANCH  29  36
ATOM     35  C   UNL A   1      29.644 -37.987 -36.185  0.00  0.00    +0.079 C 
ATOM     36  O   UNL A   1      30.981 -37.971 -35.704  0.00  0.00    -0.491 OA
ENDBRANCH  29  36
BRANCH  33  37
ATOM     37  O   UNL A   1      32.891 -39.384 -31.631  0.00  0.00    -0.491 OA
ATOM     38  C   UNL A   1      34.307 -39.252 -31.611  0.00  0.00    +0.079 C 
ENDBRANCH  33  37
BRANCH  34  39
ATOM     39  O   UNL A   1      32.398 -39.727 -34.254  0.00  0.00    -0.488 OA
ATOM     40  C   UNL A   1      31.459 -40.797 -34.152  0.00  0.00    +0.079 C 
ENDBRANCH  34  39
ENDBRANCH  25  31
ENDBRANCH  24  27
ENDBRANCH  23  24
ENDBRANCH  22  23
ENDBRANCH   1  22
TORSDOF 11
ENDMDL
MODEL 9
REMARK VINA RESULT:    -6.628     15.844     19.429
REMARK INTER + INTRA:         -13.215
REMARK INTER:                 -10.689
REMARK INTRA:                  -2.526
REMARK UNBOUND:                -2.325
REMARK  Name = cpd78.pdb
REMARK  14 active torsions:
REMARK  status: ('A' for Active; 'I' for Inactive)
REMARK    1  A    between atoms: C_1  and  O_2
REMARK    2  A    between atoms: O_2  and  C_3
REMARK    3  A    between atoms: C_5  and  C_6
REMARK    4  A    between atoms: N_8  and  C_9
REMARK    5  A    between atoms: C_9  and  C_10
REMARK    6  A    between atoms: C_10  and  C_11
REMARK    7  A    between atoms: C_11  and  C_12
REMARK    8  A    between atoms: C_12  and  C_13
REMARK    9  A    between atoms: N_15  and  N_16
REMARK   10  A    between atoms: N_16  and  C_17
REMARK   11  A    between atoms: C_32  and  O_33
REMARK   12  A    between atoms: O_33  and  C_34
REMARK   13  A    between atoms: C_35  and  O_36
REMARK   14  A    between atoms: O_36  and  C_37
REMARK                            x       y       z     vdW  Elec       q    Type
REMARK                         _______ _______ _______ _____ _____    ______ ____
ROOT
ATOM      1  C   UNL A   1      44.126 -16.404 -36.177  0.00  0.00    +0.025 C 
ENDROOT
BRANCH   1   2
ATOM      2  C   UNL A   1      44.641 -17.823 -36.048  0.00  0.00    +0.229 C 
ATOM      3  O   UNL A   1      45.836 -18.095 -35.951  0.00  0.00    -0.274 OA
ATOM      4  N   UNL A   1      43.643 -18.782 -36.053  0.00  0.00    -0.236 N 
ATOM      5  H   UNL A   1      42.709 -18.561 -35.839  0.00  0.00    +0.000 HD
BRANCH   4   6
ATOM      6  N   UNL A   1      44.042 -20.100 -36.383  0.00  0.00    -0.264 N 
ATOM      7  H   UNL A   1      44.677 -20.641 -35.860  0.00  0.00    +0.000 HD
BRANCH   6   8
ATOM      8  C   UNL A   1      43.397 -20.534 -37.581  0.00  0.00    +0.058 A 
ATOM      9  C   UNL A   1      44.109 -20.610 -38.795  0.00  0.00    -0.003 A 
ATOM     10  C   UNL A   1      43.422 -21.089 -39.912  0.00  0.00    +0.047 A 
ATOM     11  N   UNL A   1      42.145 -21.538 -39.863  0.00  0.00    -0.251 NA
ATOM     12  C   UNL A   1      41.477 -21.483 -38.703  0.00  0.00    +0.073 A 
ATOM     13  C   UNL A   1      40.166 -21.943 -38.674  0.00  0.00    -0.036 A 
ATOM     14  C   UNL A   1      39.392 -21.904 -37.512  0.00  0.00    -0.060 A 
ATOM     15  C   UNL A   1      39.933 -21.384 -36.346  0.00  0.00    -0.061 A 
ATOM     16  C   UNL A   1      41.247 -20.920 -36.352  0.00  0.00    -0.051 A 
ATOM     17  C   UNL A   1      42.047 -20.978 -37.522  0.00  0.00    +0.023 A 
ATOM     18  C   UNL A   1      44.081 -21.196 -41.263  0.00  0.00    -0.010 C 
ATOM     19  C   UNL A   1      45.310 -20.307 -41.401  0.00  0.00    -0.047 C 
ATOM     20  C   UNL A   1      46.233 -20.524 -40.212  0.00  0.00    -0.049 C 
ATOM     21  C   UNL A   1      45.536 -20.129 -38.909  0.00  0.00    -0.024 C 
ENDBRANCH   6   8
ENDBRANCH   4   6
ENDBRANCH   1   2
BRANCH   1  22
ATOM     22  C   UNL A   1      44.082 -15.715 -34.813  0.00  0.00    -0.043 C 
BRANCH  22  23
ATOM     23  C   UNL A   1      42.678 -15.698 -34.213  0.00  0.00    -0.037 C 
BRANCH  23  24
ATOM     24  C   UNL A   1      42.670 -16.403 -32.856  0.00  0.00    +0.012 C 
BRANCH  24  27
ATOM     25  C   UNL A   1      42.290 -18.836 -32.815  0.00  0.00    +0.244 C 
ATOM     26  O   UNL A   1      43.484 -19.103 -32.861  0.00  0.00    -0.270 OA
ATOM     27  N   UNL A   1      41.790 -17.552 -32.836  0.00  0.00    -0.311 N 
ATOM     28  H   UNL A   1      40.815 -17.413 -32.837  0.00  0.00    +0.000 HD
BRANCH  25  31
ATOM     29  C   UNL A   1      40.716 -22.280 -32.607  0.00  0.00    +0.166 A 
ATOM     30  C   UNL A   1      41.679 -21.272 -32.636  0.00  0.00    -0.004 A 
ATOM     31  C   UNL A   1      41.285 -19.930 -32.756  0.00  0.00    +0.044 A 
ATOM     32  C   UNL A   1      39.931 -19.591 -32.870  0.00  0.00    -0.004 A 
ATOM     33  C   UNL A   1      38.954 -20.585 -32.838  0.00  0.00    +0.166 A 
ATOM     34  C   UNL A   1      39.358 -21.927 -32.718  0.00  0.00    +0.204 A 
BRANCH  29  36
ATOM     35  C   UNL A   1      41.669 -24.061 -31.327  0.00  0.00    +0.079 C 
ATOM     36  O   UNL A   1      40.985 -23.620 -32.492  0.00  0.00    -0.491 OA
ENDBRANCH  29  36
BRANCH  33  37
ATOM     37  O   UNL A   1      37.604 -20.361 -32.925  0.00  0.00    -0.491 OA
ATOM     38  C   UNL A   1      37.118 -19.736 -34.107  0.00  0.00    +0.079 C 
ENDBRANCH  33  37
BRANCH  34  39
ATOM     39  O   UNL A   1      38.401 -22.916 -32.642  0.00  0.00    -0.488 OA
ATOM     40  C   UNL A   1      38.217 -23.509 -33.927  0.00  0.00    +0.079 C 
ENDBRANCH  34  39
ENDBRANCH  25  31
ENDBRANCH  24  27
ENDBRANCH  23  24
ENDBRANCH  22  23
ENDBRANCH   1  22
TORSDOF 11
ENDMDL
MODEL 10
REMARK VINA RESULT:    -6.484     17.524     21.026
REMARK INTER + INTRA:         -12.979
REMARK INTER:                 -11.029
REMARK INTRA:                  -1.951
REMARK UNBOUND:                -2.325
REMARK  Name = cpd78.pdb
REMARK  14 active torsions:
REMARK  status: ('A' for Active; 'I' for Inactive)
REMARK    1  A    between atoms: C_1  and  O_2
REMARK    2  A    between atoms: O_2  and  C_3
REMARK    3  A    between atoms: C_5  and  C_6
REMARK    4  A    between atoms: N_8  and  C_9
REMARK    5  A    between atoms: C_9  and  C_10
REMARK    6  A    between atoms: C_10  and  C_11
REMARK    7  A    between atoms: C_11  and  C_12
REMARK    8  A    between atoms: C_12  and  C_13
REMARK    9  A    between atoms: N_15  and  N_16
REMARK   10  A    between atoms: N_16  and  C_17
REMARK   11  A    between atoms: C_32  and  O_33
REMARK   12  A    between atoms: O_33  and  C_34
REMARK   13  A    between atoms: C_35  and  O_36
REMARK   14  A    between atoms: O_36  and  C_37
REMARK                            x       y       z     vdW  Elec       q    Type
REMARK                         _______ _______ _______ _____ _____    ______ ____
ROOT
ATOM      1  C   UNL A   1      47.224 -16.000 -37.990  0.00  0.00    +0.025 C 
ENDROOT
BRANCH   1   2
ATOM      2  C   UNL A   1      46.561 -16.272 -39.324  0.00  0.00    +0.229 C 
ATOM      3  O   UNL A   1      45.783 -15.483 -39.858  0.00  0.00    -0.274 OA
ATOM      4  N   UNL A   1      46.907 -17.489 -39.884  0.00  0.00    -0.236 N 
ATOM      5  H   UNL A   1      47.724 -17.971 -39.617  0.00  0.00    +0.000 HD
BRANCH   4   6
ATOM      6  N   UNL A   1      46.023 -18.005 -40.862  0.00  0.00    -0.264 N 
ATOM      7  H   UNL A   1      45.743 -17.523 -41.674  0.00  0.00    +0.000 HD
BRANCH   6   8
ATOM      8  C   UNL A   1      45.594 -19.319 -40.507  0.00  0.00    +0.058 A 
ATOM      9  C   UNL A   1      44.346 -19.526 -39.886  0.00  0.00    -0.003 A 
ATOM     10  C   UNL A   1      43.975 -20.844 -39.614  0.00  0.00    +0.047 A 
ATOM     11  N   UNL A   1      44.720 -21.915 -39.975  0.00  0.00    -0.251 NA
ATOM     12  C   UNL A   1      45.898 -21.717 -40.583  0.00  0.00    +0.073 A 
ATOM     13  C   UNL A   1      46.651 -22.829 -40.941  0.00  0.00    -0.036 A 
ATOM     14  C   UNL A   1      47.897 -22.712 -41.561  0.00  0.00    -0.060 A 
ATOM     15  C   UNL A   1      48.415 -21.452 -41.824  0.00  0.00    -0.061 A 
ATOM     16  C   UNL A   1      47.675 -20.324 -41.477  0.00  0.00    -0.051 A 
ATOM     17  C   UNL A   1      46.399 -20.435 -40.869  0.00  0.00    +0.023 A 
ATOM     18  C   UNL A   1      42.670 -21.178 -38.937  0.00  0.00    -0.010 C 
ATOM     19  C   UNL A   1      42.080 -20.005 -38.164  0.00  0.00    -0.047 C 
ATOM     20  C   UNL A   1      42.051 -18.771 -39.053  0.00  0.00    -0.049 C 
ATOM     21  C   UNL A   1      43.468 -18.370 -39.465  0.00  0.00    -0.024 C 
ENDBRANCH   6   8
ENDBRANCH   4   6
ENDBRANCH   1   2
BRANCH   1  22
ATOM     22  C   UNL A   1      47.279 -17.271 -37.141  0.00  0.00    -0.043 C 
BRANCH  22  23
ATOM     23  C   UNL A   1      45.961 -17.548 -36.421  0.00  0.00    -0.037 C 
BRANCH  23  24
ATOM     24  C   UNL A   1      45.663 -19.047 -36.414  0.00  0.00    +0.012 C 
BRANCH  24  27
ATOM     25  C   UNL A   1      44.257 -19.568 -34.460  0.00  0.00    +0.244 C 
ATOM     26  O   UNL A   1      45.203 -19.567 -33.681  0.00  0.00    -0.270 OA
ATOM     27  N   UNL A   1      44.381 -19.353 -35.816  0.00  0.00    -0.311 N 
ATOM     28  H   UNL A   1      43.582 -19.408 -36.388  0.00  0.00    +0.000 HD
BRANCH  25  31
ATOM     29  C   UNL A   1      41.000 -19.289 -32.539  0.00  0.00    +0.166 A 
ATOM     30  C   UNL A   1      42.281 -19.000 -33.007  0.00  0.00    -0.004 A 
ATOM     31  C   UNL A   1      42.883 -19.835 -33.960  0.00  0.00    +0.044 A 
ATOM     32  C   UNL A   1      42.219 -20.974 -34.433  0.00  0.00    -0.004 A 
ATOM     33  C   UNL A   1      40.935 -21.276 -33.980  0.00  0.00    +0.166 A 
ATOM     34  C   UNL A   1      40.340 -20.433 -33.024  0.00  0.00    +0.204 A 
BRANCH  29  36
ATOM     35  C   UNL A   1      39.799 -17.286 -32.023  0.00  0.00    +0.079 C 
ATOM     36  O   UNL A   1      40.317 -18.544 -31.612  0.00  0.00    -0.491 OA
ENDBRANCH  29  36
BRANCH  33  37
ATOM     37  O   UNL A   1      40.192 -22.353 -34.389  0.00  0.00    -0.491 OA
ATOM     38  C   UNL A   1      40.227 -22.687 -35.770  0.00  0.00    +0.079 C 
ENDBRANCH  33  37
BRANCH  34  39
ATOM     39  O   UNL A   1      39.055 -20.695 -32.599  0.00  0.00    -0.488 OA
ATOM     40  C   UNL A   1      38.119 -20.170 -33.539  0.00  0.00    +0.079 C 
ENDBRANCH  34  39
ENDBRANCH  25  31
ENDBRANCH  24  27
ENDBRANCH  23  24
ENDBRANCH  22  23
ENDBRANCH   1  22
TORSDOF 11
ENDMDL
MODEL 11
REMARK VINA RESULT:    -6.394     16.125     20.052
REMARK INTER + INTRA:         -12.830
REMARK INTER:                  -9.890
REMARK INTRA:                  -2.939
REMARK UNBOUND:                -2.325
REMARK  Name = cpd78.pdb
REMARK  14 active torsions:
REMARK  status: ('A' for Active; 'I' for Inactive)
REMARK    1  A    between atoms: C_1  and  O_2
REMARK    2  A    between atoms: O_2  and  C_3
REMARK    3  A    between atoms: C_5  and  C_6
REMARK    4  A    between atoms: N_8  and  C_9
REMARK    5  A    between atoms: C_9  and  C_10
REMARK    6  A    between atoms: C_10  and  C_11
REMARK    7  A    between atoms: C_11  and  C_12
REMARK    8  A    between atoms: C_12  and  C_13
REMARK    9  A    between atoms: N_15  and  N_16
REMARK   10  A    between atoms: N_16  and  C_17
REMARK   11  A    between atoms: C_32  and  O_33
REMARK   12  A    between atoms: O_33  and  C_34
REMARK   13  A    between atoms: C_35  and  O_36
REMARK   14  A    between atoms: O_36  and  C_37
REMARK                            x       y       z     vdW  Elec       q    Type
REMARK                         _______ _______ _______ _____ _____    ______ ____
ROOT
ATOM      1  C   UNL A   1      40.081 -17.659 -32.806  0.00  0.00    +0.025 C 
ENDROOT
BRANCH   1   2
ATOM      2  C   UNL A   1      39.054 -17.918 -33.889  0.00  0.00    +0.229 C 
ATOM      3  O   UNL A   1      37.852 -17.709 -33.736  0.00  0.00    -0.274 OA
ATOM      4  N   UNL A   1      39.592 -18.415 -35.063  0.00  0.00    -0.236 N 
ATOM      5  H   UNL A   1      40.545 -18.307 -35.285  0.00  0.00    +0.000 HD
BRANCH   4   6
ATOM      6  N   UNL A   1      38.696 -19.087 -35.929  0.00  0.00    -0.264 N 
ATOM      7  H   UNL A   1      37.895 -18.681 -36.332  0.00  0.00    +0.000 HD
BRANCH   6   8
ATOM      8  C   UNL A   1      39.115 -20.436 -36.134  0.00  0.00    +0.058 A 
ATOM      9  C   UNL A   1      40.032 -20.758 -37.154  0.00  0.00    -0.003 A 
ATOM     10  C   UNL A   1      40.430 -22.093 -37.262  0.00  0.00    +0.047 A 
ATOM     11  N   UNL A   1      40.030 -23.059 -36.402  0.00  0.00    -0.251 NA
ATOM     12  C   UNL A   1      39.172 -22.746 -35.421  0.00  0.00    +0.073 A 
ATOM     13  C   UNL A   1      38.768 -23.753 -34.552  0.00  0.00    -0.036 A 
ATOM     14  C   UNL A   1      37.863 -23.518 -33.515  0.00  0.00    -0.060 A 
ATOM     15  C   UNL A   1      37.335 -22.248 -33.341  0.00  0.00    -0.061 A 
ATOM     16  C   UNL A   1      37.729 -21.223 -34.199  0.00  0.00    -0.051 A 
ATOM     17  C   UNL A   1      38.666 -21.448 -35.240  0.00  0.00    +0.023 A 
ATOM     18  C   UNL A   1      41.394 -22.550 -38.326  0.00  0.00    -0.010 C 
ATOM     19  C   UNL A   1      41.478 -21.592 -39.508  0.00  0.00    -0.047 C 
ATOM     20  C   UNL A   1      41.697 -20.175 -39.002  0.00  0.00    -0.049 C 
ATOM     21  C   UNL A   1      40.519 -19.722 -38.139  0.00  0.00    -0.024 C 
ENDBRANCH   6   8
ENDBRANCH   4   6
ENDBRANCH   1   2
BRANCH   1  22
ATOM     22  C   UNL A   1      41.309 -18.550 -32.997  0.00  0.00    -0.043 C 
BRANCH  22  23
ATOM     23  C   UNL A   1      41.011 -20.021 -32.716  0.00  0.00    -0.037 C 
BRANCH  23  24
ATOM     24  C   UNL A   1      42.017 -20.916 -33.439  0.00  0.00    +0.012 C 
BRANCH  24  27
ATOM     25  C   UNL A   1      43.894 -20.255 -34.892  0.00  0.00    +0.244 C 
ATOM     26  O   UNL A   1      44.744 -20.676 -34.117  0.00  0.00    -0.270 OA
ATOM     27  N   UNL A   1      42.539 -20.300 -34.641  0.00  0.00    -0.311 N 
ATOM     28  H   UNL A   1      41.914 -19.906 -35.291  0.00  0.00    +0.000 HD
BRANCH  25  31
ATOM     29  C   UNL A   1      44.411 -17.728 -37.671  0.00  0.00    +0.166 A 
ATOM     30  C   UNL A   1      44.036 -18.281 -36.447  0.00  0.00    -0.004 A 
ATOM     31  C   UNL A   1      44.303 -19.631 -36.177  0.00  0.00    +0.044 A 
ATOM     32  C   UNL A   1      44.926 -20.442 -37.136  0.00  0.00    -0.004 A 
ATOM     33  C   UNL A   1      45.312 -19.905 -38.363  0.00  0.00    +0.166 A 
ATOM     34  C   UNL A   1      45.040 -18.550 -38.625  0.00  0.00    +0.204 A 
BRANCH  29  36
ATOM     35  C   UNL A   1      44.816 -15.407 -37.261  0.00  0.00    +0.079 C 
ATOM     36  O   UNL A   1      44.201 -16.424 -38.041  0.00  0.00    -0.491 OA
ENDBRANCH  29  36
BRANCH  33  37
ATOM     37  O   UNL A   1      45.940 -20.603 -39.362  0.00  0.00    -0.491 OA
ATOM     38  C   UNL A   1      45.150 -21.500 -40.132  0.00  0.00    +0.079 C 
ENDBRANCH  33  37
BRANCH  34  39
ATOM     39  O   UNL A   1      45.454 -17.996 -39.817  0.00  0.00    -0.488 OA
ATOM     40  C   UNL A   1      46.797 -17.530 -39.692  0.00  0.00    +0.079 C 
ENDBRANCH  34  39
ENDBRANCH  25  31
ENDBRANCH  24  27
ENDBRANCH  23  24
ENDBRANCH  22  23
ENDBRANCH   1  22
TORSDOF 11
ENDMDL
MODEL 12
REMARK VINA RESULT:    -6.332     16.271     20.156
REMARK INTER + INTRA:         -12.728
REMARK INTER:                 -10.714
REMARK INTRA:                  -2.015
REMARK UNBOUND:                -2.325
REMARK  Name = cpd78.pdb
REMARK  14 active torsions:
REMARK  status: ('A' for Active; 'I' for Inactive)
REMARK    1  A    between atoms: C_1  and  O_2
REMARK    2  A    between atoms: O_2  and  C_3
REMARK    3  A    between atoms: C_5  and  C_6
REMARK    4  A    between atoms: N_8  and  C_9
REMARK    5  A    between atoms: C_9  and  C_10
REMARK    6  A    between atoms: C_10  and  C_11
REMARK    7  A    between atoms: C_11  and  C_12
REMARK    8  A    between atoms: C_12  and  C_13
REMARK    9  A    between atoms: N_15  and  N_16
REMARK   10  A    between atoms: N_16  and  C_17
REMARK   11  A    between atoms: C_32  and  O_33
REMARK   12  A    between atoms: O_33  and  C_34
REMARK   13  A    between atoms: C_35  and  O_36
REMARK   14  A    between atoms: O_36  and  C_37
REMARK                            x       y       z     vdW  Elec       q    Type
REMARK                         _______ _______ _______ _____ _____    ______ ____
ROOT
ATOM      1  C   UNL A   1      39.852 -22.994 -35.589  0.00  0.00    +0.025 C 
ENDROOT
BRANCH   1   2
ATOM      2  C   UNL A   1      40.477 -22.780 -34.225  0.00  0.00    +0.229 C 
ATOM      3  O   UNL A   1      40.241 -23.505 -33.260  0.00  0.00    -0.274 OA
ATOM      4  N   UNL A   1      41.333 -21.695 -34.166  0.00  0.00    -0.236 N 
ATOM      5  H   UNL A   1      41.739 -21.308 -34.975  0.00  0.00    +0.000 HD
BRANCH   4   6
ATOM      6  N   UNL A   1      41.593 -21.171 -32.877  0.00  0.00    -0.264 N 
ATOM      7  H   UNL A   1      41.954 -21.691 -32.122  0.00  0.00    +0.000 HD
BRANCH   6   8
ATOM      8  C   UNL A   1      41.259 -19.784 -32.822  0.00  0.00    +0.058 A 
ATOM      9  C   UNL A   1      42.259 -18.798 -32.934  0.00  0.00    -0.003 A 
ATOM     10  C   UNL A   1      41.849 -17.463 -32.920  0.00  0.00    +0.047 A 
ATOM     11  N   UNL A   1      40.549 -17.086 -32.871  0.00  0.00    -0.251 NA
ATOM     12  C   UNL A   1      39.598 -18.027 -32.784  0.00  0.00    +0.073 A 
ATOM     13  C   UNL A   1      38.270 -17.619 -32.728  0.00  0.00    -0.036 A 
ATOM     14  C   UNL A   1      37.219 -18.533 -32.619  0.00  0.00    -0.060 A 
ATOM     15  C   UNL A   1      37.495 -19.890 -32.551  0.00  0.00    -0.061 A 
ATOM     16  C   UNL A   1      38.819 -20.320 -32.608  0.00  0.00    -0.051 A 
ATOM     17  C   UNL A   1      39.891 -19.400 -32.744  0.00  0.00    +0.023 A 
ATOM     18  C   UNL A   1      42.835 -16.328 -33.016  0.00  0.00    -0.010 C 
ATOM     19  C   UNL A   1      44.252 -16.734 -32.629  0.00  0.00    -0.047 C 
ATOM     20  C   UNL A   1      44.644 -17.997 -33.380  0.00  0.00    -0.049 C 
ATOM     21  C   UNL A   1      43.725 -19.158 -32.998  0.00  0.00    -0.024 C 
ENDBRANCH   6   8
ENDBRANCH   4   6
ENDBRANCH   1   2
BRANCH   1  22
ATOM     22  C   UNL A   1      39.174 -21.715 -36.082  0.00  0.00    -0.043 C 
BRANCH  22  23
ATOM     23  C   UNL A   1      39.284 -21.542 -37.595  0.00  0.00    -0.037 C 
BRANCH  23  24
ATOM     24  C   UNL A   1      39.811 -20.148 -37.934  0.00  0.00    +0.012 C 
BRANCH  24  27
ATOM     25  C   UNL A   1      42.249 -20.097 -37.586  0.00  0.00    +0.244 C 
ATOM     26  O   UNL A   1      42.152 -19.948 -36.374  0.00  0.00    -0.270 OA
ATOM     27  N   UNL A   1      41.168 -20.178 -38.438  0.00  0.00    -0.311 N 
ATOM     28  H   UNL A   1      41.321 -20.257 -39.407  0.00  0.00    +0.000 HD
BRANCH  25  31
ATOM     29  C   UNL A   1      46.006 -20.045 -38.094  0.00  0.00    +0.166 A 
ATOM     30  C   UNL A   1      44.761 -19.989 -37.469  0.00  0.00    -0.004 A 
ATOM     31  C   UNL A   1      43.591 -20.177 -38.220  0.00  0.00    +0.044 A 
ATOM     32  C   UNL A   1      43.657 -20.400 -39.601  0.00  0.00    -0.004 A 
ATOM     33  C   UNL A   1      44.893 -20.465 -40.243  0.00  0.00    +0.166 A 
ATOM     34  C   UNL A   1      46.061 -20.275 -39.482  0.00  0.00    +0.204 A 
BRANCH  29  36
ATOM     35  C   UNL A   1      47.258 -18.998 -36.346  0.00  0.00    +0.079 C 
ATOM     36  O   UNL A   1      47.212 -19.878 -37.461  0.00  0.00    -0.491 OA
ENDBRANCH  29  36
BRANCH  33  37
ATOM     37  O   UNL A   1      45.071 -20.695 -41.583  0.00  0.00    -0.491 OA
ATOM     38  C   UNL A   1      44.241 -21.673 -42.196  0.00  0.00    +0.079 C 
ENDBRANCH  33  37
BRANCH  34  39
ATOM     39  O   UNL A   1      47.291 -20.379 -40.095  0.00  0.00    -0.488 OA
ATOM     40  C   UNL A   1      47.712 -21.743 -40.105  0.00  0.00    +0.079 C 
ENDBRANCH  34  39
ENDBRANCH  25  31
ENDBRANCH  24  27
ENDBRANCH  23  24
ENDBRANCH  22  23
ENDBRANCH   1  22
TORSDOF 11
ENDMDL
MODEL 13
REMARK VINA RESULT:    -6.321     18.892     22.139
REMARK INTER + INTRA:         -12.710
REMARK INTER:                  -9.272
REMARK INTRA:                  -3.437
REMARK UNBOUND:                -2.325
REMARK  Name = cpd78.pdb
REMARK  14 active torsions:
REMARK  status: ('A' for Active; 'I' for Inactive)
REMARK    1  A    between atoms: C_1  and  O_2
REMARK    2  A    between atoms: O_2  and  C_3
REMARK    3  A    between atoms: C_5  and  C_6
REMARK    4  A    between atoms: N_8  and  C_9
REMARK    5  A    between atoms: C_9  and  C_10
REMARK    6  A    between atoms: C_10  and  C_11
REMARK    7  A    between atoms: C_11  and  C_12
REMARK    8  A    between atoms: C_12  and  C_13
REMARK    9  A    between atoms: N_15  and  N_16
REMARK   10  A    between atoms: N_16  and  C_17
REMARK   11  A    between atoms: C_32  and  O_33
REMARK   12  A    between atoms: O_33  and  C_34
REMARK   13  A    between atoms: C_35  and  O_36
REMARK   14  A    between atoms: O_36  and  C_37
REMARK                            x       y       z     vdW  Elec       q    Type
REMARK                         _______ _______ _______ _____ _____    ______ ____
ROOT
ATOM      1  C   UNL A   1      43.657 -15.449 -41.696  0.00  0.00    +0.025 C 
ENDROOT
BRANCH   1   2
ATOM      2  C   UNL A   1      45.036 -15.661 -41.105  0.00  0.00    +0.229 C 
ATOM      3  O   UNL A   1      45.971 -14.884 -41.291  0.00  0.00    -0.274 OA
ATOM      4  N   UNL A   1      45.147 -16.810 -40.342  0.00  0.00    -0.236 N 
ATOM      5  H   UNL A   1      44.358 -17.259 -39.961  0.00  0.00    +0.000 HD
BRANCH   4   6
ATOM      6  N   UNL A   1      46.458 -17.304 -40.139  0.00  0.00    -0.264 N 
ATOM      7  H   UNL A   1      47.280 -16.858 -40.448  0.00  0.00    +0.000 HD
BRANCH   6   8
ATOM      8  C   UNL A   1      46.423 -18.541 -39.426  0.00  0.00    +0.058 A 
ATOM      9  C   UNL A   1      46.514 -18.564 -38.021  0.00  0.00    -0.003 A 
ATOM     10  C   UNL A   1      46.424 -19.807 -37.391  0.00  0.00    +0.047 A 
ATOM     11  N   UNL A   1      46.191 -20.962 -38.059  0.00  0.00    -0.251 NA
ATOM     12  C   UNL A   1      46.086 -20.935 -39.395  0.00  0.00    +0.073 A 
ATOM     13  C   UNL A   1      45.853 -22.132 -40.063  0.00  0.00    -0.036 A 
ATOM     14  C   UNL A   1      45.749 -22.196 -41.454  0.00  0.00    -0.060 A 
ATOM     15  C   UNL A   1      45.891 -21.039 -42.206  0.00  0.00    -0.061 A 
ATOM     16  C   UNL A   1      46.121 -19.828 -41.556  0.00  0.00    -0.051 A 
ATOM     17  C   UNL A   1      46.205 -19.751 -40.142  0.00  0.00    +0.023 A 
ATOM     18  C   UNL A   1      46.525 -19.949 -35.895  0.00  0.00    -0.010 C 
ATOM     19  C   UNL A   1      47.209 -18.762 -35.227  0.00  0.00    -0.047 C 
ATOM     20  C   UNL A   1      46.575 -17.469 -35.713  0.00  0.00    -0.049 C 
ATOM     21  C   UNL A   1      46.767 -17.307 -37.221  0.00  0.00    -0.024 C 
ENDBRANCH   6   8
ENDBRANCH   4   6
ENDBRANCH   1   2
BRANCH   1  22
ATOM     22  C   UNL A   1      43.048 -14.139 -41.197  0.00  0.00    -0.043 C 
BRANCH  22  23
ATOM     23  C   UNL A   1      41.606 -14.310 -40.722  0.00  0.00    -0.037 C 
BRANCH  23  24
ATOM     24  C   UNL A   1      41.563 -14.486 -39.204  0.00  0.00    +0.012 C 
BRANCH  24  27
ATOM     25  C   UNL A   1      42.740 -16.364 -38.129  0.00  0.00    +0.244 C 
ATOM     26  O   UNL A   1      43.729 -15.693 -37.860  0.00  0.00    -0.270 OA
ATOM     27  N   UNL A   1      41.644 -15.875 -38.807  0.00  0.00    -0.311 N 
ATOM     28  H   UNL A   1      40.901 -16.483 -39.025  0.00  0.00    +0.000 HD
BRANCH  25  31
ATOM     29  C   UNL A   1      42.628 -20.149 -38.321  0.00  0.00    +0.166 A 
ATOM     30  C   UNL A   1      42.702 -18.813 -38.712  0.00  0.00    -0.004 A 
ATOM     31  C   UNL A   1      42.688 -17.798 -37.743  0.00  0.00    +0.044 A 
ATOM     32  C   UNL A   1      42.577 -18.111 -36.382  0.00  0.00    -0.004 A 
ATOM     33  C   UNL A   1      42.507 -19.442 -35.972  0.00  0.00    +0.166 A 
ATOM     34  C   UNL A   1      42.522 -20.453 -36.950  0.00  0.00    +0.204 A 
BRANCH  29  36
ATOM     35  C   UNL A   1      41.603 -21.296 -40.153  0.00  0.00    +0.079 C 
ATOM     36  O   UNL A   1      42.635 -21.220 -39.179  0.00  0.00    -0.491 OA
ENDBRANCH  29  36
BRANCH  33  37
ATOM     37  O   UNL A   1      42.414 -19.858 -34.669  0.00  0.00    -0.491 OA
ATOM     38  C   UNL A   1      43.537 -19.631 -33.826  0.00  0.00    +0.079 C 
ENDBRANCH  33  37
BRANCH  34  39
ATOM     39  O   UNL A   1      42.496 -21.774 -36.558  0.00  0.00    -0.488 OA
ATOM     40  C   UNL A   1      41.145 -22.226 -36.472  0.00  0.00    +0.079 C 
ENDBRANCH  34  39
ENDBRANCH  25  31
ENDBRANCH  24  27
ENDBRANCH  23  24
ENDBRANCH  22  23
ENDBRANCH   1  22
TORSDOF 11
ENDMDL
MODEL 14
REMARK VINA RESULT:    -6.303     17.432     20.744
REMARK INTER + INTRA:         -12.680
REMARK INTER:                 -11.340
REMARK INTRA:                  -1.340
REMARK UNBOUND:                -2.325
REMARK  Name = cpd78.pdb
REMARK  14 active torsions:
REMARK  status: ('A' for Active; 'I' for Inactive)
REMARK    1  A    between atoms: C_1  and  O_2
REMARK    2  A    between atoms: O_2  and  C_3
REMARK    3  A    between atoms: C_5  and  C_6
REMARK    4  A    between atoms: N_8  and  C_9
REMARK    5  A    between atoms: C_9  and  C_10
REMARK    6  A    between atoms: C_10  and  C_11
REMARK    7  A    between atoms: C_11  and  C_12
REMARK    8  A    between atoms: C_12  and  C_13
REMARK    9  A    between atoms: N_15  and  N_16
REMARK   10  A    between atoms: N_16  and  C_17
REMARK   11  A    between atoms: C_32  and  O_33
REMARK   12  A    between atoms: O_33  and  C_34
REMARK   13  A    between atoms: C_35  and  O_36
REMARK   14  A    between atoms: O_36  and  C_37
REMARK                            x       y       z     vdW  Elec       q    Type
REMARK                         _______ _______ _______ _____ _____    ______ ____
ROOT
ATOM      1  C   UNL A   1      45.313 -21.545 -41.623  0.00  0.00    +0.025 C 
ENDROOT
BRANCH   1   2
ATOM      2  C   UNL A   1      46.500 -20.708 -41.194  0.00  0.00    +0.229 C 
ATOM      3  O   UNL A   1      47.610 -20.804 -41.714  0.00  0.00    -0.274 OA
ATOM      4  N   UNL A   1      46.221 -19.828 -40.162  0.00  0.00    -0.236 N 
ATOM      5  H   UNL A   1      45.301 -19.547 -39.954  0.00  0.00    +0.000 HD
BRANCH   4   6
ATOM      6  N   UNL A   1      47.332 -19.356 -39.423  0.00  0.00    -0.264 N 
ATOM      7  H   UNL A   1      48.257 -19.673 -39.537  0.00  0.00    +0.000 HD
BRANCH   6   8
ATOM      8  C   UNL A   1      46.925 -18.357 -38.488  0.00  0.00    +0.058 A 
ATOM      9  C   UNL A   1      46.518 -18.712 -37.187  0.00  0.00    -0.003 A 
ATOM     10  C   UNL A   1      46.180 -17.675 -36.314  0.00  0.00    +0.047 A 
ATOM     11  N   UNL A   1      46.289 -16.365 -36.640  0.00  0.00    -0.251 NA
ATOM     12  C   UNL A   1      46.695 -16.030 -37.872  0.00  0.00    +0.073 A 
ATOM     13  C   UNL A   1      46.795 -14.680 -38.190  0.00  0.00    -0.036 A 
ATOM     14  C   UNL A   1      47.192 -14.244 -39.455  0.00  0.00    -0.060 A 
ATOM     15  C   UNL A   1      47.489 -15.175 -40.439  0.00  0.00    -0.061 A 
ATOM     16  C   UNL A   1      47.398 -16.534 -40.141  0.00  0.00    -0.051 A 
ATOM     17  C   UNL A   1      47.019 -16.984 -38.851  0.00  0.00    +0.023 A 
ATOM     18  C   UNL A   1      45.716 -17.942 -34.906  0.00  0.00    -0.010 C 
ATOM     19  C   UNL A   1      45.187 -19.358 -34.709  0.00  0.00    -0.047 C 
ATOM     20  C   UNL A   1      46.190 -20.358 -35.260  0.00  0.00    -0.049 C 
ATOM     21  C   UNL A   1      46.383 -20.156 -36.764  0.00  0.00    -0.024 C 
ENDBRANCH   6   8
ENDBRANCH   4   6
ENDBRANCH   1   2
BRANCH   1  22
ATOM     22  C   UNL A   1      44.000 -20.880 -41.207  0.00  0.00    -0.043 C 
BRANCH  22  23
ATOM     23  C   UNL A   1      43.373 -21.543 -39.982  0.00  0.00    -0.037 C 
BRANCH  23  24
ATOM     24  C   UNL A   1      42.077 -20.831 -39.596  0.00  0.00    +0.012 C 
BRANCH  24  27
ATOM     25  C   UNL A   1      41.192 -22.007 -37.621  0.00  0.00    +0.244 C 
ATOM     26  O   UNL A   1      40.790 -22.963 -38.273  0.00  0.00    -0.270 OA
ATOM     27  N   UNL A   1      41.807 -20.906 -38.176  0.00  0.00    -0.311 N 
ATOM     28  H   UNL A   1      42.069 -20.155 -37.596  0.00  0.00    +0.000 HD
BRANCH  25  31
ATOM     29  C   UNL A   1      41.432 -21.007 -33.972  0.00  0.00    +0.166 A 
ATOM     30  C   UNL A   1      41.606 -20.992 -35.355  0.00  0.00    -0.004 A 
ATOM     31  C   UNL A   1      41.004 -21.982 -36.147  0.00  0.00    +0.044 A 
ATOM     32  C   UNL A   1      40.245 -23.003 -35.560  0.00  0.00    -0.004 A 
ATOM     33  C   UNL A   1      40.057 -23.030 -34.179  0.00  0.00    +0.166 A 
ATOM     34  C   UNL A   1      40.664 -22.034 -33.393  0.00  0.00    +0.204 A 
BRANCH  29  36
ATOM     35  C   UNL A   1      41.700 -18.716 -33.337  0.00  0.00    +0.079 C 
ATOM     36  O   UNL A   1      41.970 -20.092 -33.103  0.00  0.00    -0.491 OA
ENDBRANCH  29  36
BRANCH  33  37
ATOM     37  O   UNL A   1      39.321 -23.972 -33.507  0.00  0.00    -0.491 OA
ATOM     38  C   UNL A   1      37.924 -24.019 -33.764  0.00  0.00    +0.079 C 
ENDBRANCH  33  37
BRANCH  34  39
ATOM     39  O   UNL A   1      40.451 -22.025 -32.032  0.00  0.00    -0.488 OA
ATOM     40  C   UNL A   1      39.348 -21.174 -31.721  0.00  0.00    +0.079 C 
ENDBRANCH  34  39
ENDBRANCH  25  31
ENDBRANCH  24  27
ENDBRANCH  23  24
ENDBRANCH  22  23
ENDBRANCH   1  22
TORSDOF 11
ENDMDL
MODEL 15
REMARK VINA RESULT:    -6.237     17.819     21.535
REMARK INTER + INTRA:         -12.572
REMARK INTER:                 -10.225
REMARK INTRA:                  -2.347
REMARK UNBOUND:                -2.325
REMARK  Name = cpd78.pdb
REMARK  14 active torsions:
REMARK  status: ('A' for Active; 'I' for Inactive)
REMARK    1  A    between atoms: C_1  and  O_2
REMARK    2  A    between atoms: O_2  and  C_3
REMARK    3  A    between atoms: C_5  and  C_6
REMARK    4  A    between atoms: N_8  and  C_9
REMARK    5  A    between atoms: C_9  and  C_10
REMARK    6  A    between atoms: C_10  and  C_11
REMARK    7  A    between atoms: C_11  and  C_12
REMARK    8  A    between atoms: C_12  and  C_13
REMARK    9  A    between atoms: N_15  and  N_16
REMARK   10  A    between atoms: N_16  and  C_17
REMARK   11  A    between atoms: C_32  and  O_33
REMARK   12  A    between atoms: O_33  and  C_34
REMARK   13  A    between atoms: C_35  and  O_36
REMARK   14  A    between atoms: O_36  and  C_37
REMARK                            x       y       z     vdW  Elec       q    Type
REMARK                         _______ _______ _______ _____ _____    ______ ____
ROOT
ATOM      1  C   UNL A   1      47.262 -16.136 -37.706  0.00  0.00    +0.025 C 
ENDROOT
BRANCH   1   2
ATOM      2  C   UNL A   1      46.678 -16.308 -39.093  0.00  0.00    +0.229 C 
ATOM      3  O   UNL A   1      45.950 -15.470 -39.621  0.00  0.00    -0.274 OA
ATOM      4  N   UNL A   1      47.036 -17.496 -39.708  0.00  0.00    -0.236 N 
ATOM      5  H   UNL A   1      47.825 -18.011 -39.423  0.00  0.00    +0.000 HD
BRANCH   4   6
ATOM      6  N   UNL A   1      46.205 -17.928 -40.769  0.00  0.00    -0.264 N 
ATOM      7  H   UNL A   1      46.009 -17.401 -41.578  0.00  0.00    +0.000 HD
BRANCH   6   8
ATOM      8  C   UNL A   1      45.691 -19.232 -40.503  0.00  0.00    +0.058 A 
ATOM      9  C   UNL A   1      46.418 -20.382 -40.870  0.00  0.00    -0.003 A 
ATOM     10  C   UNL A   1      45.872 -21.622 -40.533  0.00  0.00    +0.047 A 
ATOM     11  N   UNL A   1      44.726 -21.761 -39.825  0.00  0.00    -0.251 NA
ATOM     12  C   UNL A   1      44.046 -20.666 -39.460  0.00  0.00    +0.073 A 
ATOM     13  C   UNL A   1      42.869 -20.830 -38.739  0.00  0.00    -0.036 A 
ATOM     14  C   UNL A   1      42.089 -19.744 -38.336  0.00  0.00    -0.060 A 
ATOM     15  C   UNL A   1      42.484 -18.456 -38.669  0.00  0.00    -0.061 A 
ATOM     16  C   UNL A   1      43.662 -18.269 -39.389  0.00  0.00    -0.051 A 
ATOM     17  C   UNL A   1      44.472 -19.366 -39.781  0.00  0.00    +0.023 A 
ATOM     18  C   UNL A   1      46.558 -22.915 -40.891  0.00  0.00    -0.010 C 
ATOM     19  C   UNL A   1      47.561 -22.765 -42.029  0.00  0.00    -0.047 C 
ATOM     20  C   UNL A   1      48.491 -21.598 -41.737  0.00  0.00    -0.049 C 
ATOM     21  C   UNL A   1      47.705 -20.289 -41.655  0.00  0.00    -0.024 C 
ENDBRANCH   6   8
ENDBRANCH   4   6
ENDBRANCH   1   2
BRANCH   1  22
ATOM     22  C   UNL A   1      46.668 -17.158 -36.735  0.00  0.00    -0.043 C 
BRANCH  22  23
ATOM     23  C   UNL A   1      47.729 -17.802 -35.845  0.00  0.00    -0.037 C 
BRANCH  23  24
ATOM     24  C   UNL A   1      47.095 -18.858 -34.940  0.00  0.00    +0.012 C 
BRANCH  24  27
ATOM     25  C   UNL A   1      44.906 -19.889 -34.476  0.00  0.00    +0.244 C 
ATOM     26  O   UNL A   1      45.395 -20.857 -33.906  0.00  0.00    -0.270 OA
ATOM     27  N   UNL A   1      45.651 -18.874 -35.038  0.00  0.00    -0.311 N 
ATOM     28  H   UNL A   1      45.192 -18.147 -35.517  0.00  0.00    +0.000 HD
BRANCH  25  31
ATOM     29  C   UNL A   1      41.407 -18.446 -34.706  0.00  0.00    +0.166 A 
ATOM     30  C   UNL A   1      42.796 -18.522 -34.601  0.00  0.00    -0.004 A 
ATOM     31  C   UNL A   1      43.431 -19.773 -34.611  0.00  0.00    +0.044 A 
ATOM     32  C   UNL A   1      42.682 -20.954 -34.705  0.00  0.00    -0.004 A 
ATOM     33  C   UNL A   1      41.293 -20.896 -34.816  0.00  0.00    +0.166 A 
ATOM     34  C   UNL A   1      40.665 -19.638 -34.804  0.00  0.00    +0.204 A 
BRANCH  29  36
ATOM     35  C   UNL A   1      41.235 -16.156 -34.038  0.00  0.00    +0.079 C 
ATOM     36  O   UNL A   1      40.683 -17.281 -34.708  0.00  0.00    -0.491 OA
ENDBRANCH  29  36
BRANCH  33  37
ATOM     37  O   UNL A   1      40.470 -21.986 -34.928  0.00  0.00    -0.491 OA
ATOM     38  C   UNL A   1      40.414 -22.883 -33.826  0.00  0.00    +0.079 C 
ENDBRANCH  33  37
BRANCH  34  39
ATOM     39  O   UNL A   1      39.298 -19.564 -34.956  0.00  0.00    -0.488 OA
ATOM     40  C   UNL A   1      38.670 -19.546 -33.674  0.00  0.00    +0.079 C 
ENDBRANCH  34  39
ENDBRANCH  25  31
ENDBRANCH  24  27
ENDBRANCH  23  24
ENDBRANCH  22  23
ENDBRANCH   1  22
TORSDOF 11
ENDMDL
MODEL 16
REMARK VINA RESULT:    -6.220     17.380     21.203
REMARK INTER + INTRA:         -12.544
REMARK INTER:                  -9.530
REMARK INTRA:                  -3.014
REMARK UNBOUND:                -2.325
REMARK  Name = cpd78.pdb
REMARK  14 active torsions:
REMARK  status: ('A' for Active; 'I' for Inactive)
REMARK    1  A    between atoms: C_1  and  O_2
REMARK    2  A    between atoms: O_2  and  C_3
REMARK    3  A    between atoms: C_5  and  C_6
REMARK    4  A    between atoms: N_8  and  C_9
REMARK    5  A    between atoms: C_9  and  C_10
REMARK    6  A    between atoms: C_10  and  C_11
REMARK    7  A    between atoms: C_11  and  C_12
REMARK    8  A    between atoms: C_12  and  C_13
REMARK    9  A    between atoms: N_15  and  N_16
REMARK   10  A    between atoms: N_16  and  C_17
REMARK   11  A    between atoms: C_32  and  O_33
REMARK   12  A    between atoms: O_33  and  C_34
REMARK   13  A    between atoms: C_35  and  O_36
REMARK   14  A    between atoms: O_36  and  C_37
REMARK                            x       y       z     vdW  Elec       q    Type
REMARK                         _______ _______ _______ _____ _____    ______ ____
ROOT
ATOM      1  C   UNL A   1      46.784 -17.002 -36.946  0.00  0.00    +0.025 C 
ENDROOT
BRANCH   1   2
ATOM      2  C   UNL A   1      46.116 -17.125 -38.300  0.00  0.00    +0.229 C 
ATOM      3  O   UNL A   1      46.626 -16.707 -39.338  0.00  0.00    -0.274 OA
ATOM      4  N   UNL A   1      44.880 -17.746 -38.260  0.00  0.00    -0.236 N 
ATOM      5  H   UNL A   1      44.613 -18.324 -37.510  0.00  0.00    +0.000 HD
BRANCH   4   6
ATOM      6  N   UNL A   1      44.021 -17.504 -39.359  0.00  0.00    -0.264 N 
ATOM      7  H   UNL A   1      43.876 -16.623 -39.774  0.00  0.00    +0.000 HD
BRANCH   6   8
ATOM      8  C   UNL A   1      43.393 -18.715 -39.781  0.00  0.00    +0.058 A 
ATOM      9  C   UNL A   1      44.020 -19.564 -40.713  0.00  0.00    -0.003 A 
ATOM     10  C   UNL A   1      43.366 -20.754 -41.040  0.00  0.00    +0.047 A 
ATOM     11  N   UNL A   1      42.208 -21.148 -40.458  0.00  0.00    -0.251 NA
ATOM     12  C   UNL A   1      41.623 -20.347 -39.557  0.00  0.00    +0.073 A 
ATOM     13  C   UNL A   1      40.432 -20.767 -38.977  0.00  0.00    -0.036 A 
ATOM     14  C   UNL A   1      39.747 -19.986 -38.043  0.00  0.00    -0.060 A 
ATOM     15  C   UNL A   1      40.254 -18.747 -37.683  0.00  0.00    -0.061 A 
ATOM     16  C   UNL A   1      41.449 -18.308 -38.251  0.00  0.00    -0.051 A 
ATOM     17  C   UNL A   1      42.162 -19.106 -39.182  0.00  0.00    +0.023 A 
ATOM     18  C   UNL A   1      43.939 -21.727 -42.037  0.00  0.00    -0.010 C 
ATOM     19  C   UNL A   1      44.958 -21.092 -42.975  0.00  0.00    -0.047 C 
ATOM     20  C   UNL A   1      45.985 -20.318 -42.163  0.00  0.00    -0.049 C 
ATOM     21  C   UNL A   1      45.315 -19.181 -41.390  0.00  0.00    -0.024 C 
ENDBRANCH   6   8
ENDBRANCH   4   6
ENDBRANCH   1   2
BRANCH   1  22
ATOM     22  C   UNL A   1      47.580 -18.265 -36.616  0.00  0.00    -0.043 C 
BRANCH  22  23
ATOM     23  C   UNL A   1      47.447 -18.672 -35.150  0.00  0.00    -0.037 C 
BRANCH  23  24
ATOM     24  C   UNL A   1      46.739 -20.022 -35.035  0.00  0.00    +0.012 C 
BRANCH  24  27
ATOM     25  C   UNL A   1      44.321 -20.008 -35.504  0.00  0.00    +0.244 C 
ATOM     26  O   UNL A   1      44.473 -20.184 -36.707  0.00  0.00    -0.270 OA
ATOM     27  N   UNL A   1      45.362 -19.888 -34.609  0.00  0.00    -0.311 N 
ATOM     28  H   UNL A   1      45.165 -19.707 -33.662  0.00  0.00    +0.000 HD
BRANCH  25  31
ATOM     29  C   UNL A   1      40.693 -20.718 -34.659  0.00  0.00    +0.166 A 
ATOM     30  C   UNL A   1      41.977 -20.868 -35.182  0.00  0.00    -0.004 A 
ATOM     31  C   UNL A   1      42.951 -19.889 -34.939  0.00  0.00    +0.044 A 
ATOM     32  C   UNL A   1      42.643 -18.745 -34.191  0.00  0.00    -0.004 A 
ATOM     33  C   UNL A   1      41.367 -18.581 -33.655  0.00  0.00    +0.166 A 
ATOM     34  C   UNL A   1      40.396 -19.568 -33.905  0.00  0.00    +0.204 A 
BRANCH  29  36
ATOM     35  C   UNL A   1      39.946 -22.819 -35.523  0.00  0.00    +0.079 C 
ATOM     36  O   UNL A   1      39.665 -21.610 -34.832  0.00  0.00    -0.491 OA
ENDBRANCH  29  36
BRANCH  33  37
ATOM     37  O   UNL A   1      40.966 -17.511 -32.897  0.00  0.00    -0.491 OA
ATOM     38  C   UNL A   1      41.780 -16.346 -32.925  0.00  0.00    +0.079 C 
ENDBRANCH  33  37
BRANCH  34  39
ATOM     39  O   UNL A   1      39.143 -19.439 -33.346  0.00  0.00    -0.488 OA
ATOM     40  C   UNL A   1      38.279 -18.752 -34.251  0.00  0.00    +0.079 C 
ENDBRANCH  34  39
ENDBRANCH  25  31
ENDBRANCH  24  27
ENDBRANCH  23  24
ENDBRANCH  22  23
ENDBRANCH   1  22
TORSDOF 11
ENDMDL
MODEL 17
REMARK VINA RESULT:    -6.183     17.227     20.810
REMARK INTER + INTRA:         -12.484
REMARK INTER:                  -9.795
REMARK INTRA:                  -2.689
REMARK UNBOUND:                -2.325
REMARK  Name = cpd78.pdb
REMARK  14 active torsions:
REMARK  status: ('A' for Active; 'I' for Inactive)
REMARK    1  A    between atoms: C_1  and  O_2
REMARK    2  A    between atoms: O_2  and  C_3
REMARK    3  A    between atoms: C_5  and  C_6
REMARK    4  A    between atoms: N_8  and  C_9
REMARK    5  A    between atoms: C_9  and  C_10
REMARK    6  A    between atoms: C_10  and  C_11
REMARK    7  A    between atoms: C_11  and  C_12
REMARK    8  A    between atoms: C_12  and  C_13
REMARK    9  A    between atoms: N_15  and  N_16
REMARK   10  A    between atoms: N_16  and  C_17
REMARK   11  A    between atoms: C_32  and  O_33
REMARK   12  A    between atoms: O_33  and  C_34
REMARK   13  A    between atoms: C_35  and  O_36
REMARK   14  A    between atoms: O_36  and  C_37
REMARK                            x       y       z     vdW  Elec       q    Type
REMARK                         _______ _______ _______ _____ _____    ______ ____
ROOT
ATOM      1  C   UNL A   1      46.340 -16.662 -36.973  0.00  0.00    +0.025 C 
ENDROOT
BRANCH   1   2
ATOM      2  C   UNL A   1      45.539 -16.909 -38.236  0.00  0.00    +0.229 C 
ATOM      3  O   UNL A   1      45.796 -16.366 -39.308  0.00  0.00    -0.274 OA
ATOM      4  N   UNL A   1      44.491 -17.798 -38.068  0.00  0.00    -0.236 N 
ATOM      5  H   UNL A   1      44.466 -18.436 -37.319  0.00  0.00    +0.000 HD
BRANCH   4   6
ATOM      6  N   UNL A   1      43.459 -17.739 -39.035  0.00  0.00    -0.264 N 
ATOM      7  H   UNL A   1      43.072 -16.907 -39.392  0.00  0.00    +0.000 HD
BRANCH   6   8
ATOM      8  C   UNL A   1      43.055 -19.053 -39.419  0.00  0.00    +0.058 A 
ATOM      9  C   UNL A   1      42.046 -19.733 -38.708  0.00  0.00    -0.003 A 
ATOM     10  C   UNL A   1      41.672 -20.996 -39.173  0.00  0.00    +0.047 A 
ATOM     11  N   UNL A   1      42.183 -21.554 -40.296  0.00  0.00    -0.251 NA
ATOM     12  C   UNL A   1      43.129 -20.898 -40.981  0.00  0.00    +0.073 A 
ATOM     13  C   UNL A   1      43.646 -21.491 -42.127  0.00  0.00    -0.036 A 
ATOM     14  C   UNL A   1      44.646 -20.884 -42.889  0.00  0.00    -0.060 A 
ATOM     15  C   UNL A   1      45.157 -19.656 -42.495  0.00  0.00    -0.061 A 
ATOM     16  C   UNL A   1      44.652 -19.043 -41.351  0.00  0.00    -0.051 A 
ATOM     17  C   UNL A   1      43.619 -19.641 -40.586  0.00  0.00    +0.023 A 
ATOM     18  C   UNL A   1      40.616 -21.816 -38.480  0.00  0.00    -0.010 C 
ATOM     19  C   UNL A   1      40.387 -21.397 -37.033  0.00  0.00    -0.047 C 
ATOM     20  C   UNL A   1      40.185 -19.891 -36.964  0.00  0.00    -0.049 C 
ATOM     21  C   UNL A   1      41.435 -19.157 -37.452  0.00  0.00    -0.024 C 
ENDBRANCH   6   8
ENDBRANCH   4   6
ENDBRANCH   1   2
BRANCH   1  22
ATOM     22  C   UNL A   1      47.286 -17.829 -36.693  0.00  0.00    -0.043 C 
BRANCH  22  23
ATOM     23  C   UNL A   1      47.445 -18.106 -35.199  0.00  0.00    -0.037 C 
BRANCH  23  24
ATOM     24  C   UNL A   1      46.883 -19.484 -34.851  0.00  0.00    +0.012 C 
BRANCH  24  27
ATOM     25  C   UNL A   1      44.442 -19.779 -34.988  0.00  0.00    +0.244 C 
ATOM     26  O   UNL A   1      44.472 -20.141 -36.157  0.00  0.00    -0.270 OA
ATOM     27  N   UNL A   1      45.559 -19.410 -34.270  0.00  0.00    -0.311 N 
ATOM     28  H   UNL A   1      45.456 -19.090 -33.345  0.00  0.00    +0.000 HD
BRANCH  25  31
ATOM     29  C   UNL A   1      41.324 -20.727 -33.049  0.00  0.00    +0.166 A 
ATOM     30  C   UNL A   1      42.555 -20.832 -33.696  0.00  0.00    -0.004 A 
ATOM     31  C   UNL A   1      43.143 -19.695 -34.269  0.00  0.00    +0.044 A 
ATOM     32  C   UNL A   1      42.496 -18.453 -34.218  0.00  0.00    -0.004 A 
ATOM     33  C   UNL A   1      41.268 -18.329 -33.571  0.00  0.00    +0.166 A 
ATOM     34  C   UNL A   1      40.685 -19.474 -32.999  0.00  0.00    +0.204 A 
BRANCH  29  36
ATOM     35  C   UNL A   1      40.506 -22.970 -33.198  0.00  0.00    +0.079 C 
ATOM     36  O   UNL A   1      40.659 -21.769 -32.453  0.00  0.00    -0.491 OA
ENDBRANCH  29  36
BRANCH  33  37
ATOM     37  O   UNL A   1      40.559 -17.161 -33.449  0.00  0.00    -0.491 OA
ATOM     38  C   UNL A   1      41.104 -16.148 -32.612  0.00  0.00    +0.079 C 
ENDBRANCH  33  37
BRANCH  34  39
ATOM     39  O   UNL A   1      39.492 -19.358 -32.320  0.00  0.00    -0.488 OA
ATOM     40  C   UNL A   1      38.406 -19.663 -33.194  0.00  0.00    +0.079 C 
ENDBRANCH  34  39
ENDBRANCH  25  31
ENDBRANCH  24  27
ENDBRANCH  23  24
ENDBRANCH  22  23
ENDBRANCH   1  22
TORSDOF 11
ENDMDL
MODEL 18
REMARK VINA RESULT:    -6.157     17.207     19.896
REMARK INTER + INTRA:         -12.441
REMARK INTER:                  -8.559
REMARK INTRA:                  -3.882
REMARK UNBOUND:                -2.325
REMARK  Name = cpd78.pdb
REMARK  14 active torsions:
REMARK  status: ('A' for Active; 'I' for Inactive)
REMARK    1  A    between atoms: C_1  and  O_2
REMARK    2  A    between atoms: O_2  and  C_3
REMARK    3  A    between atoms: C_5  and  C_6
REMARK    4  A    between atoms: N_8  and  C_9
REMARK    5  A    between atoms: C_9  and  C_10
REMARK    6  A    between atoms: C_10  and  C_11
REMARK    7  A    between atoms: C_11  and  C_12
REMARK    8  A    between atoms: C_12  and  C_13
REMARK    9  A    between atoms: N_15  and  N_16
REMARK   10  A    between atoms: N_16  and  C_17
REMARK   11  A    between atoms: C_32  and  O_33
REMARK   12  A    between atoms: O_33  and  C_34
REMARK   13  A    between atoms: C_35  and  O_36
REMARK   14  A    between atoms: O_36  and  C_37
REMARK                            x       y       z     vdW  Elec       q    Type
REMARK                         _______ _______ _______ _____ _____    ______ ____
ROOT
ATOM      1  C   UNL A   1      45.599 -18.130 -34.965  0.00  0.00    +0.025 C 
ENDROOT
BRANCH   1   2
ATOM      2  C   UNL A   1      44.916 -19.435 -34.609  0.00  0.00    +0.229 C 
ATOM      3  O   UNL A   1      45.332 -20.191 -33.733  0.00  0.00    -0.274 OA
ATOM      4  N   UNL A   1      43.785 -19.699 -35.362  0.00  0.00    -0.236 N 
ATOM      5  H   UNL A   1      43.300 -18.987 -35.837  0.00  0.00    +0.000 HD
BRANCH   4   6
ATOM      6  N   UNL A   1      43.366 -21.050 -35.411  0.00  0.00    -0.264 N 
ATOM      7  H   UNL A   1      43.953 -21.825 -35.259  0.00  0.00    +0.000 HD
BRANCH   6   8
ATOM      8  C   UNL A   1      41.972 -21.131 -35.710  0.00  0.00    +0.058 A 
ATOM      9  C   UNL A   1      41.531 -21.317 -37.035  0.00  0.00    -0.003 A 
ATOM     10  C   UNL A   1      40.154 -21.435 -37.243  0.00  0.00    +0.047 A 
ATOM     11  N   UNL A   1      39.250 -21.446 -36.235  0.00  0.00    -0.251 NA
ATOM     12  C   UNL A   1      39.674 -21.290 -34.974  0.00  0.00    +0.073 A 
ATOM     13  C   UNL A   1      38.730 -21.298 -33.954  0.00  0.00    -0.036 A 
ATOM     14  C   UNL A   1      39.084 -21.123 -32.615  0.00  0.00    -0.060 A 
ATOM     15  C   UNL A   1      40.414 -20.923 -32.278  0.00  0.00    -0.061 A 
ATOM     16  C   UNL A   1      41.378 -20.915 -33.285  0.00  0.00    -0.051 A 
ATOM     17  C   UNL A   1      41.029 -21.115 -34.645  0.00  0.00    +0.023 A 
ATOM     18  C   UNL A   1      39.573 -21.619 -38.621  0.00  0.00    -0.010 C 
ATOM     19  C   UNL A   1      40.513 -21.169 -39.732  0.00  0.00    -0.047 C 
ATOM     20  C   UNL A   1      41.885 -21.790 -39.521  0.00  0.00    -0.049 C 
ATOM     21  C   UNL A   1      42.493 -21.319 -38.199  0.00  0.00    -0.024 C 
ENDBRANCH   6   8
ENDBRANCH   4   6
ENDBRANCH   1   2
BRANCH   1  22
ATOM     22  C   UNL A   1      44.695 -16.939 -34.643  0.00  0.00    -0.043 C 
BRANCH  22  23
ATOM     23  C   UNL A   1      44.525 -16.726 -33.140  0.00  0.00    -0.037 C 
BRANCH  23  24
ATOM     24  C   UNL A   1      43.044 -16.764 -32.762  0.00  0.00    +0.012 C 
BRANCH  24  27
ATOM     25  C   UNL A   1      40.848 -17.326 -33.725  0.00  0.00    +0.244 C 
ATOM     26  O   UNL A   1      40.290 -17.355 -32.636  0.00  0.00    -0.270 OA
ATOM     27  N   UNL A   1      42.194 -17.075 -33.891  0.00  0.00    -0.311 N 
ATOM     28  H   UNL A   1      42.584 -17.108 -34.794  0.00  0.00    +0.000 HD
BRANCH  25  31
ATOM     29  C   UNL A   1      39.949 -17.891 -37.365  0.00  0.00    +0.166 A 
ATOM     30  C   UNL A   1      40.705 -17.661 -36.216  0.00  0.00    -0.004 A 
ATOM     31  C   UNL A   1      40.074 -17.595 -34.965  0.00  0.00    +0.044 A 
ATOM     32  C   UNL A   1      38.684 -17.737 -34.857  0.00  0.00    -0.004 A 
ATOM     33  C   UNL A   1      37.913 -17.973 -35.995  0.00  0.00    +0.166 A 
ATOM     34  C   UNL A   1      38.554 -18.037 -37.245  0.00  0.00    +0.204 A 
BRANCH  29  36
ATOM     35  C   UNL A   1      41.847 -17.731 -38.811  0.00  0.00    +0.079 C 
ATOM     36  O   UNL A   1      40.458 -17.976 -38.636  0.00  0.00    -0.491 OA
ENDBRANCH  29  36
BRANCH  33  37
ATOM     37  O   UNL A   1      36.553 -18.143 -35.999  0.00  0.00    -0.491 OA
ATOM     38  C   UNL A   1      35.999 -19.027 -35.033  0.00  0.00    +0.079 C 
ENDBRANCH  33  37
BRANCH  34  39
ATOM     39  O   UNL A   1      37.810 -18.312 -38.372  0.00  0.00    -0.488 OA
ATOM     40  C   UNL A   1      37.355 -17.093 -38.959  0.00  0.00    +0.079 C 
ENDBRANCH  34  39
ENDBRANCH  25  31
ENDBRANCH  24  27
ENDBRANCH  23  24
ENDBRANCH  22  23
ENDBRANCH   1  22
TORSDOF 11
ENDMDL
MODEL 19
REMARK VINA RESULT:    -6.113     16.353     19.511
REMARK INTER + INTRA:         -12.368
REMARK INTER:                  -8.740
REMARK INTRA:                  -3.628
REMARK UNBOUND:                -2.325
REMARK  Name = cpd78.pdb
REMARK  14 active torsions:
REMARK  status: ('A' for Active; 'I' for Inactive)
REMARK    1  A    between atoms: C_1  and  O_2
REMARK    2  A    between atoms: O_2  and  C_3
REMARK    3  A    between atoms: C_5  and  C_6
REMARK    4  A    between atoms: N_8  and  C_9
REMARK    5  A    between atoms: C_9  and  C_10
REMARK    6  A    between atoms: C_10  and  C_11
REMARK    7  A    between atoms: C_11  and  C_12
REMARK    8  A    between atoms: C_12  and  C_13
REMARK    9  A    between atoms: N_15  and  N_16
REMARK   10  A    between atoms: N_16  and  C_17
REMARK   11  A    between atoms: C_32  and  O_33
REMARK   12  A    between atoms: O_33  and  C_34
REMARK   13  A    between atoms: C_35  and  O_36
REMARK   14  A    between atoms: O_36  and  C_37
REMARK                            x       y       z     vdW  Elec       q    Type
REMARK                         _______ _______ _______ _____ _____    ______ ____
ROOT
ATOM      1  C   UNL A   1      45.269 -17.896 -34.877  0.00  0.00    +0.025 C 
ENDROOT
BRANCH   1   2
ATOM      2  C   UNL A   1      44.788 -19.285 -34.511  0.00  0.00    +0.229 C 
ATOM      3  O   UNL A   1      45.406 -20.029 -33.752  0.00  0.00    -0.274 OA
ATOM      4  N   UNL A   1      43.592 -19.639 -35.110  0.00  0.00    -0.236 N 
ATOM      5  H   UNL A   1      42.969 -18.965 -35.466  0.00  0.00    +0.000 HD
BRANCH   4   6
ATOM      6  N   UNL A   1      43.313 -21.025 -35.184  0.00  0.00    -0.264 N 
ATOM      7  H   UNL A   1      43.932 -21.737 -34.902  0.00  0.00    +0.000 HD
BRANCH   6   8
ATOM      8  C   UNL A   1      42.011 -21.247 -35.724  0.00  0.00    +0.058 A 
ATOM      9  C   UNL A   1      40.902 -21.438 -34.875  0.00  0.00    -0.003 A 
ATOM     10  C   UNL A   1      39.653 -21.600 -35.478  0.00  0.00    +0.047 A 
ATOM     11  N   UNL A   1      39.457 -21.517 -36.815  0.00  0.00    -0.251 NA
ATOM     12  C   UNL A   1      40.510 -21.316 -37.619  0.00  0.00    +0.073 A 
ATOM     13  C   UNL A   1      40.288 -21.240 -38.989  0.00  0.00    -0.036 A 
ATOM     14  C   UNL A   1      41.331 -21.051 -39.899  0.00  0.00    -0.060 A 
ATOM     15  C   UNL A   1      42.634 -20.945 -39.435  0.00  0.00    -0.061 A 
ATOM     16  C   UNL A   1      42.877 -21.016 -38.065  0.00  0.00    -0.051 A 
ATOM     17  C   UNL A   1      41.821 -21.183 -37.133  0.00  0.00    +0.023 A 
ATOM     18  C   UNL A   1      38.404 -21.828 -34.666  0.00  0.00    -0.010 C 
ATOM     19  C   UNL A   1      38.689 -22.349 -33.263  0.00  0.00    -0.047 C 
ATOM     20  C   UNL A   1      39.743 -21.476 -32.599  0.00  0.00    -0.049 C 
ATOM     21  C   UNL A   1      41.059 -21.533 -33.376  0.00  0.00    -0.024 C 
ENDBRANCH   6   8
ENDBRANCH   4   6
ENDBRANCH   1   2
BRANCH   1  22
ATOM     22  C   UNL A   1      45.115 -16.938 -33.696  0.00  0.00    -0.043 C 
BRANCH  22  23
ATOM     23  C   UNL A   1      44.160 -15.785 -34.001  0.00  0.00    -0.037 C 
BRANCH  23  24
ATOM     24  C   UNL A   1      42.953 -15.832 -33.065  0.00  0.00    +0.012 C 
BRANCH  24  27
ATOM     25  C   UNL A   1      41.212 -17.498 -33.576  0.00  0.00    +0.244 C 
ATOM     26  O   UNL A   1      41.736 -18.370 -32.894  0.00  0.00    -0.270 OA
ATOM     27  N   UNL A   1      41.742 -16.237 -33.747  0.00  0.00    -0.311 N 
ATOM     28  H   UNL A   1      41.288 -15.599 -34.343  0.00  0.00    +0.000 HD
BRANCH  25  31
ATOM     29  C   UNL A   1      37.576 -18.285 -34.309  0.00  0.00    +0.166 A 
ATOM     30  C   UNL A   1      38.745 -17.997 -33.605  0.00  0.00    -0.004 A 
ATOM     31  C   UNL A   1      39.945 -17.781 -34.300  0.00  0.00    +0.044 A 
ATOM     32  C   UNL A   1      39.988 -17.873 -35.697  0.00  0.00    -0.004 A 
ATOM     33  C   UNL A   1      38.828 -18.154 -36.417  0.00  0.00    +0.166 A 
ATOM     34  C   UNL A   1      37.630 -18.370 -35.713  0.00  0.00    +0.204 A 
BRANCH  29  36
ATOM     35  C   UNL A   1      36.251 -19.553 -32.774  0.00  0.00    +0.079 C 
ATOM     36  O   UNL A   1      36.351 -18.512 -33.736  0.00  0.00    -0.491 OA
ENDBRANCH  29  36
BRANCH  33  37
ATOM     37  O   UNL A   1      38.757 -18.250 -37.783  0.00  0.00    -0.491 OA
ATOM     38  C   UNL A   1      39.694 -17.498 -38.543  0.00  0.00    +0.079 C 
ENDBRANCH  33  37
BRANCH  34  39
ATOM     39  O   UNL A   1      36.468 -18.607 -36.414  0.00  0.00    -0.488 OA
ATOM     40  C   UNL A   1      35.836 -17.367 -36.735  0.00  0.00    +0.079 C 
ENDBRANCH  34  39
ENDBRANCH  25  31
ENDBRANCH  24  27
ENDBRANCH  23  24
ENDBRANCH  22  23
ENDBRANCH   1  22
TORSDOF 11
ENDMDL
MODEL 20
REMARK VINA RESULT:    -6.070     17.381     20.956
REMARK INTER + INTRA:         -12.297
REMARK INTER:                 -10.129
REMARK INTRA:                  -2.169
REMARK UNBOUND:                -2.325
REMARK  Name = cpd78.pdb
REMARK  14 active torsions:
REMARK  status: ('A' for Active; 'I' for Inactive)
REMARK    1  A    between atoms: C_1  and  O_2
REMARK    2  A    between atoms: O_2  and  C_3
REMARK    3  A    between atoms: C_5  and  C_6
REMARK    4  A    between atoms: N_8  and  C_9
REMARK    5  A    between atoms: C_9  and  C_10
REMARK    6  A    between atoms: C_10  and  C_11
REMARK    7  A    between atoms: C_11  and  C_12
REMARK    8  A    between atoms: C_12  and  C_13
REMARK    9  A    between atoms: N_15  and  N_16
REMARK   10  A    between atoms: N_16  and  C_17
REMARK   11  A    between atoms: C_32  and  O_33
REMARK   12  A    between atoms: O_33  and  C_34
REMARK   13  A    between atoms: C_35  and  O_36
REMARK   14  A    between atoms: O_36  and  C_37
REMARK                            x       y       z     vdW  Elec       q    Type
REMARK                         _______ _______ _______ _____ _____    ______ ____
ROOT
ATOM      1  C   UNL A   1      47.233 -16.419 -37.476  0.00  0.00    +0.025 C 
ENDROOT
BRANCH   1   2
ATOM      2  C   UNL A   1      46.733 -16.529 -38.902  0.00  0.00    +0.229 C 
ATOM      3  O   UNL A   1      46.029 -15.672 -39.432  0.00  0.00    -0.274 OA
ATOM      4  N   UNL A   1      47.137 -17.683 -39.549  0.00  0.00    -0.236 N 
ATOM      5  H   UNL A   1      47.913 -18.206 -39.243  0.00  0.00    +0.000 HD
BRANCH   4   6
ATOM      6  N   UNL A   1      46.374 -18.071 -40.676  0.00  0.00    -0.264 N 
ATOM      7  H   UNL A   1      46.226 -17.511 -41.473  0.00  0.00    +0.000 HD
BRANCH   6   8
ATOM      8  C   UNL A   1      45.847 -19.385 -40.497  0.00  0.00    +0.058 A 
ATOM      9  C   UNL A   1      46.563 -20.515 -40.941  0.00  0.00    -0.003 A 
ATOM     10  C   UNL A   1      46.005 -21.770 -40.687  0.00  0.00    +0.047 A 
ATOM     11  N   UNL A   1      44.859 -21.945 -39.987  0.00  0.00    -0.251 NA
ATOM     12  C   UNL A   1      44.190 -20.870 -39.549  0.00  0.00    +0.073 A 
ATOM     13  C   UNL A   1      43.012 -21.070 -38.838  0.00  0.00    -0.036 A 
ATOM     14  C   UNL A   1      42.244 -20.006 -38.361  0.00  0.00    -0.060 A 
ATOM     15  C   UNL A   1      42.651 -18.703 -38.608  0.00  0.00    -0.061 A 
ATOM     16  C   UNL A   1      43.829 -18.480 -39.317  0.00  0.00    -0.051 A 
ATOM     17  C   UNL A   1      44.628 -19.555 -39.783  0.00  0.00    +0.023 A 
ATOM     18  C   UNL A   1      46.678 -23.042 -41.132  0.00  0.00    -0.010 C 
ATOM     19  C   UNL A   1      47.681 -22.826 -42.259  0.00  0.00    -0.047 C 
ATOM     20  C   UNL A   1      48.623 -21.690 -41.892  0.00  0.00    -0.049 C 
ATOM     21  C   UNL A   1      47.850 -20.382 -41.721  0.00  0.00    -0.024 C 
ENDBRANCH   6   8
ENDBRANCH   4   6
ENDBRANCH   1   2
BRANCH   1  22
ATOM     22  C   UNL A   1      46.303 -17.159 -36.515  0.00  0.00    -0.043 C 
BRANCH  22  23
ATOM     23  C   UNL A   1      46.589 -18.658 -36.465  0.00  0.00    -0.037 C 
BRANCH  23  24
ATOM     24  C   UNL A   1      46.083 -19.254 -35.152  0.00  0.00    +0.012 C 
BRANCH  24  27
ATOM     25  C   UNL A   1      43.754 -19.343 -34.355  0.00  0.00    +0.244 C 
ATOM     26  O   UNL A   1      43.971 -18.611 -33.397  0.00  0.00    -0.270 OA
ATOM     27  N   UNL A   1      44.723 -19.738 -35.252  0.00  0.00    -0.311 N 
ATOM     28  H   UNL A   1      44.486 -20.362 -35.975  0.00  0.00    +0.000 HD
BRANCH  25  31
ATOM     29  C   UNL A   1      40.805 -21.713 -34.611  0.00  0.00    +0.166 A 
ATOM     30  C   UNL A   1      42.091 -21.233 -34.363  0.00  0.00    -0.004 A 
ATOM     31  C   UNL A   1      42.387 -19.880 -34.586  0.00  0.00    +0.044 A 
ATOM     32  C   UNL A   1      41.409 -19.005 -35.077  0.00  0.00    -0.004 A 
ATOM     33  C   UNL A   1      40.117 -19.466 -35.325  0.00  0.00    +0.166 A 
ATOM     34  C   UNL A   1      39.829 -20.825 -35.100  0.00  0.00    +0.204 A 
BRANCH  29  36
ATOM     35  C   UNL A   1      40.366 -23.514 -33.100  0.00  0.00    +0.079 C 
ATOM     36  O   UNL A   1      40.403 -23.012 -34.429  0.00  0.00    -0.491 OA
ENDBRANCH  29  36
BRANCH  33  37
ATOM     37  O   UNL A   1      39.084 -18.694 -35.790  0.00  0.00    -0.491 OA
ATOM     38  C   UNL A   1      39.318 -17.923 -36.962  0.00  0.00    +0.079 C 
ENDBRANCH  33  37
BRANCH  34  39
ATOM     39  O   UNL A   1      38.546 -21.285 -35.301  0.00  0.00    -0.488 OA
ATOM     40  C   UNL A   1      37.760 -21.051 -34.133  0.00  0.00    +0.079 C 
ENDBRANCH  34  39
ENDBRANCH  25  31
ENDBRANCH  24  27
ENDBRANCH  23  24
ENDBRANCH  22  23
ENDBRANCH   1  22
TORSDOF 11
ENDMDL
