REMARK  Name = cpd78.pdb
REMARK  14 active torsions:
REMARK  status: ('A' for Active; 'I' for Inactive)
REMARK    1  A    between atoms: C_1  and  O_2
REMARK    2  A    between atoms: O_2  and  C_3
REMARK    3  A    between atoms: C_5  and  C_6
REMARK    4  A    between atoms: N_8  and  C_9
REMARK    5  A    between atoms: C_9  and  C_10
REMARK    6  A    between atoms: C_10  and  C_11
REMARK    7  A    between atoms: C_11  and  C_12
REMARK    8  A    between atoms: C_12  and  C_13
REMARK    9  A    between atoms: N_15  and  N_16
REMARK   10  A    between atoms: N_16  and  C_17
REMARK   11  A    between atoms: C_32  and  O_33
REMARK   12  A    between atoms: O_33  and  C_34
REMARK   13  A    between atoms: C_35  and  O_36
REMARK   14  A    between atoms: O_36  and  C_37
REMARK                            x       y       z     vdW  Elec       q    Type
REMARK                         _______ _______ _______ _____ _____    ______ ____
ROOT
ATOM      1  C   UNL A   1       5.668  -4.643  -0.246  0.00  0.00    +0.025 C 
ENDROOT
BRANCH   1   2
ATOM      2  C   UNL A   1       6.903  -5.251   0.387  0.00  0.00    +0.229 C 
ATOM      3  O   UNL A   1       6.893  -6.335   0.967  0.00  0.00    -0.274 OA
ATOM      4  N   UNL A   1       8.040  -4.473   0.255  0.00  0.00    -0.236 N 
ATOM      5  H   UNL A   1       8.116  -3.777  -0.437  0.00  0.00    +0.000 HD
BRANCH   4   6
ATOM      6  N   UNL A   1       9.088  -4.734   1.170  0.00  0.00    -0.264 N 
ATOM      7  H   UNL A   1       8.971  -5.160   2.050  0.00  0.00    +0.000 HD
BRANCH   6   8
ATOM      8  C   UNL A   1      10.338  -4.293   0.640  0.00  0.00    +0.058 A 
ATOM      9  C   UNL A   1      11.218  -5.202   0.020  0.00  0.00    -0.003 A 
ATOM     10  C   UNL A   1      12.400  -4.687  -0.517  0.00  0.00    +0.047 A 
ATOM     11  N   UNL A   1      12.698  -3.366  -0.525  0.00  0.00    -0.251 NA
ATOM     12  C   UNL A   1      11.850  -2.501   0.048  0.00  0.00    +0.073 A 
ATOM     13  C   UNL A   1      12.177  -1.150   0.035  0.00  0.00    -0.036 A 
ATOM     14  C   UNL A   1      11.359  -0.184   0.625  0.00  0.00    -0.060 A 
ATOM     15  C   UNL A   1      10.187  -0.572   1.257  0.00  0.00    -0.061 A 
ATOM     16  C   UNL A   1       9.839  -1.921   1.279  0.00  0.00    -0.051 A 
ATOM     17  C   UNL A   1      10.652  -2.905   0.661  0.00  0.00    +0.023 A 
ATOM     18  C   UNL A   1      13.419  -5.572  -1.187  0.00  0.00    -0.010 C 
ATOM     19  C   UNL A   1      13.294  -7.037  -0.787  0.00  0.00    -0.047 C 
ATOM     20  C   UNL A   1      11.849  -7.485  -0.938  0.00  0.00    -0.049 C 
ATOM     21  C   UNL A   1      10.936  -6.686  -0.007  0.00  0.00    -0.024 C 
ENDBRANCH   6   8
ENDBRANCH   4   6
ENDBRANCH   1   2
BRANCH   1  22
ATOM     22  C   UNL A   1       5.257  -3.364   0.484  0.00  0.00    -0.043 C 
BRANCH  22  23
ATOM     23  C   UNL A   1       3.945  -2.787  -0.044  0.00  0.00    -0.037 C 
BRANCH  23  24
ATOM     24  C   UNL A   1       3.609  -1.482   0.677  0.00  0.00    +0.012 C 
BRANCH  24  27
ATOM     25  C   UNL A   1       1.152  -1.322   0.743  0.00  0.00    +0.244 C 
ATOM     26  O   UNL A   1       1.037  -2.220   1.568  0.00  0.00    -0.270 OA
ATOM     27  N   UNL A   1       2.360  -0.907   0.225  0.00  0.00    -0.311 N 
ATOM     28  H   UNL A   1       2.374  -0.206  -0.466  0.00  0.00    +0.000 HD
BRANCH  25  31
ATOM     29  C   UNL A   1      -1.181   1.362  -0.573  0.00  0.00    +0.166 A 
ATOM     30  C   UNL A   1      -0.025   0.732  -0.113  0.00  0.00    -0.004 A 
ATOM     31  C   UNL A   1      -0.057  -0.629   0.226  0.00  0.00    +0.044 A 
ATOM     32  C   UNL A   1      -1.247  -1.362   0.128  0.00  0.00    -0.004 A 
ATOM     33  C   UNL A   1      -2.411  -0.750  -0.335  0.00  0.00    +0.166 A 
ATOM     34  C   UNL A   1      -2.370   0.615  -0.672  0.00  0.00    +0.204 A 
BRANCH  29  36
ATOM     35  C   UNL A   1      -0.090   3.475  -0.827  0.00  0.00    +0.079 C 
ATOM     36  O   UNL A   1      -1.265   2.683  -0.933  0.00  0.00    -0.491 OA
ENDBRANCH  29  36
BRANCH  33  37
ATOM     37  O   UNL A   1      -3.621  -1.377  -0.484  0.00  0.00    -0.491 OA
ATOM     38  C   UNL A   1      -3.684  -2.763  -0.172  0.00  0.00    +0.079 C 
ENDBRANCH  33  37
BRANCH  34  39
ATOM     39  O   UNL A   1      -3.502   1.222  -1.171  0.00  0.00    -0.488 OA
ATOM     40  C   UNL A   1      -4.275   1.759  -0.098  0.00  0.00    +0.079 C 
ENDBRANCH  34  39
ENDBRANCH  25  31
ENDBRANCH  24  27
ENDBRANCH  23  24
ENDBRANCH  22  23
ENDBRANCH   1  22
TORSDOF 11
