REMARK  Name = cpd285.pdb
REMARK  8 active torsions:
REMARK  status: ('A' for Active; 'I' for Inactive)
REMARK    1  A    between atoms: C_2  and  C_3
REMARK    2  A    between atoms: C_2  and  C_5
REMARK    3  A    between atoms: C_8  and  C_9
REMARK    4  A    between atoms: C_13  and  C_14
REMARK    5  A    between atoms: C_19  and  C_20
REMARK    6  A    between atoms: C_25  and  C_26
REMARK    7  A    between atoms: C_25  and  C_27
REMARK    8  A    between atoms: C_31  and  C_32
REMARK                            x       y       z     vdW  Elec       q    Type
REMARK                         _______ _______ _______ _____ _____    ______ ____
ROOT
ATOM      1  C   UNL A   1       2.725   1.331   1.398  0.00  0.00    -0.009 C 
ATOM      2  C   UNL A   1       3.659   2.527   1.080  0.00  0.00    -0.045 C 
ATOM      3  C   UNL A   1       2.757   3.644   0.518  0.00  0.00    -0.040 C 
ATOM      4  C   UNL A   1       1.615   2.883  -0.163  0.00  0.00    +0.030 C 
ATOM      5  C   UNL A   1       2.073   2.416  -1.556  0.00  0.00    -0.053 C 
ATOM      6  C   UNL A   1       0.309   3.639  -0.367  0.00  0.00    +0.140 C 
ATOM      7  O   UNL A   1       0.226   4.860  -0.258  0.00  0.00    -0.297 OA
ATOM      8  C   UNL A   1      -0.881   2.779  -0.804  0.00  0.00    +0.013 C 
ATOM      9  C   UNL A   1      -1.151   1.603   0.194  0.00  0.00    -0.017 C 
ATOM     10  C   UNL A   1      -1.753   2.324   1.442  0.00  0.00    -0.058 C 
ATOM     11  C   UNL A   1       0.202   0.850   0.523  0.00  0.00    -0.030 C 
ATOM     12  C   UNL A   1       0.026  -0.350   1.470  0.00  0.00    -0.049 C 
ATOM     13  C   UNL A   1      -1.395  -0.788   1.809  0.00  0.00    -0.049 C 
ATOM     14  C   UNL A   1      -2.513  -0.570   0.718  0.00  0.00    -0.029 C 
ATOM     15  C   UNL A   1      -3.464  -2.000   0.000  0.00  0.00    -0.025 C 
ATOM     16  C   UNL A   1      -2.598  -2.500   0.000  0.00  0.00    -0.059 C 
ATOM     17  C   UNL A   1      -3.899  -2.871   1.540  0.00  0.00    -0.040 C 
ATOM     18  C   UNL A   1      -4.792  -4.069   1.274  0.00  0.00    +0.007 C 
ATOM     19  C   UNL A   1      -5.928  -3.587   0.443  0.00  0.00    +0.139 C 
ATOM     20  O   UNL A   1      -7.013  -4.167   0.489  0.00  0.00    -0.297 OA
ATOM     21  C   UNL A   1      -5.614  -2.467  -0.563  0.00  0.00    +0.027 C 
ATOM     22  C   UNL A   1      -6.940  -1.681  -0.734  0.00  0.00    -0.053 C 
ATOM     23  C   UNL A   1      -5.301  -3.173  -1.904  0.00  0.00    -0.053 C 
ATOM     24  C   UNL A   1      -4.330  -1.500   0.000  0.00  0.00    -0.023 C 
ATOM     25  C   UNL A   1      -4.442  -0.227  -1.044  0.00  0.00    -0.048 C 
ATOM     26  C   UNL A   1      -3.513   0.981  -0.810  0.00  0.00    -0.047 C 
ATOM     27  C   UNL A   1      -2.131   0.485  -0.398  0.00  0.00    -0.023 C 
ATOM     28  C   UNL A   1      -1.502  -0.143  -1.687  0.00  0.00    -0.059 C 
ATOM     29  C   UNL A   1       1.330   1.818   0.922  0.00  0.00    -0.019 C 
ENDROOT
BRANCH   1  31
ATOM     30  C   UNL A   1       3.460  -1.052   1.757  0.00  0.00    -0.092 C 
ATOM     31  C   UNL A   1       3.224  -0.016   0.935  0.00  0.00    -0.012 C 
BRANCH  31  32
ATOM     32  C   UNL A   1       3.484  -0.299  -0.496  0.00  0.00    +0.146 C 
ATOM     33  O   UNL A   1       2.941  -1.217  -1.097  0.00  0.00    -0.296 OA
ENDBRANCH  31  32
ENDBRANCH   1  31
TORSDOF 2
