@<TRIPOS>MOLECULE
*****
 33 37 0 0 0
SMALL
GASTEIGER

@<TRIPOS>ATOM
      1 C           0.5909   -2.0032    0.0000 C.2     1  UNL1       -0.0012
      2 C           1.2601   -1.2601    0.0000 C.2     1  UNL1        0.0197
      3 C           2.2382   -1.4680    0.0000 C.2     1  UNL1        0.2299
      4 O           2.5472   -2.4190    0.0000 O.2     1  UNL1       -0.2835
      5 C           0.9511   -0.3090    0.0000 C.3     1  UNL1        0.0260
      6 C           1.5388    0.5000    0.0000 C.3     1  UNL1        0.0049
      7 C           0.9511    1.3090    0.0000 C.3     1  UNL1        0.0073
      8 C           0.0000    1.0000    0.0000 C.3     1  UNL1        0.0518
      9 C          -0.4067    1.9135    0.0000 C.3     1  UNL1        0.0073
     10 C          -0.8660    1.5000    0.0000 C.2     1  UNL1        0.1499
     11 O          -0.8660    2.5000    0.0000 O.2     1  UNL1       -0.2961
     12 C          -1.7321    1.0000    0.0000 C.3     1  UNL1        0.0645
     13 C          -1.7321    0.0000    0.0000 C.3     1  UNL1        0.0070
     14 C          -2.5981    0.5000    0.0000 C.3     1  UNL1        0.0004
     15 C          -0.8660   -0.5000    0.0000 C.3     1  UNL1        0.0011
     16 C          -0.8660   -1.5000    0.0000 C.3     1  UNL1        0.0000
     17 C          -1.7321   -2.0000    0.0000 C.3     1  UNL1        0.0000
     18 C          -2.5981   -1.5000    0.0000 C.3     1  UNL1        0.0000
     19 C          -3.4641   -2.0000    0.0000 C.3     1  UNL1        0.0008
     20 C          -2.5981   -2.5000    0.0000 C.3     1  UNL1        0.0000
     21 C          -3.4641   -3.0000    0.0000 C.3     1  UNL1        0.0078
     22 C          -4.3301   -3.5000    0.0000 C.3     1  UNL1        0.0645
     23 C          -5.1962   -3.0000    0.0000 C.2     1  UNL1        0.1498
     24 O          -6.0622   -3.5000    0.0000 O.2     1  UNL1       -0.2961
     25 C          -5.1962   -2.0000    0.0000 C.3     1  UNL1        0.0515
     26 C          -5.6962   -1.1340    0.0000 C.3     1  UNL1        0.0073
     27 C          -6.1962   -2.0000    0.0000 C.3     1  UNL1        0.0073
     28 C          -4.3301   -1.5000    0.0000 C.3     1  UNL1        0.0065
     29 C          -4.3301   -0.5000    0.0000 C.3     1  UNL1        0.0004
     30 C          -3.4641    0.0000    0.0000 C.3     1  UNL1        0.0000
     31 C          -2.5981   -0.5000    0.0000 C.3     1  UNL1        0.0004
     32 C          -3.5640   -0.7588    0.0000 C.3     1  UNL1        0.0000
     33 C           0.0000    0.0000    0.0000 C.3     1  UNL1        0.0107
@<TRIPOS>BOND
     1     1     2    2
     2     2     3    1
     3     3     4    2
     4     2     5    1
     5     5     6    1
     6     6     7    1
     7     7     8    1
     8     8     9    1
     9     8    10    1
    10    10    11    2
    11    10    12    1
    12    12    13    1
    13    13    14    1
    14    13    15    1
    15    15    16    1
    16    16    17    1
    17    17    18    1
    18    18    19    1
    19    19    20    1
    20    19    21    1
    21    21    22    1
    22    22    23    1
    23    23    24    2
    24    23    25    1
    25    25    26    1
    26    25    27    1
    27    25    28    1
    28    19    28    1
    29    28    29    1
    30    29    30    1
    31    30    31    1
    32    18    31    1
    33    13    31    1
    34    31    32    1
    35    15    33    1
    36     5    33    1
    37     8    33    1
