MODEL 1
REMARK VINA RESULT:    -8.748      0.000      0.000
REMARK INTER + INTRA:          -9.939
REMARK INTER:                  -9.771
REMARK INTRA:                  -0.168
REMARK UNBOUND:                -0.168
REMARK  Name = cpd285.pdb
REMARK  8 active torsions:
REMARK  status: ('A' for Active; 'I' for Inactive)
REMARK    1  A    between atoms: C_2  and  C_3
REMARK    2  A    between atoms: C_2  and  C_5
REMARK    3  A    between atoms: C_8  and  C_9
REMARK    4  A    between atoms: C_13  and  C_14
REMARK    5  A    between atoms: C_19  and  C_20
REMARK    6  A    between atoms: C_25  and  C_26
REMARK    7  A    between atoms: C_25  and  C_27
REMARK    8  A    between atoms: C_31  and  C_32
REMARK                            x       y       z     vdW  Elec       q    Type
REMARK                         _______ _______ _______ _____ _____    ______ ____
ROOT
ATOM      1  C   UNL A   1      37.774 -21.568 -34.054  0.00  0.00    -0.009 C 
ATOM      2  C   UNL A   1      37.182 -21.044 -32.720  0.00  0.00    -0.045 C 
ATOM      3  C   UNL A   1      37.470 -19.530 -32.684  0.00  0.00    -0.040 C 
ATOM      4  C   UNL A   1      38.768 -19.385 -33.483  0.00  0.00    +0.030 C 
ATOM      5  C   UNL A   1      39.965 -19.735 -32.580  0.00  0.00    -0.053 C 
ATOM      6  C   UNL A   1      39.062 -18.015 -34.080  0.00  0.00    +0.140 C 
ATOM      7  O   UNL A   1      38.462 -17.000 -33.734  0.00  0.00    -0.297 OA
ATOM      8  C   UNL A   1      40.219 -17.974 -35.082  0.00  0.00    +0.013 C 
ATOM      9  C   UNL A   1      40.008 -18.983 -36.261  0.00  0.00    -0.017 C 
ATOM     10  C   UNL A   1      38.871 -18.319 -37.100  0.00  0.00    -0.058 C 
ATOM     11  C   UNL A   1      39.594 -20.401 -35.694  0.00  0.00    -0.030 C 
ATOM     12  C   UNL A   1      39.403 -21.470 -36.784  0.00  0.00    -0.049 C 
ATOM     13  C   UNL A   1      39.815 -21.116 -38.209  0.00  0.00    -0.049 C 
ATOM     14  C   UNL A   1      41.012 -20.108 -38.401  0.00  0.00    -0.029 C 
ATOM     15  C   UNL A   1      42.569 -20.604 -39.291  0.00  0.00    -0.025 C 
ATOM     16  C   UNL A   1      42.486 -21.484 -38.824  0.00  0.00    -0.059 C 
ATOM     17  C   UNL A   1      41.834 -21.383 -40.765  0.00  0.00    -0.040 C 
ATOM     18  C   UNL A   1      42.896 -21.814 -41.761  0.00  0.00    +0.007 C 
ATOM     19  C   UNL A   1      43.768 -20.633 -42.002  0.00  0.00    +0.139 C 
ATOM     20  O   UNL A   1      44.366 -20.520 -43.072  0.00  0.00    -0.297 OA
ATOM     21  C   UNL A   1      43.995 -19.693 -40.807  0.00  0.00    +0.027 C 
ATOM     22  C   UNL A   1      44.254 -18.294 -41.424  0.00  0.00    -0.053 C 
ATOM     23  C   UNL A   1      45.304 -20.168 -40.133  0.00  0.00    -0.053 C 
ATOM     24  C   UNL A   1      42.653 -19.724 -39.759  0.00  0.00    -0.023 C 
ATOM     25  C   UNL A   1      42.993 -18.418 -38.808  0.00  0.00    -0.048 C 
ATOM     26  C   UNL A   1      41.941 -17.993 -37.765  0.00  0.00    -0.047 C 
ATOM     27  C   UNL A   1      41.334 -19.235 -37.121  0.00  0.00    -0.023 C 
ATOM     28  C   UNL A   1      42.456 -19.830 -36.204  0.00  0.00    -0.059 C 
ATOM     29  C   UNL A   1      38.442 -20.313 -34.677  0.00  0.00    -0.019 C 
ENDROOT
BRANCH   1  31
ATOM     30  C   UNL A   1      38.179 -24.024 -34.446  0.00  0.00    -0.092 C 
ATOM     31  C   UNL A   1      38.576 -22.842 -33.945  0.00  0.00    -0.012 C 
BRANCH  31  32
ATOM     32  C   UNL A   1      39.895 -22.876 -33.271  0.00  0.00    +0.146 C 
ATOM     33  O   UNL A   1      40.063 -23.392 -32.173  0.00  0.00    -0.296 OA
ENDBRANCH  31  32
ENDBRANCH   1  31
TORSDOF 2
ENDMDL
MODEL 2
REMARK VINA RESULT:    -8.688     16.481     19.233
REMARK INTER + INTRA:          -9.872
REMARK INTER:                  -9.607
REMARK INTRA:                  -0.265
REMARK UNBOUND:                -0.168
REMARK  Name = cpd285.pdb
REMARK  8 active torsions:
REMARK  status: ('A' for Active; 'I' for Inactive)
REMARK    1  A    between atoms: C_2  and  C_3
REMARK    2  A    between atoms: C_2  and  C_5
REMARK    3  A    between atoms: C_8  and  C_9
REMARK    4  A    between atoms: C_13  and  C_14
REMARK    5  A    between atoms: C_19  and  C_20
REMARK    6  A    between atoms: C_25  and  C_26
REMARK    7  A    between atoms: C_25  and  C_27
REMARK    8  A    between atoms: C_31  and  C_32
REMARK                            x       y       z     vdW  Elec       q    Type
REMARK                         _______ _______ _______ _____ _____    ______ ____
ROOT
ATOM      1  C   UNL A   1      35.594 -37.177 -27.644  0.00  0.00    -0.009 C 
ATOM      2  C   UNL A   1      36.992 -37.764 -27.970  0.00  0.00    -0.045 C 
ATOM      3  C   UNL A   1      37.555 -36.922 -29.132  0.00  0.00    -0.040 C 
ATOM      4  C   UNL A   1      36.306 -36.472 -29.896  0.00  0.00    +0.030 C 
ATOM      5  C   UNL A   1      35.836 -37.611 -30.819  0.00  0.00    -0.053 C 
ATOM      6  C   UNL A   1      36.442 -35.234 -30.771  0.00  0.00    +0.140 C 
ATOM      7  O   UNL A   1      37.532 -34.761 -31.085  0.00  0.00    -0.297 OA
ATOM      8  C   UNL A   1      35.125 -34.665 -31.307  0.00  0.00    +0.013 C 
ATOM      9  C   UNL A   1      34.118 -34.337 -30.153  0.00  0.00    -0.017 C 
ATOM     10  C   UNL A   1      34.737 -33.066 -29.489  0.00  0.00    -0.058 C 
ATOM     11  C   UNL A   1      34.023 -35.559 -29.152  0.00  0.00    -0.030 C 
ATOM     12  C   UNL A   1      33.022 -35.341 -28.004  0.00  0.00    -0.049 C 
ATOM     13  C   UNL A   1      32.122 -34.111 -28.067  0.00  0.00    -0.049 C 
ATOM     14  C   UNL A   1      31.701 -33.579 -29.491  0.00  0.00    -0.029 C 
ATOM     15  C   UNL A   1      29.916 -33.502 -30.012  0.00  0.00    -0.025 C 
ATOM     16  C   UNL A   1      29.805 -34.383 -29.552  0.00  0.00    -0.059 C 
ATOM     17  C   UNL A   1      29.208 -32.707 -28.534  0.00  0.00    -0.040 C 
ATOM     18  C   UNL A   1      27.730 -32.413 -28.708  0.00  0.00    +0.007 C 
ATOM     19  C   UNL A   1      27.583 -31.674 -29.992  0.00  0.00    +0.139 C 
ATOM     20  O   UNL A   1      26.638 -30.901 -30.151  0.00  0.00    -0.297 OA
ATOM     21  C   UNL A   1      28.555 -32.060 -31.119  0.00  0.00    +0.027 C 
ATOM     22  C   UNL A   1      28.716 -30.781 -31.981  0.00  0.00    -0.053 C 
ATOM     23  C   UNL A   1      27.821 -33.121 -31.972  0.00  0.00    -0.053 C 
ATOM     24  C   UNL A   1      30.027 -32.622 -30.473  0.00  0.00    -0.023 C 
ATOM     25  C   UNL A   1      30.964 -32.618 -31.831  0.00  0.00    -0.048 C 
ATOM     26  C   UNL A   1      32.461 -32.953 -31.675  0.00  0.00    -0.047 C 
ATOM     27  C   UNL A   1      32.624 -34.089 -30.671  0.00  0.00    -0.023 C 
ATOM     28  C   UNL A   1      32.093 -35.374 -31.392  0.00  0.00    -0.059 C 
ATOM     29  C   UNL A   1      35.408 -36.061 -28.706  0.00  0.00    -0.019 C 
ENDROOT
BRANCH   1  31
ATOM     30  C   UNL A   1      34.024 -38.980 -28.440  0.00  0.00    -0.092 C 
ATOM     31  C   UNL A   1      34.496 -38.196 -27.457  0.00  0.00    -0.012 C 
BRANCH  31  32
ATOM     32  C   UNL A   1      33.855 -38.415 -26.139  0.00  0.00    +0.146 C 
ATOM     33  O   UNL A   1      34.170 -39.336 -25.396  0.00  0.00    -0.296 OA
ENDBRANCH  31  32
ENDBRANCH   1  31
TORSDOF 2
ENDMDL
MODEL 3
REMARK VINA RESULT:    -8.494      2.110      3.897
REMARK INTER + INTRA:          -9.655
REMARK INTER:                  -9.451
REMARK INTRA:                  -0.203
REMARK UNBOUND:                -0.168
REMARK  Name = cpd285.pdb
REMARK  8 active torsions:
REMARK  status: ('A' for Active; 'I' for Inactive)
REMARK    1  A    between atoms: C_2  and  C_3
REMARK    2  A    between atoms: C_2  and  C_5
REMARK    3  A    between atoms: C_8  and  C_9
REMARK    4  A    between atoms: C_13  and  C_14
REMARK    5  A    between atoms: C_19  and  C_20
REMARK    6  A    between atoms: C_25  and  C_26
REMARK    7  A    between atoms: C_25  and  C_27
REMARK    8  A    between atoms: C_31  and  C_32
REMARK                            x       y       z     vdW  Elec       q    Type
REMARK                         _______ _______ _______ _____ _____    ______ ____
ROOT
ATOM      1  C   UNL A   1      41.365 -19.051 -32.853  0.00  0.00    -0.009 C 
ATOM      2  C   UNL A   1      40.042 -18.909 -32.057  0.00  0.00    -0.045 C 
ATOM      3  C   UNL A   1      38.965 -19.656 -32.869  0.00  0.00    -0.040 C 
ATOM      4  C   UNL A   1      39.438 -19.515 -34.319  0.00  0.00    +0.030 C 
ATOM      5  C   UNL A   1      39.027 -18.133 -34.858  0.00  0.00    -0.053 C 
ATOM      6  C   UNL A   1      38.918 -20.542 -35.316  0.00  0.00    +0.140 C 
ATOM      7  O   UNL A   1      37.967 -21.280 -35.072  0.00  0.00    -0.297 OA
ATOM      8  C   UNL A   1      39.609 -20.532 -36.683  0.00  0.00    +0.013 C 
ATOM      9  C   UNL A   1      41.159 -20.719 -36.557  0.00  0.00    -0.017 C 
ATOM     10  C   UNL A   1      41.306 -22.224 -36.165  0.00  0.00    -0.058 C 
ATOM     11  C   UNL A   1      41.734 -19.745 -35.450  0.00  0.00    -0.030 C 
ATOM     12  C   UNL A   1      43.261 -19.833 -35.284  0.00  0.00    -0.049 C 
ATOM     13  C   UNL A   1      44.042 -20.661 -36.299  0.00  0.00    -0.049 C 
ATOM     14  C   UNL A   1      43.478 -20.746 -37.769  0.00  0.00    -0.029 C 
ATOM     15  C   UNL A   1      44.460 -20.129 -39.225  0.00  0.00    -0.025 C 
ATOM     16  C   UNL A   1      44.734 -19.364 -38.642  0.00  0.00    -0.059 C 
ATOM     17  C   UNL A   1      46.064 -20.909 -38.854  0.00  0.00    -0.040 C 
ATOM     18  C   UNL A   1      47.078 -20.659 -39.956  0.00  0.00    +0.007 C 
ATOM     19  C   UNL A   1      46.432 -21.053 -41.237  0.00  0.00    +0.139 C 
ATOM     20  O   UNL A   1      47.123 -21.427 -42.185  0.00  0.00    -0.297 OA
ATOM     21  C   UNL A   1      44.918 -20.806 -41.344  0.00  0.00    +0.027 C 
ATOM     22  C   UNL A   1      44.393 -21.880 -42.332  0.00  0.00    -0.053 C 
ATOM     23  C   UNL A   1      44.757 -19.421 -42.016  0.00  0.00    -0.053 C 
ATOM     24  C   UNL A   1      44.187 -20.894 -39.808  0.00  0.00    -0.023 C 
ATOM     25  C   UNL A   1      42.596 -20.952 -40.244  0.00  0.00    -0.048 C 
ATOM     26  C   UNL A   1      41.551 -21.166 -39.130  0.00  0.00    -0.047 C 
ATOM     27  C   UNL A   1      41.950 -20.357 -37.900  0.00  0.00    -0.023 C 
ATOM     28  C   UNL A   1      41.699 -18.858 -38.276  0.00  0.00    -0.059 C 
ATOM     29  C   UNL A   1      40.943 -19.822 -34.132  0.00  0.00    -0.019 C 
ENDROOT
BRANCH   1  31
ATOM     30  C   UNL A   1      41.640 -16.596 -33.347  0.00  0.00    -0.092 C 
ATOM     31  C   UNL A   1      42.168 -17.781 -32.999  0.00  0.00    -0.012 C 
BRANCH  31  32
ATOM     32  C   UNL A   1      43.628 -17.752 -32.750  0.00  0.00    +0.146 C 
ATOM     33  O   UNL A   1      44.122 -17.193 -31.779  0.00  0.00    -0.296 OA
ENDBRANCH  31  32
ENDBRANCH   1  31
TORSDOF 2
ENDMDL
MODEL 4
REMARK VINA RESULT:    -8.184      1.933      8.007
REMARK INTER + INTRA:          -9.309
REMARK INTER:                  -9.027
REMARK INTRA:                  -0.282
REMARK UNBOUND:                -0.168
REMARK  Name = cpd285.pdb
REMARK  8 active torsions:
REMARK  status: ('A' for Active; 'I' for Inactive)
REMARK    1  A    between atoms: C_2  and  C_3
REMARK    2  A    between atoms: C_2  and  C_5
REMARK    3  A    between atoms: C_8  and  C_9
REMARK    4  A    between atoms: C_13  and  C_14
REMARK    5  A    between atoms: C_19  and  C_20
REMARK    6  A    between atoms: C_25  and  C_26
REMARK    7  A    between atoms: C_25  and  C_27
REMARK    8  A    between atoms: C_31  and  C_32
REMARK                            x       y       z     vdW  Elec       q    Type
REMARK                         _______ _______ _______ _____ _____    ______ ____
ROOT
ATOM      1  C   UNL A   1      43.376 -16.798 -39.870  0.00  0.00    -0.009 C 
ATOM      2  C   UNL A   1      44.345 -16.812 -41.080  0.00  0.00    -0.045 C 
ATOM      3  C   UNL A   1      44.294 -18.239 -41.660  0.00  0.00    -0.040 C 
ATOM      4  C   UNL A   1      43.984 -19.117 -40.444  0.00  0.00    +0.030 C 
ATOM      5  C   UNL A   1      45.282 -19.376 -39.658  0.00  0.00    -0.053 C 
ATOM      6  C   UNL A   1      43.364 -20.480 -40.718  0.00  0.00    +0.140 C 
ATOM      7  O   UNL A   1      43.352 -20.991 -41.835  0.00  0.00    -0.297 OA
ATOM      8  C   UNL A   1      42.829 -21.214 -39.484  0.00  0.00    +0.013 C 
ATOM      9  C   UNL A   1      41.783 -20.353 -38.699  0.00  0.00    -0.017 C 
ATOM     10  C   UNL A   1      40.527 -20.384 -39.625  0.00  0.00    -0.058 C 
ATOM     11  C   UNL A   1      42.341 -18.887 -38.482  0.00  0.00    -0.030 C 
ATOM     12  C   UNL A   1      41.392 -17.978 -37.682  0.00  0.00    -0.049 C 
ATOM     13  C   UNL A   1      40.167 -18.617 -37.038  0.00  0.00    -0.049 C 
ATOM     14  C   UNL A   1      40.280 -20.119 -36.568  0.00  0.00    -0.029 C 
ATOM     15  C   UNL A   1      40.055 -20.600 -34.784  0.00  0.00    -0.025 C 
ATOM     16  C   UNL A   1      40.568 -19.773 -34.557  0.00  0.00    -0.059 C 
ATOM     17  C   UNL A   1      38.525 -19.681 -34.420  0.00  0.00    -0.040 C 
ATOM     18  C   UNL A   1      38.021 -19.964 -33.016  0.00  0.00    +0.007 C 
ATOM     19  C   UNL A   1      37.955 -21.444 -32.870  0.00  0.00    +0.139 C 
ATOM     20  O   UNL A   1      37.154 -21.948 -32.083  0.00  0.00    -0.297 OA
ATOM     21  C   UNL A   1      39.030 -22.254 -33.613  0.00  0.00    +0.027 C 
ATOM     22  C   UNL A   1      38.374 -23.626 -33.921  0.00  0.00    -0.053 C 
ATOM     23  C   UNL A   1      40.170 -22.487 -32.593  0.00  0.00    -0.053 C 
ATOM     24  C   UNL A   1      39.542 -21.428 -35.012  0.00  0.00    -0.023 C 
ATOM     25  C   UNL A   1      40.383 -22.628 -35.770  0.00  0.00    -0.048 C 
ATOM     26  C   UNL A   1      40.936 -22.340 -37.180  0.00  0.00    -0.047 C 
ATOM     27  C   UNL A   1      41.476 -20.915 -37.232  0.00  0.00    -0.023 C 
ATOM     28  C   UNL A   1      42.791 -20.927 -36.382  0.00  0.00    -0.059 C 
ATOM     29  C   UNL A   1      42.874 -18.264 -39.785  0.00  0.00    -0.019 C 
ENDROOT
BRANCH   1  31
ATOM     30  C   UNL A   1      43.344 -15.070 -38.037  0.00  0.00    -0.092 C 
ATOM     31  C   UNL A   1      43.912 -16.137 -38.624  0.00  0.00    -0.012 C 
BRANCH  31  32
ATOM     32  C   UNL A   1      45.125 -16.639 -37.938  0.00  0.00    +0.146 C 
ATOM     33  O   UNL A   1      45.082 -17.217 -36.859  0.00  0.00    -0.296 OA
ENDBRANCH  31  32
ENDBRANCH   1  31
TORSDOF 2
ENDMDL
MODEL 5
REMARK VINA RESULT:    -7.817     15.914     21.031
REMARK INTER + INTRA:          -8.899
REMARK INTER:                  -8.589
REMARK INTRA:                  -0.310
REMARK UNBOUND:                -0.168
REMARK  Name = cpd285.pdb
REMARK  8 active torsions:
REMARK  status: ('A' for Active; 'I' for Inactive)
REMARK    1  A    between atoms: C_2  and  C_3
REMARK    2  A    between atoms: C_2  and  C_5
REMARK    3  A    between atoms: C_8  and  C_9
REMARK    4  A    between atoms: C_13  and  C_14
REMARK    5  A    between atoms: C_19  and  C_20
REMARK    6  A    between atoms: C_25  and  C_26
REMARK    7  A    between atoms: C_25  and  C_27
REMARK    8  A    between atoms: C_31  and  C_32
REMARK                            x       y       z     vdW  Elec       q    Type
REMARK                         _______ _______ _______ _____ _____    ______ ____
ROOT
ATOM      1  C   UNL A   1      33.261 -41.361 -26.805  0.00  0.00    -0.009 C 
ATOM      2  C   UNL A   1      33.935 -42.757 -26.754  0.00  0.00    -0.045 C 
ATOM      3  C   UNL A   1      35.366 -42.567 -27.295  0.00  0.00    -0.040 C 
ATOM      4  C   UNL A   1      35.231 -41.407 -28.286  0.00  0.00    +0.030 C 
ATOM      5  C   UNL A   1      34.690 -41.940 -29.624  0.00  0.00    -0.053 C 
ATOM      6  C   UNL A   1      36.498 -40.627 -28.610  0.00  0.00    +0.140 C 
ATOM      7  O   UNL A   1      37.621 -41.040 -28.331  0.00  0.00    -0.297 OA
ATOM      8  C   UNL A   1      36.282 -39.326 -29.389  0.00  0.00    +0.013 C 
ATOM      9  C   UNL A   1      35.292 -38.361 -28.653  0.00  0.00    -0.017 C 
ATOM     10  C   UNL A   1      36.132 -37.842 -27.443  0.00  0.00    -0.058 C 
ATOM     11  C   UNL A   1      34.000 -39.154 -28.198  0.00  0.00    -0.030 C 
ATOM     12  C   UNL A   1      32.950 -38.273 -27.498  0.00  0.00    -0.049 C 
ATOM     13  C   UNL A   1      33.169 -36.764 -27.502  0.00  0.00    -0.049 C 
ATOM     14  C   UNL A   1      33.922 -36.132 -28.735  0.00  0.00    -0.029 C 
ATOM     15  C   UNL A   1      33.106 -34.867 -29.830  0.00  0.00    -0.025 C 
ATOM     16  C   UNL A   1      32.275 -35.417 -29.746  0.00  0.00    -0.059 C 
ATOM     17  C   UNL A   1      32.431 -33.758 -28.552  0.00  0.00    -0.040 C 
ATOM     18  C   UNL A   1      31.771 -32.535 -29.162  0.00  0.00    +0.007 C 
ATOM     19  C   UNL A   1      32.753 -31.937 -30.106  0.00  0.00    +0.139 C 
ATOM     20  O   UNL A   1      32.713 -30.732 -30.353  0.00  0.00    -0.297 OA
ATOM     21  C   UNL A   1      33.674 -32.919 -30.850  0.00  0.00    +0.027 C 
ATOM     22  C   UNL A   1      34.975 -32.126 -31.141  0.00  0.00    -0.053 C 
ATOM     23  C   UNL A   1      32.981 -33.213 -32.202  0.00  0.00    -0.053 C 
ATOM     24  C   UNL A   1      33.937 -34.318 -29.914  0.00  0.00    -0.023 C 
ATOM     25  C   UNL A   1      35.185 -34.999 -30.751  0.00  0.00    -0.048 C 
ATOM     26  C   UNL A   1      35.841 -36.265 -30.164  0.00  0.00    -0.047 C 
ATOM     27  C   UNL A   1      34.761 -37.172 -29.583  0.00  0.00    -0.023 C 
ATOM     28  C   UNL A   1      33.994 -37.763 -30.814  0.00  0.00    -0.059 C 
ATOM     29  C   UNL A   1      34.342 -40.455 -27.451  0.00  0.00    -0.019 C 
ENDROOT
BRANCH   1  31
ATOM     30  C   UNL A   1      31.540 -41.796 -28.592  0.00  0.00    -0.092 C 
ATOM     31  C   UNL A   1      31.861 -41.343 -27.369  0.00  0.00    -0.012 C 
BRANCH  31  32
ATOM     32  C   UNL A   1      30.715 -40.821 -26.589  0.00  0.00    +0.146 C 
ATOM     33  O   UNL A   1      30.641 -40.927 -25.372  0.00  0.00    -0.296 OA
ENDBRANCH  31  32
ENDBRANCH   1  31
TORSDOF 2
ENDMDL
MODEL 6
REMARK VINA RESULT:    -7.535     15.456     19.983
REMARK INTER + INTRA:          -8.583
REMARK INTER:                  -8.237
REMARK INTRA:                  -0.346
REMARK UNBOUND:                -0.168
REMARK  Name = cpd285.pdb
REMARK  8 active torsions:
REMARK  status: ('A' for Active; 'I' for Inactive)
REMARK    1  A    between atoms: C_2  and  C_3
REMARK    2  A    between atoms: C_2  and  C_5
REMARK    3  A    between atoms: C_8  and  C_9
REMARK    4  A    between atoms: C_13  and  C_14
REMARK    5  A    between atoms: C_19  and  C_20
REMARK    6  A    between atoms: C_25  and  C_26
REMARK    7  A    between atoms: C_25  and  C_27
REMARK    8  A    between atoms: C_31  and  C_32
REMARK                            x       y       z     vdW  Elec       q    Type
REMARK                         _______ _______ _______ _____ _____    ______ ____
ROOT
ATOM      1  C   UNL A   1      36.396 -38.931 -29.967  0.00  0.00    -0.009 C 
ATOM      2  C   UNL A   1      36.574 -40.446 -29.687  0.00  0.00    -0.045 C 
ATOM      3  C   UNL A   1      35.159 -41.058 -29.701  0.00  0.00    -0.040 C 
ATOM      4  C   UNL A   1      34.261 -39.914 -29.222  0.00  0.00    +0.030 C 
ATOM      5  C   UNL A   1      34.316 -39.830 -27.687  0.00  0.00    -0.053 C 
ATOM      6  C   UNL A   1      32.787 -39.991 -29.599  0.00  0.00    +0.140 C 
ATOM      7  O   UNL A   1      32.263 -41.020 -30.018  0.00  0.00    -0.297 OA
ATOM      8  C   UNL A   1      31.979 -38.716 -29.336  0.00  0.00    +0.013 C 
ATOM      9  C   UNL A   1      32.600 -37.471 -30.055  0.00  0.00    -0.017 C 
ATOM     10  C   UNL A   1      32.267 -37.724 -31.560  0.00  0.00    -0.058 C 
ATOM     11  C   UNL A   1      34.158 -37.408 -29.781  0.00  0.00    -0.030 C 
ATOM     12  C   UNL A   1      34.848 -36.190 -30.419  0.00  0.00    -0.049 C 
ATOM     13  C   UNL A   1      33.963 -35.116 -31.044  0.00  0.00    -0.049 C 
ATOM     14  C   UNL A   1      32.536 -34.879 -30.415  0.00  0.00    -0.029 C 
ATOM     15  C   UNL A   1      32.055 -33.236 -29.685  0.00  0.00    -0.025 C 
ATOM     16  C   UNL A   1      32.981 -33.197 -29.310  0.00  0.00    -0.059 C 
ATOM     17  C   UNL A   1      32.614 -32.139 -31.027  0.00  0.00    -0.040 C 
ATOM     18  C   UNL A   1      32.255 -30.690 -30.754  0.00  0.00    +0.007 C 
ATOM     19  C   UNL A   1      30.802 -30.656 -30.435  0.00  0.00    +0.139 C 
ATOM     20  O   UNL A   1      30.148 -29.637 -30.655  0.00  0.00    -0.297 OA
ATOM     21  C   UNL A   1      30.238 -31.873 -29.682  0.00  0.00    +0.027 C 
ATOM     22  C   UNL A   1      28.748 -31.965 -30.102  0.00  0.00    -0.053 C 
ATOM     23  C   UNL A   1      30.289 -31.507 -28.179  0.00  0.00    -0.053 C 
ATOM     24  C   UNL A   1      31.128 -33.275 -30.059  0.00  0.00    -0.023 C 
ATOM     25  C   UNL A   1      30.132 -34.432 -29.433  0.00  0.00    -0.048 C 
ATOM     26  C   UNL A   1      30.506 -35.909 -29.669  0.00  0.00    -0.047 C 
ATOM     27  C   UNL A   1      32.014 -36.079 -29.525  0.00  0.00    -0.023 C 
ATOM     28  C   UNL A   1      32.317 -35.924 -27.997  0.00  0.00    -0.059 C 
ATOM     29  C   UNL A   1      34.856 -38.752 -30.053  0.00  0.00    -0.019 C 
ENDROOT
BRANCH   1  31
ATOM     30  C   UNL A   1      37.053 -37.973 -27.731  0.00  0.00    -0.092 C 
ATOM     31  C   UNL A   1      37.187 -38.013 -29.067  0.00  0.00    -0.012 C 
BRANCH  31  32
ATOM     32  C   UNL A   1      38.199 -37.077 -29.609  0.00  0.00    +0.146 C 
ATOM     33  O   UNL A   1      38.428 -36.972 -30.807  0.00  0.00    -0.296 OA
ENDBRANCH  31  32
ENDBRANCH   1  31
TORSDOF 2
ENDMDL
MODEL 7
REMARK VINA RESULT:    -7.431     15.710     20.541
REMARK INTER + INTRA:          -8.467
REMARK INTER:                  -8.185
REMARK INTRA:                  -0.282
REMARK UNBOUND:                -0.168
REMARK  Name = cpd285.pdb
REMARK  8 active torsions:
REMARK  status: ('A' for Active; 'I' for Inactive)
REMARK    1  A    between atoms: C_2  and  C_3
REMARK    2  A    between atoms: C_2  and  C_5
REMARK    3  A    between atoms: C_8  and  C_9
REMARK    4  A    between atoms: C_13  and  C_14
REMARK    5  A    between atoms: C_19  and  C_20
REMARK    6  A    between atoms: C_25  and  C_26
REMARK    7  A    between atoms: C_25  and  C_27
REMARK    8  A    between atoms: C_31  and  C_32
REMARK                            x       y       z     vdW  Elec       q    Type
REMARK                         _______ _______ _______ _____ _____    ______ ____
ROOT
ATOM      1  C   UNL A   1      33.929 -41.211 -28.603  0.00  0.00    -0.009 C 
ATOM      2  C   UNL A   1      35.033 -42.294 -28.715  0.00  0.00    -0.045 C 
ATOM      3  C   UNL A   1      36.375 -41.539 -28.783  0.00  0.00    -0.040 C 
ATOM      4  C   UNL A   1      36.014 -40.212 -29.458  0.00  0.00    +0.030 C 
ATOM      5  C   UNL A   1      35.940 -40.419 -30.981  0.00  0.00    -0.053 C 
ATOM      6  C   UNL A   1      36.959 -39.041 -29.225  0.00  0.00    +0.140 C 
ATOM      7  O   UNL A   1      38.088 -39.182 -28.762  0.00  0.00    -0.297 OA
ATOM      8  C   UNL A   1      36.435 -37.678 -29.690  0.00  0.00    +0.013 C 
ATOM      9  C   UNL A   1      35.056 -37.327 -29.037  0.00  0.00    -0.017 C 
ATOM     10  C   UNL A   1      35.433 -37.006 -27.556  0.00  0.00    -0.058 C 
ATOM     11  C   UNL A   1      34.070 -38.559 -29.159  0.00  0.00    -0.030 C 
ATOM     12  C   UNL A   1      32.671 -38.290 -28.576  0.00  0.00    -0.049 C 
ATOM     13  C   UNL A   1      32.339 -36.864 -28.150  0.00  0.00    -0.049 C 
ATOM     14  C   UNL A   1      33.023 -35.681 -28.939  0.00  0.00    -0.029 C 
ATOM     15  C   UNL A   1      32.017 -34.422 -29.870  0.00  0.00    -0.025 C 
ATOM     16  C   UNL A   1      31.433 -35.183 -30.152  0.00  0.00    -0.059 C 
ATOM     17  C   UNL A   1      30.781 -34.025 -28.592  0.00  0.00    -0.040 C 
ATOM     18  C   UNL A   1      29.848 -32.914 -29.039  0.00  0.00    +0.007 C 
ATOM     19  C   UNL A   1      30.704 -31.790 -29.504  0.00  0.00    +0.139 C 
ATOM     20  O   UNL A   1      30.284 -30.634 -29.450  0.00  0.00    -0.297 OA
ATOM     21  C   UNL A   1      32.027 -32.173 -30.187  0.00  0.00    +0.027 C 
ATOM     22  C   UNL A   1      32.993 -30.992 -29.911  0.00  0.00    -0.053 C 
ATOM     23  C   UNL A   1      31.731 -32.203 -31.706  0.00  0.00    -0.053 C 
ATOM     24  C   UNL A   1      32.601 -33.661 -29.588  0.00  0.00    -0.023 C 
ATOM     25  C   UNL A   1      34.135 -33.650 -30.195  0.00  0.00    -0.048 C 
ATOM     26  C   UNL A   1      35.083 -34.793 -29.781  0.00  0.00    -0.047 C 
ATOM     27  C   UNL A   1      34.310 -36.108 -29.756  0.00  0.00    -0.023 C 
ATOM     28  C   UNL A   1      34.030 -36.466 -31.254  0.00  0.00    -0.059 C 
ATOM     29  C   UNL A   1      34.715 -39.875 -28.689  0.00  0.00    -0.019 C 
ENDROOT
BRANCH   1  31
ATOM     30  C   UNL A   1      31.477 -41.570 -29.059  0.00  0.00    -0.092 C 
ATOM     31  C   UNL A   1      32.735 -41.414 -29.504  0.00  0.00    -0.012 C 
BRANCH  31  32
ATOM     32  C   UNL A   1      32.870 -41.445 -30.979  0.00  0.00    +0.146 C 
ATOM     33  O   UNL A   1      32.469 -40.540 -31.698  0.00  0.00    -0.296 OA
ENDBRANCH  31  32
ENDBRANCH   1  31
TORSDOF 2
ENDMDL
MODEL 8
REMARK VINA RESULT:    -7.338      1.678      3.941
REMARK INTER + INTRA:          -8.363
REMARK INTER:                  -8.099
REMARK INTRA:                  -0.264
REMARK UNBOUND:                -0.168
REMARK  Name = cpd285.pdb
REMARK  8 active torsions:
REMARK  status: ('A' for Active; 'I' for Inactive)
REMARK    1  A    between atoms: C_2  and  C_3
REMARK    2  A    between atoms: C_2  and  C_5
REMARK    3  A    between atoms: C_8  and  C_9
REMARK    4  A    between atoms: C_13  and  C_14
REMARK    5  A    between atoms: C_19  and  C_20
REMARK    6  A    between atoms: C_25  and  C_26
REMARK    7  A    between atoms: C_25  and  C_27
REMARK    8  A    between atoms: C_31  and  C_32
REMARK                            x       y       z     vdW  Elec       q    Type
REMARK                         _______ _______ _______ _____ _____    ______ ____
ROOT
ATOM      1  C   UNL A   1      39.642 -18.512 -33.650  0.00  0.00    -0.009 C 
ATOM      2  C   UNL A   1      38.354 -18.932 -32.896  0.00  0.00    -0.045 C 
ATOM      3  C   UNL A   1      38.008 -20.352 -33.388  0.00  0.00    -0.040 C 
ATOM      4  C   UNL A   1      38.545 -20.383 -34.822  0.00  0.00    +0.030 C 
ATOM      5  C   UNL A   1      37.531 -19.704 -35.760  0.00  0.00    -0.053 C 
ATOM      6  C   UNL A   1      38.837 -21.753 -35.419  0.00  0.00    +0.140 C 
ATOM      7  O   UNL A   1      38.424 -22.796 -34.918  0.00  0.00    -0.297 OA
ATOM      8  C   UNL A   1      39.612 -21.737 -36.740  0.00  0.00    +0.013 C 
ATOM      9  C   UNL A   1      40.967 -20.962 -36.615  0.00  0.00    -0.017 C 
ATOM     10  C   UNL A   1      41.854 -21.928 -35.767  0.00  0.00    -0.058 C 
ATOM     11  C   UNL A   1      40.731 -19.570 -35.899  0.00  0.00    -0.030 C 
ATOM     12  C   UNL A   1      42.007 -18.720 -35.767  0.00  0.00    -0.049 C 
ATOM     13  C   UNL A   1      43.261 -19.200 -36.491  0.00  0.00    -0.049 C 
ATOM     14  C   UNL A   1      43.074 -20.002 -37.836  0.00  0.00    -0.029 C 
ATOM     15  C   UNL A   1      43.767 -19.377 -39.446  0.00  0.00    -0.025 C 
ATOM     16  C   UNL A   1      43.480 -18.467 -39.149  0.00  0.00    -0.059 C 
ATOM     17  C   UNL A   1      45.455 -18.959 -38.901  0.00  0.00    -0.040 C 
ATOM     18  C   UNL A   1      46.321 -18.500 -40.059  0.00  0.00    +0.007 C 
ATOM     19  C   UNL A   1      46.206 -19.534 -41.123  0.00  0.00    +0.139 C 
ATOM     20  O   UNL A   1      47.126 -19.695 -41.925  0.00  0.00    -0.297 OA
ATOM     21  C   UNL A   1      44.844 -20.237 -41.251  0.00  0.00    +0.027 C 
ATOM     22  C   UNL A   1      45.158 -21.644 -41.823  0.00  0.00    -0.053 C 
ATOM     23  C   UNL A   1      44.056 -19.449 -42.325  0.00  0.00    -0.053 C 
ATOM     24  C   UNL A   1      44.054 -20.288 -39.743  0.00  0.00    -0.023 C 
ATOM     25  C   UNL A   1      42.848 -21.363 -40.081  0.00  0.00    -0.048 C 
ATOM     26  C   UNL A   1      41.935 -21.809 -38.922  0.00  0.00    -0.047 C 
ATOM     27  C   UNL A   1      41.626 -20.611 -38.030  0.00  0.00    -0.023 C 
ATOM     28  C   UNL A   1      40.654 -19.704 -38.857  0.00  0.00    -0.059 C 
ATOM     29  C   UNL A   1      39.919 -19.709 -34.599  0.00  0.00    -0.019 C 
ENDROOT
BRANCH   1  31
ATOM     30  C   UNL A   1      38.840 -16.733 -35.243  0.00  0.00    -0.092 C 
ATOM     31  C   UNL A   1      39.626 -17.116 -34.224  0.00  0.00    -0.012 C 
BRANCH  31  32
ATOM     32  C   UNL A   1      40.490 -16.042 -33.680  0.00  0.00    +0.146 C 
ATOM     33  O   UNL A   1      41.709 -16.140 -33.623  0.00  0.00    -0.296 OA
ENDBRANCH  31  32
ENDBRANCH   1  31
TORSDOF 2
ENDMDL
MODEL 9
REMARK VINA RESULT:    -7.310      2.450      7.879
REMARK INTER + INTRA:          -8.332
REMARK INTER:                  -7.986
REMARK INTRA:                  -0.346
REMARK UNBOUND:                -0.168
REMARK  Name = cpd285.pdb
REMARK  8 active torsions:
REMARK  status: ('A' for Active; 'I' for Inactive)
REMARK    1  A    between atoms: C_2  and  C_3
REMARK    2  A    between atoms: C_2  and  C_5
REMARK    3  A    between atoms: C_8  and  C_9
REMARK    4  A    between atoms: C_13  and  C_14
REMARK    5  A    between atoms: C_19  and  C_20
REMARK    6  A    between atoms: C_25  and  C_26
REMARK    7  A    between atoms: C_25  and  C_27
REMARK    8  A    between atoms: C_31  and  C_32
REMARK                            x       y       z     vdW  Elec       q    Type
REMARK                         _______ _______ _______ _____ _____    ______ ____
ROOT
ATOM      1  C   UNL A   1      46.107 -18.809 -40.180  0.00  0.00    -0.009 C 
ATOM      2  C   UNL A   1      47.128 -17.709 -40.570  0.00  0.00    -0.045 C 
ATOM      3  C   UNL A   1      47.192 -16.734 -39.378  0.00  0.00    -0.040 C 
ATOM      4  C   UNL A   1      45.791 -16.816 -38.763  0.00  0.00    +0.030 C 
ATOM      5  C   UNL A   1      44.829 -15.924 -39.568  0.00  0.00    -0.053 C 
ATOM      6  C   UNL A   1      45.653 -16.398 -37.306  0.00  0.00    +0.140 C 
ATOM      7  O   UNL A   1      46.526 -15.771 -36.710  0.00  0.00    -0.297 OA
ATOM      8  C   UNL A   1      44.309 -16.739 -36.654  0.00  0.00    +0.013 C 
ATOM      9  C   UNL A   1      43.980 -18.266 -36.755  0.00  0.00    -0.017 C 
ATOM     10  C   UNL A   1      44.972 -18.914 -35.737  0.00  0.00    -0.058 C 
ATOM     11  C   UNL A   1      44.214 -18.774 -38.236  0.00  0.00    -0.030 C 
ATOM     12  C   UNL A   1      43.877 -20.262 -38.438  0.00  0.00    -0.049 C 
ATOM     13  C   UNL A   1      43.191 -21.000 -37.293  0.00  0.00    -0.049 C 
ATOM     14  C   UNL A   1      42.231 -20.172 -36.354  0.00  0.00    -0.029 C 
ATOM     15  C   UNL A   1      40.425 -20.594 -36.194  0.00  0.00    -0.025 C 
ATOM     16  C   UNL A   1      40.437 -20.763 -37.179  0.00  0.00    -0.059 C 
ATOM     17  C   UNL A   1      40.561 -22.393 -35.942  0.00  0.00    -0.040 C 
ATOM     18  C   UNL A   1      39.208 -23.026 -35.673  0.00  0.00    +0.007 C 
ATOM     19  C   UNL A   1      38.578 -22.250 -34.571  0.00  0.00    +0.139 C 
ATOM     20  O   UNL A   1      37.758 -22.791 -33.829  0.00  0.00    -0.297 OA
ATOM     21  C   UNL A   1      38.882 -20.743 -34.535  0.00  0.00    +0.027 C 
ATOM     22  C   UNL A   1      38.776 -20.336 -33.042  0.00  0.00    -0.053 C 
ATOM     23  C   UNL A   1      37.726 -20.055 -35.300  0.00  0.00    -0.053 C 
ATOM     24  C   UNL A   1      40.413 -20.424 -35.208  0.00  0.00    -0.023 C 
ATOM     25  C   UNL A   1      40.624 -18.859 -34.730  0.00  0.00    -0.048 C 
ATOM     26  C   UNL A   1      41.980 -18.190 -35.032  0.00  0.00    -0.047 C 
ATOM     27  C   UNL A   1      42.453 -18.606 -36.421  0.00  0.00    -0.023 C 
ATOM     28  C   UNL A   1      41.512 -17.867 -37.431  0.00  0.00    -0.059 C 
ATOM     29  C   UNL A   1      45.584 -18.349 -38.792  0.00  0.00    -0.019 C 
ENDROOT
BRANCH   1  31
ATOM     30  C   UNL A   1      44.265 -18.290 -41.819  0.00  0.00    -0.092 C 
ATOM     31  C   UNL A   1      45.108 -19.169 -41.252  0.00  0.00    -0.012 C 
BRANCH  31  32
ATOM     32  C   UNL A   1      44.992 -20.551 -41.774  0.00  0.00    +0.146 C 
ATOM     33  O   UNL A   1      45.665 -21.479 -41.343  0.00  0.00    -0.296 OA
ENDBRANCH  31  32
ENDBRANCH   1  31
TORSDOF 2
ENDMDL
MODEL 10
REMARK VINA RESULT:    -7.260      2.619      7.999
REMARK INTER + INTRA:          -8.276
REMARK INTER:                  -7.927
REMARK INTRA:                  -0.350
REMARK UNBOUND:                -0.168
REMARK  Name = cpd285.pdb
REMARK  8 active torsions:
REMARK  status: ('A' for Active; 'I' for Inactive)
REMARK    1  A    between atoms: C_2  and  C_3
REMARK    2  A    between atoms: C_2  and  C_5
REMARK    3  A    between atoms: C_8  and  C_9
REMARK    4  A    between atoms: C_13  and  C_14
REMARK    5  A    between atoms: C_19  and  C_20
REMARK    6  A    between atoms: C_25  and  C_26
REMARK    7  A    between atoms: C_25  and  C_27
REMARK    8  A    between atoms: C_31  and  C_32
REMARK                            x       y       z     vdW  Elec       q    Type
REMARK                         _______ _______ _______ _____ _____    ______ ____
ROOT
ATOM      1  C   UNL A   1      46.606 -17.526 -38.289  0.00  0.00    -0.009 C 
ATOM      2  C   UNL A   1      47.189 -16.960 -39.609  0.00  0.00    -0.045 C 
ATOM      3  C   UNL A   1      45.982 -16.536 -40.469  0.00  0.00    -0.040 C 
ATOM      4  C   UNL A   1      44.871 -17.499 -40.040  0.00  0.00    +0.030 C 
ATOM      5  C   UNL A   1      45.048 -18.841 -40.774  0.00  0.00    -0.053 C 
ATOM      6  C   UNL A   1      43.437 -17.053 -40.293  0.00  0.00    +0.140 C 
ATOM      7  O   UNL A   1      43.156 -16.117 -41.037  0.00  0.00    -0.297 OA
ATOM      8  C   UNL A   1      42.360 -17.910 -39.621  0.00  0.00    +0.013 C 
ATOM      9  C   UNL A   1      42.572 -18.009 -38.072  0.00  0.00    -0.017 C 
ATOM     10  C   UNL A   1      42.175 -16.587 -37.565  0.00  0.00    -0.058 C 
ATOM     11  C   UNL A   1      44.081 -18.366 -37.754  0.00  0.00    -0.030 C 
ATOM     12  C   UNL A   1      44.375 -18.523 -36.252  0.00  0.00    -0.049 C 
ATOM     13  C   UNL A   1      43.191 -18.520 -35.290  0.00  0.00    -0.049 C 
ATOM     14  C   UNL A   1      41.817 -19.092 -35.812  0.00  0.00    -0.029 C 
ATOM     15  C   UNL A   1      41.004 -20.559 -35.005  0.00  0.00    -0.025 C 
ATOM     16  C   UNL A   1      41.921 -20.950 -34.927  0.00  0.00    -0.059 C 
ATOM     17  C   UNL A   1      41.137 -20.051 -33.261  0.00  0.00    -0.040 C 
ATOM     18  C   UNL A   1      40.448 -21.036 -32.335  0.00  0.00    +0.007 C 
ATOM     19  C   UNL A   1      39.072 -21.237 -32.862  0.00  0.00    +0.139 C 
ATOM     20  O   UNL A   1      38.161 -21.559 -32.099  0.00  0.00    -0.297 OA
ATOM     21  C   UNL A   1      38.909 -21.185 -34.391  0.00  0.00    +0.027 C 
ATOM     22  C   UNL A   1      37.459 -20.693 -34.636  0.00  0.00    -0.053 C 
ATOM     23  C   UNL A   1      39.007 -22.650 -34.881  0.00  0.00    -0.053 C 
ATOM     24  C   UNL A   1      40.087 -20.168 -35.083  0.00  0.00    -0.023 C 
ATOM     25  C   UNL A   1      39.482 -20.016 -36.611  0.00  0.00    -0.048 C 
ATOM     26  C   UNL A   1      40.196 -19.048 -37.575  0.00  0.00    -0.047 C 
ATOM     27  C   UNL A   1      41.704 -19.167 -37.389  0.00  0.00    -0.023 C 
ATOM     28  C   UNL A   1      42.100 -20.555 -37.996  0.00  0.00    -0.059 C 
ATOM     29  C   UNL A   1      45.070 -17.458 -38.507  0.00  0.00    -0.019 C 
ENDROOT
BRANCH   1  31
ATOM     30  C   UNL A   1      47.168 -19.972 -38.512  0.00  0.00    -0.092 C 
ATOM     31  C   UNL A   1      47.218 -18.823 -37.818  0.00  0.00    -0.012 C 
BRANCH  31  32
ATOM     32  C   UNL A   1      47.945 -18.917 -36.530  0.00  0.00    +0.146 C 
ATOM     33  O   UNL A   1      47.886 -18.045 -35.673  0.00  0.00    -0.296 OA
ENDBRANCH  31  32
ENDBRANCH   1  31
TORSDOF 2
ENDMDL
MODEL 11
REMARK VINA RESULT:    -7.226     15.912     18.932
REMARK INTER + INTRA:          -8.239
REMARK INTER:                  -7.895
REMARK INTRA:                  -0.344
REMARK UNBOUND:                -0.168
REMARK  Name = cpd285.pdb
REMARK  8 active torsions:
REMARK  status: ('A' for Active; 'I' for Inactive)
REMARK    1  A    between atoms: C_2  and  C_3
REMARK    2  A    between atoms: C_2  and  C_5
REMARK    3  A    between atoms: C_8  and  C_9
REMARK    4  A    between atoms: C_13  and  C_14
REMARK    5  A    between atoms: C_19  and  C_20
REMARK    6  A    between atoms: C_25  and  C_26
REMARK    7  A    between atoms: C_25  and  C_27
REMARK    8  A    between atoms: C_31  and  C_32
REMARK                            x       y       z     vdW  Elec       q    Type
REMARK                         _______ _______ _______ _____ _____    ______ ____
ROOT
ATOM      1  C   UNL A   1      28.963 -33.032 -32.807  0.00  0.00    -0.009 C 
ATOM      2  C   UNL A   1      28.228 -31.667 -32.772  0.00  0.00    -0.045 C 
ATOM      3  C   UNL A   1      29.156 -30.694 -32.018  0.00  0.00    -0.040 C 
ATOM      4  C   UNL A   1      29.919 -31.598 -31.044  0.00  0.00    +0.030 C 
ATOM      5  C   UNL A   1      29.042 -31.874 -29.810  0.00  0.00    -0.053 C 
ATOM      6  C   UNL A   1      31.251 -31.078 -30.521  0.00  0.00    +0.140 C 
ATOM      7  O   UNL A   1      31.593 -29.903 -30.632  0.00  0.00    -0.297 OA
ATOM      8  C   UNL A   1      32.103 -32.105 -29.768  0.00  0.00    +0.013 C 
ATOM      9  C   UNL A   1      32.384 -33.379 -30.634  0.00  0.00    -0.017 C 
ATOM     10  C   UNL A   1      33.411 -32.870 -31.696  0.00  0.00    -0.058 C 
ATOM     11  C   UNL A   1      31.040 -33.897 -31.290  0.00  0.00    -0.030 C 
ATOM     12  C   UNL A   1      31.215 -35.174 -32.131  0.00  0.00    -0.049 C 
ATOM     13  C   UNL A   1      32.564 -35.884 -32.075  0.00  0.00    -0.049 C 
ATOM     14  C   UNL A   1      33.389 -35.794 -30.734  0.00  0.00    -0.029 C 
ATOM     15  C   UNL A   1      33.832 -37.317 -29.760  0.00  0.00    -0.025 C 
ATOM     16  C   UNL A   1      32.915 -37.651 -29.977  0.00  0.00    -0.059 C 
ATOM     17  C   UNL A   1      34.467 -38.360 -31.112  0.00  0.00    -0.040 C 
ATOM     18  C   UNL A   1      35.014 -39.678 -30.595  0.00  0.00    +0.007 C 
ATOM     19  C   UNL A   1      35.974 -39.351 -29.506  0.00  0.00    +0.139 C 
ATOM     20  O   UNL A   1      36.902 -40.119 -29.252  0.00  0.00    -0.297 OA
ATOM     21  C   UNL A   1      35.637 -38.123 -28.642  0.00  0.00    +0.027 C 
ATOM     22  C   UNL A   1      37.002 -37.580 -28.147  0.00  0.00    -0.053 C 
ATOM     23  C   UNL A   1      34.864 -38.663 -27.415  0.00  0.00    -0.053 C 
ATOM     24  C   UNL A   1      34.750 -36.983 -29.544  0.00  0.00    -0.023 C 
ATOM     25  C   UNL A   1      34.837 -35.680 -28.536  0.00  0.00    -0.048 C 
ATOM     26  C   UNL A   1      34.249 -34.344 -29.032  0.00  0.00    -0.047 C 
ATOM     27  C   UNL A   1      32.947 -34.610 -29.781  0.00  0.00    -0.023 C 
ATOM     28  C   UNL A   1      31.903 -35.020 -28.689  0.00  0.00    -0.059 C 
ATOM     29  C   UNL A   1      30.259 -32.772 -31.993  0.00  0.00    -0.019 C 
ENDROOT
BRANCH   1  31
ATOM     30  C   UNL A   1      27.440 -34.365 -31.307  0.00  0.00    -0.092 C 
ATOM     31  C   UNL A   1      28.113 -34.230 -32.462  0.00  0.00    -0.012 C 
BRANCH  31  32
ATOM     32  C   UNL A   1      27.948 -35.364 -33.401  0.00  0.00    +0.146 C 
ATOM     33  O   UNL A   1      28.443 -35.370 -34.521  0.00  0.00    -0.296 OA
ENDBRANCH  31  32
ENDBRANCH   1  31
TORSDOF 2
ENDMDL
MODEL 12
REMARK VINA RESULT:    -7.197      2.398      8.364
REMARK INTER + INTRA:          -8.206
REMARK INTER:                  -7.943
REMARK INTRA:                  -0.263
REMARK UNBOUND:                -0.168
REMARK  Name = cpd285.pdb
REMARK  8 active torsions:
REMARK  status: ('A' for Active; 'I' for Inactive)
REMARK    1  A    between atoms: C_2  and  C_3
REMARK    2  A    between atoms: C_2  and  C_5
REMARK    3  A    between atoms: C_8  and  C_9
REMARK    4  A    between atoms: C_13  and  C_14
REMARK    5  A    between atoms: C_19  and  C_20
REMARK    6  A    between atoms: C_25  and  C_26
REMARK    7  A    between atoms: C_25  and  C_27
REMARK    8  A    between atoms: C_31  and  C_32
REMARK                            x       y       z     vdW  Elec       q    Type
REMARK                         _______ _______ _______ _____ _____    ______ ____
ROOT
ATOM      1  C   UNL A   1      46.123 -17.754 -39.231  0.00  0.00    -0.009 C 
ATOM      2  C   UNL A   1      47.076 -18.238 -40.354  0.00  0.00    -0.045 C 
ATOM      3  C   UNL A   1      46.364 -19.414 -41.050  0.00  0.00    -0.040 C 
ATOM      4  C   UNL A   1      45.513 -20.036 -39.938  0.00  0.00    +0.030 C 
ATOM      5  C   UNL A   1      46.395 -20.953 -39.073  0.00  0.00    -0.053 C 
ATOM      6  C   UNL A   1      44.315 -20.870 -40.372  0.00  0.00    +0.140 C 
ATOM      7  O   UNL A   1      44.169 -21.270 -41.525  0.00  0.00    -0.297 OA
ATOM      8  C   UNL A   1      43.345 -21.252 -39.250  0.00  0.00    +0.013 C 
ATOM      9  C   UNL A   1      42.810 -19.994 -38.486  0.00  0.00    -0.017 C 
ATOM     10  C   UNL A   1      41.829 -19.343 -39.513  0.00  0.00    -0.058 C 
ATOM     11  C   UNL A   1      44.013 -19.038 -38.107  0.00  0.00    -0.030 C 
ATOM     12  C   UNL A   1      43.583 -17.789 -37.316  0.00  0.00    -0.049 C 
ATOM     13  C   UNL A   1      42.140 -17.716 -36.829  0.00  0.00    -0.049 C 
ATOM     14  C   UNL A   1      41.412 -19.070 -36.475  0.00  0.00    -0.029 C 
ATOM     15  C   UNL A   1      40.773 -19.412 -34.761  0.00  0.00    -0.025 C 
ATOM     16  C   UNL A   1      41.609 -18.978 -34.425  0.00  0.00    -0.059 C 
ATOM     17  C   UNL A   1      39.903 -17.841 -34.449  0.00  0.00    -0.040 C 
ATOM     18  C   UNL A   1      39.171 -17.859 -33.120  0.00  0.00    +0.007 C 
ATOM     19  C   UNL A   1      38.338 -19.092 -33.101  0.00  0.00    +0.139 C 
ATOM     20  O   UNL A   1      37.309 -19.128 -32.425  0.00  0.00    -0.297 OA
ATOM     21  C   UNL A   1      38.919 -20.323 -33.816  0.00  0.00    +0.027 C 
ATOM     22  C   UNL A   1      37.691 -21.145 -34.287  0.00  0.00    -0.053 C 
ATOM     23  C   UNL A   1      39.654 -21.142 -32.728  0.00  0.00    -0.053 C 
ATOM     24  C   UNL A   1      39.936 -19.846 -35.096  0.00  0.00    -0.023 C 
ATOM     25  C   UNL A   1      40.121 -21.287 -35.877  0.00  0.00    -0.048 C 
ATOM     26  C   UNL A   1      40.897 -21.291 -37.209  0.00  0.00    -0.047 C 
ATOM     27  C   UNL A   1      42.094 -20.354 -37.101  0.00  0.00    -0.023 C 
ATOM     28  C   UNL A   1      43.111 -21.069 -36.149  0.00  0.00    -0.059 C 
ATOM     29  C   UNL A   1      44.933 -18.748 -39.306  0.00  0.00    -0.019 C 
ENDROOT
BRANCH   1  31
ATOM     30  C   UNL A   1      47.340 -18.461 -37.141  0.00  0.00    -0.092 C 
ATOM     31  C   UNL A   1      46.778 -17.501 -37.895  0.00  0.00    -0.012 C 
BRANCH  31  32
ATOM     32  C   UNL A   1      46.858 -16.141 -37.313  0.00  0.00    +0.146 C 
ATOM     33  O   UNL A   1      47.885 -15.694 -36.819  0.00  0.00    -0.296 OA
ENDBRANCH  31  32
ENDBRANCH   1  31
TORSDOF 2
ENDMDL
MODEL 13
REMARK VINA RESULT:    -7.151      5.549      8.431
REMARK INTER + INTRA:          -8.154
REMARK INTER:                  -7.845
REMARK INTRA:                  -0.309
REMARK UNBOUND:                -0.168
REMARK  Name = cpd285.pdb
REMARK  8 active torsions:
REMARK  status: ('A' for Active; 'I' for Inactive)
REMARK    1  A    between atoms: C_2  and  C_3
REMARK    2  A    between atoms: C_2  and  C_5
REMARK    3  A    between atoms: C_8  and  C_9
REMARK    4  A    between atoms: C_13  and  C_14
REMARK    5  A    between atoms: C_19  and  C_20
REMARK    6  A    between atoms: C_25  and  C_26
REMARK    7  A    between atoms: C_25  and  C_27
REMARK    8  A    between atoms: C_31  and  C_32
REMARK                            x       y       z     vdW  Elec       q    Type
REMARK                         _______ _______ _______ _____ _____    ______ ____
ROOT
ATOM      1  C   UNL A   1      47.309 -12.994 -36.869  0.00  0.00    -0.009 C 
ATOM      2  C   UNL A   1      46.813 -11.748 -36.091  0.00  0.00    -0.045 C 
ATOM      3  C   UNL A   1      45.350 -12.038 -35.696  0.00  0.00    -0.040 C 
ATOM      4  C   UNL A   1      44.845 -12.953 -36.816  0.00  0.00    +0.030 C 
ATOM      5  C   UNL A   1      44.451 -12.098 -38.034  0.00  0.00    -0.053 C 
ATOM      6  C   UNL A   1      43.643 -13.832 -36.497  0.00  0.00    +0.140 C 
ATOM      7  O   UNL A   1      42.930 -13.649 -35.513  0.00  0.00    -0.297 OA
ATOM      8  C   UNL A   1      43.331 -14.913 -37.537  0.00  0.00    +0.013 C 
ATOM      9  C   UNL A   1      44.561 -15.846 -37.798  0.00  0.00    -0.017 C 
ATOM     10  C   UNL A   1      44.640 -16.706 -36.496  0.00  0.00    -0.058 C 
ATOM     11  C   UNL A   1      45.863 -14.976 -38.029  0.00  0.00    -0.030 C 
ATOM     12  C   UNL A   1      47.119 -15.811 -38.333  0.00  0.00    -0.049 C 
ATOM     13  C   UNL A   1      46.939 -17.307 -38.570  0.00  0.00    -0.049 C 
ATOM     14  C   UNL A   1      45.585 -17.793 -39.217  0.00  0.00    -0.029 C 
ATOM     15  C   UNL A   1      45.552 -18.689 -40.848  0.00  0.00    -0.025 C 
ATOM     16  C   UNL A   1      46.262 -18.051 -41.147  0.00  0.00    -0.059 C 
ATOM     17  C   UNL A   1      46.866 -19.913 -40.541  0.00  0.00    -0.040 C 
ATOM     18  C   UNL A   1      47.009 -20.885 -41.698  0.00  0.00    +0.007 C 
ATOM     19  C   UNL A   1      45.652 -21.428 -41.978  0.00  0.00    +0.139 C 
ATOM     20  O   UNL A   1      45.528 -22.544 -42.483  0.00  0.00    -0.297 OA
ATOM     21  C   UNL A   1      44.472 -20.466 -41.761  0.00  0.00    +0.027 C 
ATOM     22  C   UNL A   1      43.264 -21.369 -41.399  0.00  0.00    -0.053 C 
ATOM     23  C   UNL A   1      44.189 -19.819 -43.138  0.00  0.00    -0.053 C 
ATOM     24  C   UNL A   1      44.843 -19.328 -40.549  0.00  0.00    -0.023 C 
ATOM     25  C   UNL A   1      43.346 -18.688 -40.280  0.00  0.00    -0.048 C 
ATOM     26  C   UNL A   1      43.194 -17.668 -39.133  0.00  0.00    -0.047 C 
ATOM     27  C   UNL A   1      44.406 -16.743 -39.114  0.00  0.00    -0.023 C 
ATOM     28  C   UNL A   1      44.256 -15.819 -40.370  0.00  0.00    -0.059 C 
ATOM     29  C   UNL A   1      46.056 -13.907 -36.938  0.00  0.00    -0.019 C 
ENDROOT
BRANCH   1  31
ATOM     30  C   UNL A   1      47.558 -12.005 -39.173  0.00  0.00    -0.092 C 
ATOM     31  C   UNL A   1      48.066 -12.698 -38.141  0.00  0.00    -0.012 C 
BRANCH  31  32
ATOM     32  C   UNL A   1      49.462 -13.155 -38.339  0.00  0.00    +0.146 C 
ATOM     33  O   UNL A   1      49.941 -13.352 -39.448  0.00  0.00    -0.296 OA
ENDBRANCH  31  32
ENDBRANCH   1  31
TORSDOF 2
ENDMDL
MODEL 14
REMARK VINA RESULT:    -7.080      2.302      8.166
REMARK INTER + INTRA:          -8.076
REMARK INTER:                  -7.801
REMARK INTRA:                  -0.275
REMARK UNBOUND:                -0.168
REMARK  Name = cpd285.pdb
REMARK  8 active torsions:
REMARK  status: ('A' for Active; 'I' for Inactive)
REMARK    1  A    between atoms: C_2  and  C_3
REMARK    2  A    between atoms: C_2  and  C_5
REMARK    3  A    between atoms: C_8  and  C_9
REMARK    4  A    between atoms: C_13  and  C_14
REMARK    5  A    between atoms: C_19  and  C_20
REMARK    6  A    between atoms: C_25  and  C_26
REMARK    7  A    between atoms: C_25  and  C_27
REMARK    8  A    between atoms: C_31  and  C_32
REMARK                            x       y       z     vdW  Elec       q    Type
REMARK                         _______ _______ _______ _____ _____    ______ ____
ROOT
ATOM      1  C   UNL A   1      43.175 -16.561 -40.750  0.00  0.00    -0.009 C 
ATOM      2  C   UNL A   1      44.506 -16.379 -41.524  0.00  0.00    -0.045 C 
ATOM      3  C   UNL A   1      45.294 -17.692 -41.346  0.00  0.00    -0.040 C 
ATOM      4  C   UNL A   1      44.838 -18.208 -39.977  0.00  0.00    +0.030 C 
ATOM      5  C   UNL A   1      45.617 -17.475 -38.871  0.00  0.00    -0.053 C 
ATOM      6  C   UNL A   1      45.007 -19.698 -39.712  0.00  0.00    +0.140 C 
ATOM      7  O   UNL A   1      45.710 -20.421 -40.414  0.00  0.00    -0.297 OA
ATOM      8  C   UNL A   1      44.307 -20.220 -38.453  0.00  0.00    +0.013 C 
ATOM      9  C   UNL A   1      42.775 -19.899 -38.460  0.00  0.00    -0.017 C 
ATOM     10  C   UNL A   1      42.209 -20.877 -39.537  0.00  0.00    -0.058 C 
ATOM     11  C   UNL A   1      42.542 -18.379 -38.839  0.00  0.00    -0.030 C 
ATOM     12  C   UNL A   1      41.061 -17.962 -38.832  0.00  0.00    -0.049 C 
ATOM     13  C   UNL A   1      40.042 -18.957 -38.286  0.00  0.00    -0.049 C 
ATOM     14  C   UNL A   1      40.512 -19.941 -37.146  0.00  0.00    -0.029 C 
ATOM     15  C   UNL A   1      39.707 -19.939 -35.467  0.00  0.00    -0.025 C 
ATOM     16  C   UNL A   1      39.686 -18.943 -35.543  0.00  0.00    -0.059 C 
ATOM     17  C   UNL A   1      37.958 -19.957 -35.975  0.00  0.00    -0.040 C 
ATOM     18  C   UNL A   1      37.027 -20.061 -34.781  0.00  0.00    +0.007 C 
ATOM     19  C   UNL A   1      37.492 -21.218 -33.969  0.00  0.00    +0.139 C 
ATOM     20  O   UNL A   1      36.694 -21.833 -33.262  0.00  0.00    -0.297 OA
ATOM     21  C   UNL A   1      39.009 -21.472 -33.944  0.00  0.00    +0.027 C 
ATOM     22  C   UNL A   1      39.169 -22.997 -33.711  0.00  0.00    -0.053 C 
ATOM     23  C   UNL A   1      39.544 -20.739 -32.690  0.00  0.00    -0.053 C 
ATOM     24  C   UNL A   1      39.729 -20.936 -35.391  0.00  0.00    -0.023 C 
ATOM     25  C   UNL A   1      41.220 -21.629 -35.250  0.00  0.00    -0.048 C 
ATOM     26  C   UNL A   1      42.191 -21.497 -36.441  0.00  0.00    -0.047 C 
ATOM     27  C   UNL A   1      42.082 -20.095 -37.031  0.00  0.00    -0.023 C 
ATOM     28  C   UNL A   1      42.747 -19.140 -35.983  0.00  0.00    -0.059 C 
ATOM     29  C   UNL A   1      43.316 -17.964 -40.102  0.00  0.00    -0.019 C 
ENDROOT
BRANCH   1  31
ATOM     30  C   UNL A   1      43.510 -14.928 -38.860  0.00  0.00    -0.092 C 
ATOM     31  C   UNL A   1      42.772 -15.394 -39.881  0.00  0.00    -0.012 C 
BRANCH  31  32
ATOM     32  C   UNL A   1      41.507 -14.657 -40.108  0.00  0.00    +0.146 C 
ATOM     33  O   UNL A   1      41.419 -13.442 -39.983  0.00  0.00    -0.296 OA
ENDBRANCH  31  32
ENDBRANCH   1  31
TORSDOF 2
ENDMDL
MODEL 15
REMARK VINA RESULT:    -7.048      4.091      6.065
REMARK INTER + INTRA:          -8.039
REMARK INTER:                  -7.848
REMARK INTRA:                  -0.191
REMARK UNBOUND:                -0.168
REMARK  Name = cpd285.pdb
REMARK  8 active torsions:
REMARK  status: ('A' for Active; 'I' for Inactive)
REMARK    1  A    between atoms: C_2  and  C_3
REMARK    2  A    between atoms: C_2  and  C_5
REMARK    3  A    between atoms: C_8  and  C_9
REMARK    4  A    between atoms: C_13  and  C_14
REMARK    5  A    between atoms: C_19  and  C_20
REMARK    6  A    between atoms: C_25  and  C_26
REMARK    7  A    between atoms: C_25  and  C_27
REMARK    8  A    between atoms: C_31  and  C_32
REMARK                            x       y       z     vdW  Elec       q    Type
REMARK                         _______ _______ _______ _____ _____    ______ ____
ROOT
ATOM      1  C   UNL A   1      43.486 -14.205 -34.441  0.00  0.00    -0.009 C 
ATOM      2  C   UNL A   1      43.552 -13.943 -32.914  0.00  0.00    -0.045 C 
ATOM      3  C   UNL A   1      44.441 -15.054 -32.321  0.00  0.00    -0.040 C 
ATOM      4  C   UNL A   1      44.214 -16.243 -33.260  0.00  0.00    +0.030 C 
ATOM      5  C   UNL A   1      42.903 -16.952 -32.877  0.00  0.00    -0.053 C 
ATOM      6  C   UNL A   1      45.295 -17.315 -33.287  0.00  0.00    +0.140 C 
ATOM      7  O   UNL A   1      46.169 -17.397 -32.428  0.00  0.00    -0.297 OA
ATOM      8  C   UNL A   1      45.166 -18.343 -34.416  0.00  0.00    +0.013 C 
ATOM      9  C   UNL A   1      45.122 -17.662 -35.825  0.00  0.00    -0.017 C 
ATOM     10  C   UNL A   1      46.593 -17.179 -36.035  0.00  0.00    -0.058 C 
ATOM     11  C   UNL A   1      44.086 -16.465 -35.816  0.00  0.00    -0.030 C 
ATOM     12  C   UNL A   1      43.948 -15.759 -37.177  0.00  0.00    -0.049 C 
ATOM     13  C   UNL A   1      44.638 -16.391 -38.381  0.00  0.00    -0.049 C 
ATOM     14  C   UNL A   1      44.789 -17.961 -38.404  0.00  0.00    -0.029 C 
ATOM     15  C   UNL A   1      44.016 -18.993 -39.746  0.00  0.00    -0.025 C 
ATOM     16  C   UNL A   1      43.226 -18.384 -39.678  0.00  0.00    -0.059 C 
ATOM     17  C   UNL A   1      44.552 -18.039 -41.202  0.00  0.00    -0.040 C 
ATOM     18  C   UNL A   1      44.142 -18.714 -42.498  0.00  0.00    +0.007 C 
ATOM     19  C   UNL A   1      44.612 -20.123 -42.420  0.00  0.00    +0.139 C 
ATOM     20  O   UNL A   1      44.867 -20.744 -43.453  0.00  0.00    -0.297 OA
ATOM     21  C   UNL A   1      44.592 -20.777 -41.028  0.00  0.00    +0.027 C 
ATOM     22  C   UNL A   1      45.720 -21.840 -41.054  0.00  0.00    -0.053 C 
ATOM     23  C   UNL A   1      43.238 -21.519 -40.925  0.00  0.00    -0.053 C 
ATOM     24  C   UNL A   1      44.806 -19.602 -39.813  0.00  0.00    -0.023 C 
ATOM     25  C   UNL A   1      45.095 -20.576 -38.513  0.00  0.00    -0.048 C 
ATOM     26  C   UNL A   1      45.474 -19.902 -37.179  0.00  0.00    -0.047 C 
ATOM     27  C   UNL A   1      44.630 -18.647 -36.987  0.00  0.00    -0.023 C 
ATOM     28  C   UNL A   1      43.181 -19.151 -36.676  0.00  0.00    -0.059 C 
ATOM     29  C   UNL A   1      44.296 -15.516 -34.623  0.00  0.00    -0.019 C 
ENDROOT
BRANCH   1  31
ATOM     30  C   UNL A   1      41.802 -13.307 -36.086  0.00  0.00    -0.092 C 
ATOM     31  C   UNL A   1      42.109 -14.108 -35.051  0.00  0.00    -0.012 C 
BRANCH  31  32
ATOM     32  C   UNL A   1      40.976 -14.917 -34.547  0.00  0.00    +0.146 C 
ATOM     33  O   UNL A   1      40.052 -14.433 -33.904  0.00  0.00    -0.296 OA
ENDBRANCH  31  32
ENDBRANCH   1  31
TORSDOF 2
ENDMDL
MODEL 16
REMARK VINA RESULT:    -6.999      3.301      5.687
REMARK INTER + INTRA:          -7.985
REMARK INTER:                  -7.662
REMARK INTRA:                  -0.323
REMARK UNBOUND:                -0.168
REMARK  Name = cpd285.pdb
REMARK  8 active torsions:
REMARK  status: ('A' for Active; 'I' for Inactive)
REMARK    1  A    between atoms: C_2  and  C_3
REMARK    2  A    between atoms: C_2  and  C_5
REMARK    3  A    between atoms: C_8  and  C_9
REMARK    4  A    between atoms: C_13  and  C_14
REMARK    5  A    between atoms: C_19  and  C_20
REMARK    6  A    between atoms: C_25  and  C_26
REMARK    7  A    between atoms: C_25  and  C_27
REMARK    8  A    between atoms: C_31  and  C_32
REMARK                            x       y       z     vdW  Elec       q    Type
REMARK                         _______ _______ _______ _____ _____    ______ ____
ROOT
ATOM      1  C   UNL A   1      41.429 -21.089 -35.408  0.00  0.00    -0.009 C 
ATOM      2  C   UNL A   1      40.263 -22.098 -35.573  0.00  0.00    -0.045 C 
ATOM      3  C   UNL A   1      40.279 -22.540 -37.050  0.00  0.00    -0.040 C 
ATOM      4  C   UNL A   1      40.840 -21.321 -37.790  0.00  0.00    +0.030 C 
ATOM      5  C   UNL A   1      39.714 -20.294 -38.007  0.00  0.00    -0.053 C 
ATOM      6  C   UNL A   1      41.466 -21.572 -39.155  0.00  0.00    +0.140 C 
ATOM      7  O   UNL A   1      41.305 -22.620 -39.776  0.00  0.00    -0.297 OA
ATOM      8  C   UNL A   1      42.243 -20.390 -39.743  0.00  0.00    +0.013 C 
ATOM      9  C   UNL A   1      43.369 -19.891 -38.777  0.00  0.00    -0.017 C 
ATOM     10  C   UNL A   1      44.444 -21.022 -38.865  0.00  0.00    -0.058 C 
ATOM     11  C   UNL A   1      42.790 -19.718 -37.314  0.00  0.00    -0.030 C 
ATOM     12  C   UNL A   1      43.821 -19.192 -36.300  0.00  0.00    -0.049 C 
ATOM     13  C   UNL A   1      45.170 -18.721 -36.834  0.00  0.00    -0.049 C 
ATOM     14  C   UNL A   1      45.211 -18.098 -38.283  0.00  0.00    -0.029 C 
ATOM     15  C   UNL A   1      45.770 -16.347 -38.573  0.00  0.00    -0.025 C 
ATOM     16  C   UNL A   1      45.266 -16.110 -37.743  0.00  0.00    -0.059 C 
ATOM     17  C   UNL A   1      47.295 -16.352 -37.577  0.00  0.00    -0.040 C 
ATOM     18  C   UNL A   1      48.051 -15.042 -37.701  0.00  0.00    +0.007 C 
ATOM     19  C   UNL A   1      48.212 -14.770 -39.155  0.00  0.00    +0.139 C 
ATOM     20  O   UNL A   1      49.162 -14.096 -39.554  0.00  0.00    -0.297 OA
ATOM     21  C   UNL A   1      47.062 -15.228 -40.069  0.00  0.00    +0.027 C 
ATOM     22  C   UNL A   1      47.717 -15.517 -41.444  0.00  0.00    -0.053 C 
ATOM     23  C   UNL A   1      46.132 -14.002 -40.231  0.00  0.00    -0.053 C 
ATOM     24  C   UNL A   1      46.274 -16.583 -39.404  0.00  0.00    -0.023 C 
ATOM     25  C   UNL A   1      45.370 -17.060 -40.700  0.00  0.00    -0.048 C 
ATOM     26  C   UNL A   1      44.564 -18.369 -40.574  0.00  0.00    -0.047 C 
ATOM     27  C   UNL A   1      43.957 -18.458 -39.178  0.00  0.00    -0.023 C 
ATOM     28  C   UNL A   1      42.814 -17.388 -39.142  0.00  0.00    -0.059 C 
ATOM     29  C   UNL A   1      42.007 -20.956 -36.843  0.00  0.00    -0.019 C 
ENDROOT
BRANCH   1  31
ATOM     30  C   UNL A   1      40.174 -18.936 -35.036  0.00  0.00    -0.092 C 
ATOM     31  C   UNL A   1      41.091 -19.835 -34.640  0.00  0.00    -0.012 C 
BRANCH  31  32
ATOM     32  C   UNL A   1      41.755 -19.506 -33.357  0.00  0.00    +0.146 C 
ATOM     33  O   UNL A   1      42.076 -18.364 -33.053  0.00  0.00    -0.296 OA
ENDBRANCH  31  32
ENDBRANCH   1  31
TORSDOF 2
ENDMDL
MODEL 17
REMARK VINA RESULT:    -6.670     16.600     19.055
REMARK INTER + INTRA:          -7.617
REMARK INTER:                  -7.268
REMARK INTRA:                  -0.349
REMARK UNBOUND:                -0.168
REMARK  Name = cpd285.pdb
REMARK  8 active torsions:
REMARK  status: ('A' for Active; 'I' for Inactive)
REMARK    1  A    between atoms: C_2  and  C_3
REMARK    2  A    between atoms: C_2  and  C_5
REMARK    3  A    between atoms: C_8  and  C_9
REMARK    4  A    between atoms: C_13  and  C_14
REMARK    5  A    between atoms: C_19  and  C_20
REMARK    6  A    between atoms: C_25  and  C_26
REMARK    7  A    between atoms: C_25  and  C_27
REMARK    8  A    between atoms: C_31  and  C_32
REMARK                            x       y       z     vdW  Elec       q    Type
REMARK                         _______ _______ _______ _____ _____    ______ ____
ROOT
ATOM      1  C   UNL A   1      27.250 -32.904 -29.833  0.00  0.00    -0.009 C 
ATOM      2  C   UNL A   1      26.529 -31.532 -29.790  0.00  0.00    -0.045 C 
ATOM      3  C   UNL A   1      27.607 -30.466 -30.069  0.00  0.00    -0.040 C 
ATOM      4  C   UNL A   1      28.891 -31.092 -29.514  0.00  0.00    +0.030 C 
ATOM      5  C   UNL A   1      28.941 -30.886 -27.990  0.00  0.00    -0.053 C 
ATOM      6  C   UNL A   1      30.208 -30.564 -30.066  0.00  0.00    +0.140 C 
ATOM      7  O   UNL A   1      30.287 -29.520 -30.709  0.00  0.00    -0.297 OA
ATOM      8  C   UNL A   1      31.447 -31.383 -29.691  0.00  0.00    +0.013 C 
ATOM      9  C   UNL A   1      31.308 -32.884 -30.116  0.00  0.00    -0.017 C 
ATOM     10  C   UNL A   1      31.452 -32.830 -31.671  0.00  0.00    -0.058 C 
ATOM     11  C   UNL A   1      29.903 -33.449 -29.657  0.00  0.00    -0.030 C 
ATOM     12  C   UNL A   1      29.693 -34.934 -30.001  0.00  0.00    -0.049 C 
ATOM     13  C   UNL A   1      30.887 -35.718 -30.536  0.00  0.00    -0.049 C 
ATOM     14  C   UNL A   1      32.325 -35.295 -30.046  0.00  0.00    -0.029 C 
ATOM     15  C   UNL A   1      33.421 -36.475 -29.114  0.00  0.00    -0.025 C 
ATOM     16  C   UNL A   1      32.596 -36.771 -28.634  0.00  0.00    -0.059 C 
ATOM     17  C   UNL A   1      33.254 -37.942 -30.182  0.00  0.00    -0.040 C 
ATOM     18  C   UNL A   1      34.144 -39.080 -29.715  0.00  0.00    +0.007 C 
ATOM     19  C   UNL A   1      35.516 -38.524 -29.565  0.00  0.00    +0.139 C 
ATOM     20  O   UNL A   1      36.495 -39.260 -29.688  0.00  0.00    -0.297 OA
ATOM     21  C   UNL A   1      35.615 -37.063 -29.095  0.00  0.00    +0.027 C 
ATOM     22  C   UNL A   1      36.941 -36.525 -29.694  0.00  0.00    -0.053 C 
ATOM     23  C   UNL A   1      35.774 -37.119 -27.557  0.00  0.00    -0.053 C 
ATOM     24  C   UNL A   1      34.247 -36.180 -29.594  0.00  0.00    -0.023 C 
ATOM     25  C   UNL A   1      34.763 -34.642 -29.289  0.00  0.00    -0.048 C 
ATOM     26  C   UNL A   1      33.851 -33.477 -29.721  0.00  0.00    -0.047 C 
ATOM     27  C   UNL A   1      32.397 -33.837 -29.434  0.00  0.00    -0.023 C 
ATOM     28  C   UNL A   1      32.245 -33.787 -27.877  0.00  0.00    -0.059 C 
ATOM     29  C   UNL A   1      28.739 -32.529 -30.066  0.00  0.00    -0.019 C 
ENDROOT
BRANCH   1  31
ATOM     30  C   UNL A   1      27.144 -33.592 -27.412  0.00  0.00    -0.092 C 
ATOM     31  C   UNL A   1      26.904 -33.849 -28.708  0.00  0.00    -0.012 C 
BRANCH  31  32
ATOM     32  C   UNL A   1      26.249 -35.153 -28.963  0.00  0.00    +0.146 C 
ATOM     33  O   UNL A   1      26.196 -35.660 -30.076  0.00  0.00    -0.296 OA
ENDBRANCH  31  32
ENDBRANCH   1  31
TORSDOF 2
ENDMDL
MODEL 18
REMARK VINA RESULT:    -6.621      4.632      7.240
REMARK INTER + INTRA:          -7.563
REMARK INTER:                  -7.302
REMARK INTRA:                  -0.261
REMARK UNBOUND:                -0.168
REMARK  Name = cpd285.pdb
REMARK  8 active torsions:
REMARK  status: ('A' for Active; 'I' for Inactive)
REMARK    1  A    between atoms: C_2  and  C_3
REMARK    2  A    between atoms: C_2  and  C_5
REMARK    3  A    between atoms: C_8  and  C_9
REMARK    4  A    between atoms: C_13  and  C_14
REMARK    5  A    between atoms: C_19  and  C_20
REMARK    6  A    between atoms: C_25  and  C_26
REMARK    7  A    between atoms: C_25  and  C_27
REMARK    8  A    between atoms: C_31  and  C_32
REMARK                            x       y       z     vdW  Elec       q    Type
REMARK                         _______ _______ _______ _____ _____    ______ ____
ROOT
ATOM      1  C   UNL A   1      42.871 -19.136 -36.496  0.00  0.00    -0.009 C 
ATOM      2  C   UNL A   1      42.957 -20.099 -35.284  0.00  0.00    -0.045 C 
ATOM      3  C   UNL A   1      44.195 -19.667 -34.473  0.00  0.00    -0.040 C 
ATOM      4  C   UNL A   1      45.139 -19.086 -35.530  0.00  0.00    +0.030 C 
ATOM      5  C   UNL A   1      45.881 -20.233 -36.237  0.00  0.00    -0.053 C 
ATOM      6  C   UNL A   1      46.207 -18.116 -35.042  0.00  0.00    +0.140 C 
ATOM      7  O   UNL A   1      46.500 -17.995 -33.854  0.00  0.00    -0.297 OA
ATOM      8  C   UNL A   1      46.954 -17.359 -36.144  0.00  0.00    +0.013 C 
ATOM      9  C   UNL A   1      45.975 -16.573 -37.081  0.00  0.00    -0.017 C 
ATOM     10  C   UNL A   1      45.496 -15.387 -36.185  0.00  0.00    -0.058 C 
ATOM     11  C   UNL A   1      44.784 -17.513 -37.531  0.00  0.00    -0.030 C 
ATOM     12  C   UNL A   1      43.790 -16.834 -38.489  0.00  0.00    -0.049 C 
ATOM     13  C   UNL A   1      44.155 -15.459 -39.038  0.00  0.00    -0.049 C 
ATOM     14  C   UNL A   1      45.684 -15.132 -39.247  0.00  0.00    -0.029 C 
ATOM     15  C   UNL A   1      46.372 -14.726 -40.928  0.00  0.00    -0.025 C 
ATOM     16  C   UNL A   1      45.773 -15.443 -41.282  0.00  0.00    -0.059 C 
ATOM     17  C   UNL A   1      45.132 -13.505 -41.469  0.00  0.00    -0.040 C 
ATOM     18  C   UNL A   1      45.491 -12.899 -42.813  0.00  0.00    +0.007 C 
ATOM     19  C   UNL A   1      46.894 -12.415 -42.710  0.00  0.00    +0.139 C 
ATOM     20  O   UNL A   1      47.276 -11.481 -43.415  0.00  0.00    -0.297 OA
ATOM     21  C   UNL A   1      47.840 -13.241 -41.822  0.00  0.00    +0.027 C 
ATOM     22  C   UNL A   1      48.900 -12.237 -41.300  0.00  0.00    -0.053 C 
ATOM     23  C   UNL A   1      48.551 -14.238 -42.768  0.00  0.00    -0.053 C 
ATOM     24  C   UNL A   1      46.971 -14.008 -40.574  0.00  0.00    -0.023 C 
ATOM     25  C   UNL A   1      48.216 -14.501 -39.610  0.00  0.00    -0.048 C 
ATOM     26  C   UNL A   1      47.867 -15.155 -38.258  0.00  0.00    -0.047 C 
ATOM     27  C   UNL A   1      46.664 -16.075 -38.437  0.00  0.00    -0.023 C 
ATOM     28  C   UNL A   1      47.187 -17.307 -39.250  0.00  0.00    -0.059 C 
ATOM     29  C   UNL A   1      44.130 -18.240 -36.342  0.00  0.00    -0.019 C 
ENDROOT
BRANCH   1  31
ATOM     30  C   UNL A   1      41.550 -19.514 -38.607  0.00  0.00    -0.092 C 
ATOM     31  C   UNL A   1      42.605 -19.798 -37.826  0.00  0.00    -0.012 C 
BRANCH  31  32
ATOM     32  C   UNL A   1      43.519 -20.824 -38.380  0.00  0.00    +0.146 C 
ATOM     33  O   UNL A   1      44.087 -20.690 -39.456  0.00  0.00    -0.296 OA
ENDBRANCH  31  32
ENDBRANCH   1  31
TORSDOF 2
ENDMDL
MODEL 19
REMARK VINA RESULT:    -6.608      4.877      8.245
REMARK INTER + INTRA:          -7.549
REMARK INTER:                  -7.387
REMARK INTRA:                  -0.162
REMARK UNBOUND:                -0.168
REMARK  Name = cpd285.pdb
REMARK  8 active torsions:
REMARK  status: ('A' for Active; 'I' for Inactive)
REMARK    1  A    between atoms: C_2  and  C_3
REMARK    2  A    between atoms: C_2  and  C_5
REMARK    3  A    between atoms: C_8  and  C_9
REMARK    4  A    between atoms: C_13  and  C_14
REMARK    5  A    between atoms: C_19  and  C_20
REMARK    6  A    between atoms: C_25  and  C_26
REMARK    7  A    between atoms: C_25  and  C_27
REMARK    8  A    between atoms: C_31  and  C_32
REMARK                            x       y       z     vdW  Elec       q    Type
REMARK                         _______ _______ _______ _____ _____    ______ ____
ROOT
ATOM      1  C   UNL A   1      43.279 -19.910 -40.652  0.00  0.00    -0.009 C 
ATOM      2  C   UNL A   1      42.612 -21.131 -39.968  0.00  0.00    -0.045 C 
ATOM      3  C   UNL A   1      42.552 -20.805 -38.463  0.00  0.00    -0.040 C 
ATOM      4  C   UNL A   1      43.767 -19.901 -38.236  0.00  0.00    +0.030 C 
ATOM      5  C   UNL A   1      45.030 -20.769 -38.099  0.00  0.00    -0.053 C 
ATOM      6  C   UNL A   1      43.731 -18.991 -37.015  0.00  0.00    +0.140 C 
ATOM      7  O   UNL A   1      42.926 -19.142 -36.100  0.00  0.00    -0.297 OA
ATOM      8  C   UNL A   1      44.829 -17.924 -36.965  0.00  0.00    +0.013 C 
ATOM      9  C   UNL A   1      44.826 -17.020 -38.244  0.00  0.00    -0.017 C 
ATOM     10  C   UNL A   1      43.550 -16.139 -38.056  0.00  0.00    -0.058 C 
ATOM     11  C   UNL A   1      44.754 -17.921 -39.543  0.00  0.00    -0.030 C 
ATOM     12  C   UNL A   1      44.785 -17.116 -40.854  0.00  0.00    -0.049 C 
ATOM     13  C   UNL A   1      45.076 -15.622 -40.767  0.00  0.00    -0.049 C 
ATOM     14  C   UNL A   1      46.011 -15.121 -39.599  0.00  0.00    -0.029 C 
ATOM     15  C   UNL A   1      47.621 -14.253 -39.946  0.00  0.00    -0.025 C 
ATOM     16  C   UNL A   1      47.748 -14.911 -40.688  0.00  0.00    -0.059 C 
ATOM     17  C   UNL A   1      47.049 -13.051 -41.190  0.00  0.00    -0.040 C 
ATOM     18  C   UNL A   1      48.159 -12.103 -41.605  0.00  0.00    +0.007 C 
ATOM     19  C   UNL A   1      48.738 -11.538 -40.356  0.00  0.00    +0.139 C 
ATOM     20  O   UNL A   1      49.272 -10.430 -40.372  0.00  0.00    -0.297 OA
ATOM     21  C   UNL A   1      48.772 -12.472 -39.134  0.00  0.00    +0.027 C 
ATOM     22  C   UNL A   1      48.697 -11.538 -37.898  0.00  0.00    -0.053 C 
ATOM     23  C   UNL A   1      50.169 -13.138 -39.145  0.00  0.00    -0.053 C 
ATOM     24  C   UNL A   1      47.494 -13.595 -39.204  0.00  0.00    -0.023 C 
ATOM     25  C   UNL A   1      47.551 -14.200 -37.670  0.00  0.00    -0.048 C 
ATOM     26  C   UNL A   1      46.453 -15.195 -37.246  0.00  0.00    -0.047 C 
ATOM     27  C   UNL A   1      46.156 -16.145 -38.401  0.00  0.00    -0.023 C 
ATOM     28  C   UNL A   1      47.401 -17.087 -38.509  0.00  0.00    -0.059 C 
ATOM     29  C   UNL A   1      43.633 -18.973 -39.467  0.00  0.00    -0.019 C 
ENDROOT
BRANCH   1  31
ATOM     30  C   UNL A   1      44.347 -19.803 -42.932  0.00  0.00    -0.092 C 
ATOM     31  C   UNL A   1      44.349 -20.244 -41.663  0.00  0.00    -0.012 C 
BRANCH  31  32
ATOM     32  C   UNL A   1      45.511 -21.094 -41.313  0.00  0.00    +0.146 C 
ATOM     33  O   UNL A   1      45.928 -21.979 -42.049  0.00  0.00    -0.296 OA
ENDBRANCH  31  32
ENDBRANCH   1  31
TORSDOF 2
ENDMDL
MODEL 20
REMARK VINA RESULT:    -6.466      2.797      7.904
REMARK INTER + INTRA:          -7.390
REMARK INTER:                  -7.110
REMARK INTRA:                  -0.280
REMARK UNBOUND:                -0.168
REMARK  Name = cpd285.pdb
REMARK  8 active torsions:
REMARK  status: ('A' for Active; 'I' for Inactive)
REMARK    1  A    between atoms: C_2  and  C_3
REMARK    2  A    between atoms: C_2  and  C_5
REMARK    3  A    between atoms: C_8  and  C_9
REMARK    4  A    between atoms: C_13  and  C_14
REMARK    5  A    between atoms: C_19  and  C_20
REMARK    6  A    between atoms: C_25  and  C_26
REMARK    7  A    between atoms: C_25  and  C_27
REMARK    8  A    between atoms: C_31  and  C_32
REMARK                            x       y       z     vdW  Elec       q    Type
REMARK                         _______ _______ _______ _____ _____    ______ ____
ROOT
ATOM      1  C   UNL A   1      45.776 -20.059 -38.019  0.00  0.00    -0.009 C 
ATOM      2  C   UNL A   1      47.286 -19.717 -38.105  0.00  0.00    -0.045 C 
ATOM      3  C   UNL A   1      47.648 -19.018 -36.779  0.00  0.00    -0.040 C 
ATOM      4  C   UNL A   1      46.348 -18.321 -36.367  0.00  0.00    +0.030 C 
ATOM      5  C   UNL A   1      46.211 -16.998 -37.142  0.00  0.00    -0.053 C 
ATOM      6  C   UNL A   1      46.188 -17.978 -34.892  0.00  0.00    +0.140 C 
ATOM      7  O   UNL A   1      47.129 -17.993 -34.102  0.00  0.00    -0.297 OA
ATOM      8  C   UNL A   1      44.784 -17.528 -34.476  0.00  0.00    +0.013 C 
ATOM      9  C   UNL A   1      43.694 -18.588 -34.849  0.00  0.00    -0.017 C 
ATOM     10  C   UNL A   1      43.949 -19.739 -33.824  0.00  0.00    -0.058 C 
ATOM     11  C   UNL A   1      43.887 -19.059 -36.348  0.00  0.00    -0.030 C 
ATOM     12  C   UNL A   1      42.832 -20.077 -36.816  0.00  0.00    -0.049 C 
ATOM     13  C   UNL A   1      41.650 -20.353 -35.893  0.00  0.00    -0.049 C 
ATOM     14  C   UNL A   1      41.147 -19.178 -34.968  0.00  0.00    -0.029 C 
ATOM     15  C   UNL A   1      39.417 -18.505 -35.104  0.00  0.00    -0.025 C 
ATOM     16  C   UNL A   1      39.521 -18.598 -36.094  0.00  0.00    -0.059 C 
ATOM     17  C   UNL A   1      38.488 -20.073 -35.115  0.00  0.00    -0.040 C 
ATOM     18  C   UNL A   1      36.989 -19.836 -35.119  0.00  0.00    +0.007 C 
ATOM     19  C   UNL A   1      36.694 -18.900 -34.000  0.00  0.00    +0.139 C 
ATOM     20  O   UNL A   1      35.589 -18.917 -33.459  0.00  0.00    -0.297 OA
ATOM     21  C   UNL A   1      37.765 -17.838 -33.696  0.00  0.00    +0.027 C 
ATOM     22  C   UNL A   1      37.618 -17.525 -32.184  0.00  0.00    -0.053 C 
ATOM     23  C   UNL A   1      37.350 -16.575 -34.488  0.00  0.00    -0.053 C 
ATOM     24  C   UNL A   1      39.313 -18.412 -34.114  0.00  0.00    -0.023 C 
ATOM     25  C   UNL A   1      40.255 -17.274 -33.380  0.00  0.00    -0.048 C 
ATOM     26  C   UNL A   1      41.783 -17.480 -33.402  0.00  0.00    -0.047 C 
ATOM     27  C   UNL A   1      42.202 -18.016 -34.767  0.00  0.00    -0.023 C 
ATOM     28  C   UNL A   1      42.038 -16.820 -35.764  0.00  0.00    -0.059 C 
ATOM     29  C   UNL A   1      45.341 -19.459 -36.655  0.00  0.00    -0.019 C 
ENDROOT
BRANCH   1  31
ATOM     30  C   UNL A   1      44.855 -18.492 -39.763  0.00  0.00    -0.092 C 
ATOM     31  C   UNL A   1      44.970 -19.729 -39.252  0.00  0.00    -0.012 C 
BRANCH  31  32
ATOM     32  C   UNL A   1      44.242 -20.774 -40.008  0.00  0.00    +0.146 C 
ATOM     33  O   UNL A   1      44.626 -21.193 -41.092  0.00  0.00    -0.296 OA
ENDBRANCH  31  32
ENDBRANCH   1  31
TORSDOF 2
ENDMDL
