@<TRIPOS>MOLECULE
*****
 44 48 0 0 0
SMALL
GASTEIGER

@<TRIPOS>ATOM
      1 C           0.8660    1.5000    0.0000 C.3     1  UNL1        0.0307
      2 C           0.8660    0.5000    0.0000 C.ar    1  UNL1       -0.0245
      3 C           1.7321   -0.0000    0.0000 C.ar    1  UNL1       -0.0045
      4 C           1.7321   -1.0000    0.0000 C.ar    1  UNL1        0.0010
      5 C           0.8660   -1.5000    0.0000 C.ar    1  UNL1        0.0162
      6 C          -0.0000   -1.0000    0.0000 C.ar    1  UNL1        0.0662
      7 N          -0.8660   -1.5000    0.0000 N.pl3   1  UNL1       -0.2127
      8 C          -0.8660   -2.5000    0.0000 C.ar    1  UNL1        0.0749
      9 C          -0.0000   -3.0000    0.0000 C.ar    1  UNL1        0.0167
     10 C          -0.0000   -4.0000    0.0000 C.ar    1  UNL1        0.0013
     11 C          -0.8660   -4.5000    0.0000 C.ar    1  UNL1        0.0002
     12 C          -1.7321   -4.0000    0.0000 C.ar    1  UNL1        0.0059
     13 C          -1.7321   -3.0000    0.0000 C.ar    1  UNL1        0.0703
     14 C          -2.5981   -2.5000    0.0000 C.2     1  UNL1        0.2665
     15 O          -2.5981   -1.5000    0.0000 O.2     1  UNL1       -0.2683
     16 N          -3.4641   -3.0000    0.0000 N.am    1  UNL1       -0.1916
     17 C          -4.3301   -2.5000    0.0000 C.3     1  UNL1        0.2017
     18 C          -5.1962   -3.0000    0.0000 C.2     1  UNL1        0.2635
     19 O          -6.0622   -2.5000    0.0000 O.2     1  UNL1       -0.2714
     20 N          -5.1962   -4.0000    0.0000 N.am    1  UNL1       -0.2039
     21 C          -6.0622   -4.5000    0.0000 C.3     1  UNL1        0.1152
     22 C          -6.9282   -4.0000    0.0000 C.3     1  UNL1        0.0234
     23 C          -7.7942   -4.5000    0.0000 C.3     1  UNL1        0.0019
     24 C          -8.6603   -4.0000    0.0000 C.3     1  UNL1        0.0019
     25 C          -9.5263   -4.5000    0.0000 C.3     1  UNL1        0.0233
     26 C         -10.3923   -4.0000    0.0000 C.3     1  UNL1        0.1122
     27 N         -11.2583   -4.5000    0.0000 N.pl3   1  UNL1       -0.2378
     28 C         -12.1244   -4.0000    0.0000 C.ar    1  UNL1        0.0638
     29 C         -12.9904   -4.5000    0.0000 C.ar    1  UNL1        0.0062
     30 C         -13.8564   -4.0000    0.0000 C.ar    1  UNL1        0.0562
     31 N         -13.8564   -3.0000    0.0000 N.ar    1  UNL1       -0.2499
     32 C         -12.9904   -2.5000    0.0000 C.ar    1  UNL1        0.0829
     33 C         -12.9904   -1.5000    0.0000 C.ar    1  UNL1        0.0305
     34 C         -12.1244   -1.0000    0.0000 C.ar    1  UNL1        0.0592
     35 CL        -12.1244    0.0000    0.0000 Cl      1  UNL1       -0.0822
     36 C         -11.2583   -1.5000    0.0000 C.ar    1  UNL1        0.0115
     37 C         -11.2583   -2.5000    0.0000 C.ar    1  UNL1        0.0036
     38 C         -12.1244   -3.0000    0.0000 C.ar    1  UNL1        0.0323
     39 C         -14.7224   -4.5000    0.0000 C.3     1  UNL1        0.0455
     40 C         -14.7224   -5.5000    0.0000 C.3     1  UNL1        0.0066
     41 C         -13.8564   -6.0000    0.0000 C.3     1  UNL1        0.0052
     42 C         -12.9904   -5.5000    0.0000 C.3     1  UNL1        0.0289
     43 C           0.0000   -0.0000    0.0000 C.ar    1  UNL1       -0.0105
     44 C          -0.8660    0.5000    0.0000 C.3     1  UNL1        0.0321
@<TRIPOS>BOND
     1     1     2    1
     2     2     3   ar
     3     3     4   ar
     4     4     5   ar
     5     5     6   ar
     6     6     7    1
     7     7     8    1
     8     8     9   ar
     9     9    10   ar
    10    10    11   ar
    11    11    12   ar
    12    12    13   ar
    13     8    13   ar
    14    13    14    1
    15    14    15    2
    16    14    16   am
    17    16    17    1
    18    17    18    1
    19    18    19    2
    20    18    20   am
    21    20    21    1
    22    21    22    1
    23    22    23    1
    24    23    24    1
    25    24    25    1
    26    25    26    1
    27    26    27    1
    28    27    28    1
    29    28    29   ar
    30    29    30   ar
    31    30    31   ar
    32    31    32   ar
    33    32    33   ar
    34    33    34   ar
    35    34    35    1
    36    34    36   ar
    37    36    37   ar
    38    37    38   ar
    39    28    38   ar
    40    32    38   ar
    41    30    39    1
    42    39    40    1
    43    40    41    1
    44    41    42    1
    45    29    42    1
    46     6    43   ar
    47     2    43   ar
    48    43    44    1
