REMARK  Name = cpd49.pdb
REMARK  15 active torsions:
REMARK  status: ('A' for Active; 'I' for Inactive)
REMARK    1  A    between atoms: C_1  and  C_2
REMARK    2  A    between atoms: C_6  and  N_7
REMARK    3  A    between atoms: N_7  and  C_8
REMARK    4  A    between atoms: C_13  and  C_14
REMARK    5  A    between atoms: N_16  and  C_17
REMARK    6  A    between atoms: C_17  and  C_18
REMARK    7  A    between atoms: N_20  and  C_21
REMARK    8  A    between atoms: C_21  and  C_22
REMARK    9  A    between atoms: C_22  and  C_23
REMARK   10  A    between atoms: C_23  and  C_24
REMARK   11  A    between atoms: C_24  and  C_25
REMARK   12  A    between atoms: C_25  and  C_26
REMARK   13  A    between atoms: C_26  and  N_27
REMARK   14  A    between atoms: N_27  and  C_28
REMARK   15  A    between atoms: C_43  and  C_44
REMARK                            x       y       z     vdW  Elec       q    Type
REMARK                         _______ _______ _______ _____ _____    ______ ____
ROOT
ATOM      1  C   UNL A   1      -4.774  -2.943   0.424  0.00  0.00    +0.230 C 
ATOM      2  O   UNL A   1      -5.610  -2.157   0.859  0.00  0.00    -0.274 OA
ATOM      3  N   UNL A   1      -4.682  -4.269   0.811  0.00  0.00    -0.314 N 
ATOM      4  H   UNL A   1      -4.168  -4.886   0.241  0.00  0.00    +0.000 HD
ENDROOT
BRANCH   1   5
ATOM      5  C   UNL A   1      -3.868  -2.588  -0.763  0.00  0.00    +0.088 C 
BRANCH   5   8
ATOM      6  C   UNL A   1      -1.591  -3.093  -0.027  0.00  0.00    +0.246 C 
ATOM      7  O   UNL A   1      -1.673  -2.295   0.901  0.00  0.00    -0.270 OA
ATOM      8  N   UNL A   1      -2.661  -3.408  -0.846  0.00  0.00    -0.303 N 
ATOM      9  H   UNL A   1      -2.610  -4.167  -1.471  0.00  0.00    +0.000 HD
BRANCH   6  15
ATOM     10  C   UNL A   1       0.914  -3.032  -0.150  0.00  0.00    +0.044 A 
ATOM     11  C   UNL A   1       2.120  -3.684  -0.446  0.00  0.00    -0.040 A 
ATOM     12  C   UNL A   1       2.137  -5.002  -0.910  0.00  0.00    -0.060 A 
ATOM     13  C   UNL A   1       0.943  -5.695  -1.088  0.00  0.00    -0.061 A 
ATOM     14  C   UNL A   1      -0.272  -5.072  -0.803  0.00  0.00    -0.048 A 
ATOM     15  C   UNL A   1      -0.291  -3.745  -0.342  0.00  0.00    +0.058 A 
BRANCH  10  16
ATOM     16  N   UNL A   1       0.907  -1.688   0.286  0.00  0.00    -0.314 N 
ATOM     17  H   UNL A   1       0.304  -1.512   1.044  0.00  0.00    +0.000 HD
BRANCH  16  23
ATOM     18  C   UNL A   1       2.259   3.099   0.881  0.00  0.00    -0.039 C 
ATOM     19  C   UNL A   1       2.282   1.793   0.131  0.00  0.00    -0.046 A 
ATOM     20  C   UNL A   1       3.022   1.720  -1.057  0.00  0.00    -0.058 A 
ATOM     21  C   UNL A   1       3.068   0.542  -1.792  0.00  0.00    -0.060 A 
ATOM     22  C   UNL A   1       2.366  -0.579  -1.353  0.00  0.00    -0.040 A 
ATOM     23  C   UNL A   1       1.611  -0.549  -0.172  0.00  0.00    +0.035 A 
ATOM     24  C   UNL A   1       1.599   0.643   0.600  0.00  0.00    -0.026 A 
ATOM     25  C   UNL A   1       0.810   0.696   1.888  0.00  0.00    -0.038 C 
ENDBRANCH  16  23
ENDBRANCH  10  16
ENDBRANCH   6  15
ENDBRANCH   5   8
ENDBRANCH   1   5
BRANCH   3  26
ATOM     26  C   UNL A   1      -5.301  -4.799   2.009  0.00  0.00    +0.012 C 
BRANCH  26  27
ATOM     27  C   UNL A   1      -6.798  -4.544   2.181  0.00  0.00    -0.037 C 
BRANCH  27  28
ATOM     28  C   UNL A   1      -7.652  -4.966   0.983  0.00  0.00    -0.052 C 
BRANCH  28  29
ATOM     29  C   UNL A   1      -9.126  -4.648   1.246  0.00  0.00    -0.052 C 
BRANCH  29  30
ATOM     30  C   UNL A   1      -9.996  -4.872   0.009  0.00  0.00    -0.037 C 
BRANCH  30  31
ATOM     31  C   UNL A   1     -11.446  -4.471   0.288  0.00  0.00    +0.009 C 
BRANCH  31  32
ATOM     32  N   UNL A   1     -12.217  -4.546  -0.961  0.00  0.00    -0.343 N 
ATOM     33  H   UNL A   1     -11.888  -4.963  -1.790  0.00  0.00    +0.000 HD
BRANCH  32  34
ATOM     34  C   UNL A   1     -13.502  -3.940  -0.825  0.00  0.00    +0.041 A 
ATOM     35  C   UNL A   1     -14.632  -4.713  -0.492  0.00  0.00    -0.005 A 
ATOM     36  C   UNL A   1     -15.844  -4.040  -0.311  0.00  0.00    +0.047 A 
ATOM     37  N   UNL A   1     -15.966  -2.693  -0.387  0.00  0.00    -0.251 NA
ATOM     38  C   UNL A   1     -14.890  -1.957  -0.688  0.00  0.00    +0.074 A 
ATOM     39  C   UNL A   1     -15.043  -0.581  -0.768  0.00  0.00    -0.017 A 
ATOM     40  C   UNL A   1     -13.972   0.250  -1.088  0.00  0.00    +0.043 A 
ATOM     41 CL   UNL A   1     -14.204   1.953  -1.175  0.00  0.00    -0.083 Cl
ATOM     42  C   UNL A   1     -12.720  -0.288  -1.345  0.00  0.00    -0.043 A 
ATOM     43  C   UNL A   1     -12.549  -1.669  -1.268  0.00  0.00    -0.049 A 
ATOM     44  C   UNL A   1     -13.623  -2.525  -0.925  0.00  0.00    +0.022 A 
ATOM     45  C   UNL A   1     -17.112  -4.769   0.055  0.00  0.00    -0.010 C 
ATOM     46  C   UNL A   1     -17.073  -6.253  -0.288  0.00  0.00    -0.047 C 
ATOM     47  C   UNL A   1     -15.789  -6.867   0.248  0.00  0.00    -0.049 C 
ATOM     48  C   UNL A   1     -14.570  -6.220  -0.409  0.00  0.00    -0.024 C 
ENDBRANCH  32  34
ENDBRANCH  31  32
ENDBRANCH  30  31
ENDBRANCH  29  30
ENDBRANCH  28  29
ENDBRANCH  27  28
ENDBRANCH  26  27
ENDBRANCH   3  26
TORSDOF 13
