MODEL 1
REMARK VINA RESULT:    -7.912      0.000      0.000
REMARK INTER + INTRA:         -18.771
REMARK INTER:                 -13.926
REMARK INTRA:                  -4.845
REMARK UNBOUND:                -4.845
REMARK  Name = cpd49.pdb
REMARK  15 active torsions:
REMARK  status: ('A' for Active; 'I' for Inactive)
REMARK    1  A    between atoms: C_1  and  C_2
REMARK    2  A    between atoms: C_6  and  N_7
REMARK    3  A    between atoms: N_7  and  C_8
REMARK    4  A    between atoms: C_13  and  C_14
REMARK    5  A    between atoms: N_16  and  C_17
REMARK    6  A    between atoms: C_17  and  C_18
REMARK    7  A    between atoms: N_20  and  C_21
REMARK    8  A    between atoms: C_21  and  C_22
REMARK    9  A    between atoms: C_22  and  C_23
REMARK   10  A    between atoms: C_23  and  C_24
REMARK   11  A    between atoms: C_24  and  C_25
REMARK   12  A    between atoms: C_25  and  C_26
REMARK   13  A    between atoms: C_26  and  N_27
REMARK   14  A    between atoms: N_27  and  C_28
REMARK   15  A    between atoms: C_43  and  C_44
REMARK                            x       y       z     vdW  Elec       q    Type
REMARK                         _______ _______ _______ _____ _____    ______ ____
ROOT
ATOM      1  C   UNL A   1      31.660 -38.028 -32.870  0.00  0.00    +0.230 C 
ATOM      2  O   UNL A   1      30.836 -38.536 -32.115  0.00  0.00    -0.274 OA
ATOM      3  N   UNL A   1      32.868 -38.615 -33.206  0.00  0.00    -0.314 N 
ATOM      4  H   UNL A   1      33.345 -38.278 -33.998  0.00  0.00    +0.000 HD
ENDROOT
BRANCH   1   5
ATOM      5  C   UNL A   1      31.339 -36.773 -33.693  0.00  0.00    +0.088 C 
BRANCH   5   8
ATOM      6  C   UNL A   1      32.985 -35.065 -33.100  0.00  0.00    +0.246 C 
ATOM      7  O   UNL A   1      33.813 -35.540 -33.871  0.00  0.00    -0.270 OA
ATOM      8  N   UNL A   1      31.683 -35.524 -33.017  0.00  0.00    -0.303 N 
ATOM      9  H   UNL A   1      31.002 -35.020 -32.514  0.00  0.00    +0.000 HD
BRANCH   6  15
ATOM     10  C   UNL A   1      34.653 -33.975 -31.574  0.00  0.00    +0.044 A 
ATOM     11  C   UNL A   1      34.984 -32.920 -30.712  0.00  0.00    -0.040 A 
ATOM     12  C   UNL A   1      34.080 -31.886 -30.450  0.00  0.00    -0.060 A 
ATOM     13  C   UNL A   1      32.823 -31.890 -31.048  0.00  0.00    -0.061 A 
ATOM     14  C   UNL A   1      32.465 -32.927 -31.909  0.00  0.00    -0.048 A 
ATOM     15  C   UNL A   1      33.370 -33.970 -32.169  0.00  0.00    +0.058 A 
BRANCH  10  16
ATOM     16  N   UNL A   1      35.561 -35.032 -31.805  0.00  0.00    -0.314 N 
ATOM     17  H   UNL A   1      35.664 -35.278 -32.753  0.00  0.00    +0.000 HD
BRANCH  16  23
ATOM     18  C   UNL A   1      39.967 -37.087 -30.597  0.00  0.00    -0.039 C 
ATOM     19  C   UNL A   1      38.515 -36.795 -30.323  0.00  0.00    -0.046 A 
ATOM     20  C   UNL A   1      37.940 -37.313 -29.155  0.00  0.00    -0.058 A 
ATOM     21  C   UNL A   1      36.602 -37.082 -28.860  0.00  0.00    -0.060 A 
ATOM     22  C   UNL A   1      35.817 -36.336 -29.737  0.00  0.00    -0.040 A 
ATOM     23  C   UNL A   1      36.350 -35.802 -30.918  0.00  0.00    +0.035 A 
ATOM     24  C   UNL A   1      37.728 -36.004 -31.197  0.00  0.00    -0.026 A 
ATOM     25  C   UNL A   1      38.334 -35.421 -32.453  0.00  0.00    -0.038 C 
ENDBRANCH  16  23
ENDBRANCH  10  16
ENDBRANCH   6  15
ENDBRANCH   5   8
ENDBRANCH   1   5
BRANCH   3  26
ATOM     26  C   UNL A   1      33.469 -39.698 -32.455  0.00  0.00    +0.012 C 
BRANCH  26  27
ATOM     27  C   UNL A   1      34.741 -39.372 -31.673  0.00  0.00    -0.037 C 
BRANCH  27  28
ATOM     28  C   UNL A   1      35.613 -40.588 -31.349  0.00  0.00    -0.052 C 
BRANCH  28  29
ATOM     29  C   UNL A   1      35.973 -40.599 -29.862  0.00  0.00    -0.052 C 
BRANCH  29  30
ATOM     30  C   UNL A   1      34.795 -41.024 -28.984  0.00  0.00    -0.037 C 
BRANCH  30  31
ATOM     31  C   UNL A   1      34.723 -40.161 -27.723  0.00  0.00    +0.009 C 
BRANCH  31  32
ATOM     32  N   UNL A   1      33.313 -39.919 -27.384  0.00  0.00    -0.343 N 
ATOM     33  H   UNL A   1      32.579 -40.541 -27.592  0.00  0.00    +0.000 HD
BRANCH  32  34
ATOM     34  C   UNL A   1      33.139 -38.669 -26.716  0.00  0.00    +0.041 A 
ATOM     35  C   UNL A   1      32.748 -37.519 -27.429  0.00  0.00    -0.005 A 
ATOM     36  C   UNL A   1      32.533 -36.347 -26.697  0.00  0.00    +0.047 A 
ATOM     37  N   UNL A   1      32.629 -36.285 -25.347  0.00  0.00    -0.251 NA
ATOM     38  C   UNL A   1      32.984 -37.382 -24.668  0.00  0.00    +0.074 A 
ATOM     39  C   UNL A   1      33.084 -37.290 -23.287  0.00  0.00    -0.017 A 
ATOM     40  C   UNL A   1      33.460 -38.384 -22.513  0.00  0.00    +0.043 A 
ATOM     41 CL   UNL A   1      33.569 -38.229 -20.803  0.00  0.00    -0.083 Cl
ATOM     42  C   UNL A   1      33.755 -39.599 -23.114  0.00  0.00    -0.043 A 
ATOM     43  C   UNL A   1      33.660 -39.709 -24.500  0.00  0.00    -0.049 A 
ATOM     44  C   UNL A   1      33.260 -38.610 -25.298  0.00  0.00    +0.022 A 
ATOM     45  C   UNL A   1      32.105 -35.062 -27.359  0.00  0.00    -0.010 C 
ATOM     46  C   UNL A   1      32.422 -35.019 -28.849  0.00  0.00    -0.047 C 
ATOM     47  C   UNL A   1      31.925 -36.293 -29.514  0.00  0.00    -0.049 C 
ATOM     48  C   UNL A   1      32.640 -37.514 -28.936  0.00  0.00    -0.024 C 
ENDBRANCH  32  34
ENDBRANCH  31  32
ENDBRANCH  30  31
ENDBRANCH  29  30
ENDBRANCH  28  29
ENDBRANCH  27  28
ENDBRANCH  26  27
ENDBRANCH   3  26
TORSDOF 13
ENDMDL
MODEL 2
REMARK VINA RESULT:    -7.294     17.179     21.625
REMARK INTER + INTRA:         -17.681
REMARK INTER:                 -13.347
REMARK INTRA:                  -4.335
REMARK UNBOUND:                -4.845
REMARK  Name = cpd49.pdb
REMARK  15 active torsions:
REMARK  status: ('A' for Active; 'I' for Inactive)
REMARK    1  A    between atoms: C_1  and  C_2
REMARK    2  A    between atoms: C_6  and  N_7
REMARK    3  A    between atoms: N_7  and  C_8
REMARK    4  A    between atoms: C_13  and  C_14
REMARK    5  A    between atoms: N_16  and  C_17
REMARK    6  A    between atoms: C_17  and  C_18
REMARK    7  A    between atoms: N_20  and  C_21
REMARK    8  A    between atoms: C_21  and  C_22
REMARK    9  A    between atoms: C_22  and  C_23
REMARK   10  A    between atoms: C_23  and  C_24
REMARK   11  A    between atoms: C_24  and  C_25
REMARK   12  A    between atoms: C_25  and  C_26
REMARK   13  A    between atoms: C_26  and  N_27
REMARK   14  A    between atoms: N_27  and  C_28
REMARK   15  A    between atoms: C_43  and  C_44
REMARK                            x       y       z     vdW  Elec       q    Type
REMARK                         _______ _______ _______ _____ _____    ______ ____
ROOT
ATOM      1  C   UNL A   1      46.043 -18.786 -35.091  0.00  0.00    +0.230 C 
ATOM      2  O   UNL A   1      45.620 -17.766 -34.555  0.00  0.00    -0.274 OA
ATOM      3  N   UNL A   1      45.347 -19.982 -35.136  0.00  0.00    -0.314 N 
ATOM      4  H   UNL A   1      45.630 -20.661 -35.791  0.00  0.00    +0.000 HD
ENDROOT
BRANCH   1   5
ATOM      5  C   UNL A   1      47.308 -18.781 -35.959  0.00  0.00    +0.088 C 
BRANCH   5   8
ATOM      6  C   UNL A   1      47.227 -19.595 -38.264  0.00  0.00    +0.246 C 
ATOM      7  O   UNL A   1      47.259 -18.452 -38.709  0.00  0.00    -0.270 OA
ATOM      8  N   UNL A   1      47.367 -19.883 -36.918  0.00  0.00    -0.303 N 
ATOM      9  H   UNL A   1      47.501 -20.809 -36.613  0.00  0.00    +0.000 HD
BRANCH   6  15
ATOM     10  C   UNL A   1      45.715 -20.936 -39.751  0.00  0.00    +0.044 A 
ATOM     11  C   UNL A   1      45.535 -22.027 -40.614  0.00  0.00    -0.040 A 
ATOM     12  C   UNL A   1      46.586 -22.900 -40.907  0.00  0.00    -0.060 A 
ATOM     13  C   UNL A   1      47.840 -22.699 -40.339  0.00  0.00    -0.061 A 
ATOM     14  C   UNL A   1      48.049 -21.624 -39.475  0.00  0.00    -0.048 A 
ATOM     15  C   UNL A   1      46.992 -20.748 -39.175  0.00  0.00    +0.058 A 
BRANCH  10  16
ATOM     16  N   UNL A   1      44.637 -20.079 -39.435  0.00  0.00    -0.314 N 
ATOM     17  H   UNL A   1      44.121 -20.354 -38.642  0.00  0.00    +0.000 HD
BRANCH  16  23
ATOM     18  C   UNL A   1      42.575 -15.527 -39.077  0.00  0.00    -0.039 C 
ATOM     19  C   UNL A   1      43.167 -16.661 -39.872  0.00  0.00    -0.046 A 
ATOM     20  C   UNL A   1      43.241 -16.530 -41.265  0.00  0.00    -0.058 A 
ATOM     21  C   UNL A   1      43.769 -17.551 -42.046  0.00  0.00    -0.060 A 
ATOM     22  C   UNL A   1      44.223 -18.723 -41.443  0.00  0.00    -0.040 A 
ATOM     23  C   UNL A   1      44.165 -18.897 -40.053  0.00  0.00    +0.035 A 
ATOM     24  C   UNL A   1      43.664 -17.836 -39.253  0.00  0.00    -0.026 A 
ATOM     25  C   UNL A   1      43.610 -17.989 -37.751  0.00  0.00    -0.038 C 
ENDBRANCH  16  23
ENDBRANCH  10  16
ENDBRANCH   6  15
ENDBRANCH   5   8
ENDBRANCH   1   5
BRANCH   3  26
ATOM     26  C   UNL A   1      44.226 -20.290 -34.271  0.00  0.00    +0.012 C 
BRANCH  26  27
ATOM     27  C   UNL A   1      42.829 -20.092 -34.858  0.00  0.00    -0.037 C 
BRANCH  27  28
ATOM     28  C   UNL A   1      41.932 -19.152 -34.048  0.00  0.00    -0.052 C 
BRANCH  28  29
ATOM     29  C   UNL A   1      41.510 -17.956 -34.904  0.00  0.00    -0.052 C 
BRANCH  29  30
ATOM     30  C   UNL A   1      40.022 -17.636 -34.758  0.00  0.00    -0.037 C 
BRANCH  30  31
ATOM     31  C   UNL A   1      39.234 -18.891 -34.377  0.00  0.00    +0.009 C 
BRANCH  31  32
ATOM     32  N   UNL A   1      38.504 -19.379 -35.556  0.00  0.00    -0.343 N 
ATOM     33  H   UNL A   1      37.817 -18.862 -36.034  0.00  0.00    +0.000 HD
BRANCH  32  34
ATOM     34  C   UNL A   1      38.914 -20.696 -35.923  0.00  0.00    +0.041 A 
ATOM     35  C   UNL A   1      38.523 -21.812 -35.157  0.00  0.00    -0.005 A 
ATOM     36  C   UNL A   1      38.907 -23.076 -35.615  0.00  0.00    +0.047 A 
ATOM     37  N   UNL A   1      39.581 -23.275 -36.773  0.00  0.00    -0.251 NA
ATOM     38  C   UNL A   1      39.940 -22.216 -37.508  0.00  0.00    +0.074 A 
ATOM     39  C   UNL A   1      40.637 -22.446 -38.685  0.00  0.00    -0.017 A 
ATOM     40  C   UNL A   1      41.055 -21.394 -39.497  0.00  0.00    +0.043 A 
ATOM     41 CL   UNL A   1      41.916 -21.723 -40.951  0.00  0.00    -0.083 Cl
ATOM     42  C   UNL A   1      40.787 -20.082 -39.137  0.00  0.00    -0.043 A 
ATOM     43  C   UNL A   1      40.087 -19.834 -37.958  0.00  0.00    -0.049 A 
ATOM     44  C   UNL A   1      39.639 -20.893 -37.132  0.00  0.00    +0.022 A 
ATOM     45  C   UNL A   1      38.534 -24.337 -34.877  0.00  0.00    -0.010 C 
ATOM     46  C   UNL A   1      38.185 -24.097 -33.414  0.00  0.00    -0.047 C 
ATOM     47  C   UNL A   1      37.182 -22.958 -33.309  0.00  0.00    -0.049 C 
ATOM     48  C   UNL A   1      37.785 -21.661 -33.847  0.00  0.00    -0.024 C 
ENDBRANCH  32  34
ENDBRANCH  31  32
ENDBRANCH  30  31
ENDBRANCH  29  30
ENDBRANCH  28  29
ENDBRANCH  27  28
ENDBRANCH  26  27
ENDBRANCH   3  26
TORSDOF 13
ENDMDL
MODEL 3
REMARK VINA RESULT:    -6.815     18.022     22.092
REMARK INTER + INTRA:         -16.838
REMARK INTER:                 -12.943
REMARK INTRA:                  -3.895
REMARK UNBOUND:                -4.845
REMARK  Name = cpd49.pdb
REMARK  15 active torsions:
REMARK  status: ('A' for Active; 'I' for Inactive)
REMARK    1  A    between atoms: C_1  and  C_2
REMARK    2  A    between atoms: C_6  and  N_7
REMARK    3  A    between atoms: N_7  and  C_8
REMARK    4  A    between atoms: C_13  and  C_14
REMARK    5  A    between atoms: N_16  and  C_17
REMARK    6  A    between atoms: C_17  and  C_18
REMARK    7  A    between atoms: N_20  and  C_21
REMARK    8  A    between atoms: C_21  and  C_22
REMARK    9  A    between atoms: C_22  and  C_23
REMARK   10  A    between atoms: C_23  and  C_24
REMARK   11  A    between atoms: C_24  and  C_25
REMARK   12  A    between atoms: C_25  and  C_26
REMARK   13  A    between atoms: C_26  and  N_27
REMARK   14  A    between atoms: N_27  and  C_28
REMARK   15  A    between atoms: C_43  and  C_44
REMARK                            x       y       z     vdW  Elec       q    Type
REMARK                         _______ _______ _______ _____ _____    ______ ____
ROOT
ATOM      1  C   UNL A   1      42.954 -15.076 -38.577  0.00  0.00    +0.230 C 
ATOM      2  O   UNL A   1      41.749 -14.997 -38.360  0.00  0.00    -0.274 OA
ATOM      3  N   UNL A   1      43.917 -15.144 -37.585  0.00  0.00    -0.314 N 
ATOM      4  H   UNL A   1      44.817 -15.461 -37.830  0.00  0.00    +0.000 HD
ENDROOT
BRANCH   1   5
ATOM      5  C   UNL A   1      43.510 -15.321 -39.987  0.00  0.00    +0.088 C 
BRANCH   5   8
ATOM      6  C   UNL A   1      44.989 -17.047 -40.890  0.00  0.00    +0.246 C 
ATOM      7  O   UNL A   1      45.904 -16.242 -41.033  0.00  0.00    -0.270 OA
ATOM      8  N   UNL A   1      43.794 -16.727 -40.269  0.00  0.00    -0.303 N 
ATOM      9  H   UNL A   1      43.150 -17.430 -40.023  0.00  0.00    +0.000 HD
BRANCH   6  15
ATOM     10  C   UNL A   1      46.122 -19.285 -40.926  0.00  0.00    +0.044 A 
ATOM     11  C   UNL A   1      46.203 -20.584 -41.449  0.00  0.00    -0.040 A 
ATOM     12  C   UNL A   1      45.312 -21.028 -42.430  0.00  0.00    -0.060 A 
ATOM     13  C   UNL A   1      44.321 -20.176 -42.909  0.00  0.00    -0.061 A 
ATOM     14  C   UNL A   1      44.217 -18.878 -42.410  0.00  0.00    -0.048 A 
ATOM     15  C   UNL A   1      45.116 -18.429 -41.427  0.00  0.00    +0.058 A 
BRANCH  10  16
ATOM     16  N   UNL A   1      47.049 -18.836 -39.959  0.00  0.00    -0.314 N 
ATOM     17  H   UNL A   1      47.964 -18.711 -40.303  0.00  0.00    +0.000 HD
BRANCH  16  23
ATOM     18  C   UNL A   1      46.016 -20.313 -35.285  0.00  0.00    -0.039 C 
ATOM     19  C   UNL A   1      46.406 -19.264 -36.294  0.00  0.00    -0.046 A 
ATOM     20  C   UNL A   1      46.618 -17.954 -35.845  0.00  0.00    -0.058 A 
ATOM     21  C   UNL A   1      46.970 -16.948 -36.736  0.00  0.00    -0.060 A 
ATOM     22  C   UNL A   1      47.106 -17.237 -38.092  0.00  0.00    -0.040 A 
ATOM     23  C   UNL A   1      46.900 -18.533 -38.585  0.00  0.00    +0.035 A 
ATOM     24  C   UNL A   1      46.581 -19.569 -37.667  0.00  0.00    -0.026 A 
ATOM     25  C   UNL A   1      46.375 -20.980 -38.169  0.00  0.00    -0.038 C 
ENDBRANCH  16  23
ENDBRANCH  10  16
ENDBRANCH   6  15
ENDBRANCH   5   8
ENDBRANCH   1   5
BRANCH   3  26
ATOM     26  C   UNL A   1      43.673 -14.777 -36.205  0.00  0.00    +0.012 C 
BRANCH  26  27
ATOM     27  C   UNL A   1      43.548 -15.921 -35.199  0.00  0.00    -0.037 C 
BRANCH  27  28
ATOM     28  C   UNL A   1      42.195 -15.989 -34.486  0.00  0.00    -0.052 C 
BRANCH  28  29
ATOM     29  C   UNL A   1      42.146 -17.208 -33.562  0.00  0.00    -0.052 C 
BRANCH  29  30
ATOM     30  C   UNL A   1      42.980 -18.373 -34.096  0.00  0.00    -0.037 C 
BRANCH  30  31
ATOM     31  C   UNL A   1      42.160 -19.665 -34.105  0.00  0.00    +0.009 C 
BRANCH  31  32
ATOM     32  N   UNL A   1      40.952 -19.466 -34.916  0.00  0.00    -0.343 N 
ATOM     33  H   UNL A   1      40.395 -18.654 -34.889  0.00  0.00    +0.000 HD
BRANCH  32  34
ATOM     34  C   UNL A   1      40.684 -20.593 -35.750  0.00  0.00    +0.041 A 
ATOM     35  C   UNL A   1      41.305 -20.722 -37.009  0.00  0.00    -0.005 A 
ATOM     36  C   UNL A   1      41.045 -21.885 -37.740  0.00  0.00    +0.047 A 
ATOM     37  N   UNL A   1      40.278 -22.901 -37.276  0.00  0.00    -0.251 NA
ATOM     38  C   UNL A   1      39.701 -22.785 -36.074  0.00  0.00    +0.074 A 
ATOM     39  C   UNL A   1      38.914 -23.835 -35.625  0.00  0.00    -0.017 A 
ATOM     40  C   UNL A   1      38.271 -23.783 -34.391  0.00  0.00    +0.043 A 
ATOM     41 CL   UNL A   1      37.305 -25.108 -33.870  0.00  0.00    -0.083 Cl
ATOM     42  C   UNL A   1      38.398 -22.664 -33.581  0.00  0.00    -0.043 A 
ATOM     43  C   UNL A   1      39.186 -21.600 -34.017  0.00  0.00    -0.049 A 
ATOM     44  C   UNL A   1      39.862 -21.646 -35.260  0.00  0.00    +0.022 A 
ATOM     45  C   UNL A   1      41.664 -22.129 -39.093  0.00  0.00    -0.010 C 
ATOM     46  C   UNL A   1      42.138 -20.852 -39.776  0.00  0.00    -0.047 C 
ATOM     47  C   UNL A   1      42.985 -20.040 -38.808  0.00  0.00    -0.049 C 
ATOM     48  C   UNL A   1      42.157 -19.621 -37.594  0.00  0.00    -0.024 C 
ENDBRANCH  32  34
ENDBRANCH  31  32
ENDBRANCH  30  31
ENDBRANCH  29  30
ENDBRANCH  28  29
ENDBRANCH  27  28
ENDBRANCH  26  27
ENDBRANCH   3  26
TORSDOF 13
ENDMDL
MODEL 4
REMARK VINA RESULT:    -6.783     17.793     22.267
REMARK INTER + INTRA:         -16.782
REMARK INTER:                 -11.745
REMARK INTRA:                  -5.038
REMARK UNBOUND:                -4.845
REMARK  Name = cpd49.pdb
REMARK  15 active torsions:
REMARK  status: ('A' for Active; 'I' for Inactive)
REMARK    1  A    between atoms: C_1  and  C_2
REMARK    2  A    between atoms: C_6  and  N_7
REMARK    3  A    between atoms: N_7  and  C_8
REMARK    4  A    between atoms: C_13  and  C_14
REMARK    5  A    between atoms: N_16  and  C_17
REMARK    6  A    between atoms: C_17  and  C_18
REMARK    7  A    between atoms: N_20  and  C_21
REMARK    8  A    between atoms: C_21  and  C_22
REMARK    9  A    between atoms: C_22  and  C_23
REMARK   10  A    between atoms: C_23  and  C_24
REMARK   11  A    between atoms: C_24  and  C_25
REMARK   12  A    between atoms: C_25  and  C_26
REMARK   13  A    between atoms: C_26  and  N_27
REMARK   14  A    between atoms: N_27  and  C_28
REMARK   15  A    between atoms: C_43  and  C_44
REMARK                            x       y       z     vdW  Elec       q    Type
REMARK                         _______ _______ _______ _____ _____    ______ ____
ROOT
ATOM      1  C   UNL A   1      46.582 -18.643 -34.736  0.00  0.00    +0.230 C 
ATOM      2  O   UNL A   1      47.145 -17.588 -35.011  0.00  0.00    -0.274 OA
ATOM      3  N   UNL A   1      45.420 -18.730 -33.989  0.00  0.00    -0.314 N 
ATOM      4  H   UNL A   1      44.900 -19.565 -34.031  0.00  0.00    +0.000 HD
ENDROOT
BRANCH   1   5
ATOM      5  C   UNL A   1      46.997 -19.975 -35.378  0.00  0.00    +0.088 C 
BRANCH   5   8
ATOM      6  C   UNL A   1      45.641 -19.772 -37.403  0.00  0.00    +0.246 C 
ATOM      7  O   UNL A   1      44.673 -19.377 -36.761  0.00  0.00    -0.270 OA
ATOM      8  N   UNL A   1      46.885 -19.985 -36.835  0.00  0.00    -0.303 N 
ATOM      9  H   UNL A   1      47.676 -20.140 -37.400  0.00  0.00    +0.000 HD
BRANCH   6  15
ATOM     10  C   UNL A   1      45.281 -19.034 -39.773  0.00  0.00    +0.044 A 
ATOM     11  C   UNL A   1      45.169 -19.363 -41.132  0.00  0.00    -0.040 A 
ATOM     12  C   UNL A   1      45.282 -20.686 -41.569  0.00  0.00    -0.060 A 
ATOM     13  C   UNL A   1      45.509 -21.707 -40.651  0.00  0.00    -0.061 A 
ATOM     14  C   UNL A   1      45.623 -21.410 -39.293  0.00  0.00    -0.048 A 
ATOM     15  C   UNL A   1      45.504 -20.081 -38.852  0.00  0.00    +0.058 A 
BRANCH  10  16
ATOM     16  N   UNL A   1      45.131 -17.697 -39.339  0.00  0.00    -0.314 N 
ATOM     17  H   UNL A   1      45.979 -17.244 -39.128  0.00  0.00    +0.000 HD
BRANCH  16  23
ATOM     18  C   UNL A   1      42.654 -14.216 -36.723  0.00  0.00    -0.039 C 
ATOM     19  C   UNL A   1      42.777 -15.178 -37.875  0.00  0.00    -0.046 A 
ATOM     20  C   UNL A   1      41.710 -15.274 -38.779  0.00  0.00    -0.058 A 
ATOM     21  C   UNL A   1      41.768 -16.153 -39.854  0.00  0.00    -0.060 A 
ATOM     22  C   UNL A   1      42.892 -16.956 -40.035  0.00  0.00    -0.040 A 
ATOM     23  C   UNL A   1      43.981 -16.894 -39.153  0.00  0.00    +0.035 A 
ATOM     24  C   UNL A   1      43.937 -15.965 -38.079  0.00  0.00    -0.026 A 
ATOM     25  C   UNL A   1      45.106 -15.864 -37.126  0.00  0.00    -0.038 C 
ENDBRANCH  16  23
ENDBRANCH  10  16
ENDBRANCH   6  15
ENDBRANCH   5   8
ENDBRANCH   1   5
BRANCH   3  26
ATOM     26  C   UNL A   1      44.926 -17.658 -33.149  0.00  0.00    +0.012 C 
BRANCH  26  27
ATOM     27  C   UNL A   1      43.999 -16.637 -33.808  0.00  0.00    -0.037 C 
BRANCH  27  28
ATOM     28  C   UNL A   1      42.786 -16.246 -32.961  0.00  0.00    -0.052 C 
BRANCH  28  29
ATOM     29  C   UNL A   1      41.586 -17.129 -33.315  0.00  0.00    -0.052 C 
BRANCH  29  30
ATOM     30  C   UNL A   1      41.038 -16.828 -34.709  0.00  0.00    -0.037 C 
BRANCH  30  31
ATOM     31  C   UNL A   1      40.662 -18.122 -35.434  0.00  0.00    +0.009 C 
BRANCH  31  32
ATOM     32  N   UNL A   1      41.825 -19.019 -35.455  0.00  0.00    -0.343 N 
ATOM     33  H   UNL A   1      42.751 -18.729 -35.287  0.00  0.00    +0.000 HD
BRANCH  32  34
ATOM     34  C   UNL A   1      41.450 -20.364 -35.751  0.00  0.00    +0.041 A 
ATOM     35  C   UNL A   1      40.975 -21.220 -34.738  0.00  0.00    -0.005 A 
ATOM     36  C   UNL A   1      40.563 -22.501 -35.115  0.00  0.00    +0.047 A 
ATOM     37  N   UNL A   1      40.550 -22.931 -36.400  0.00  0.00    -0.251 NA
ATOM     38  C   UNL A   1      40.986 -22.113 -37.365  0.00  0.00    +0.074 A 
ATOM     39  C   UNL A   1      40.970 -22.580 -38.671  0.00  0.00    -0.017 A 
ATOM     40  C   UNL A   1      41.420 -21.791 -39.727  0.00  0.00    +0.043 A 
ATOM     41 CL   UNL A   1      41.381 -22.407 -41.334  0.00  0.00    -0.083 Cl
ATOM     42  C   UNL A   1      41.906 -20.514 -39.492  0.00  0.00    -0.043 A 
ATOM     43  C   UNL A   1      41.928 -20.030 -38.185  0.00  0.00    -0.049 A 
ATOM     44  C   UNL A   1      41.457 -20.812 -37.103  0.00  0.00    +0.022 A 
ATOM     45  C   UNL A   1      40.031 -23.494 -34.112  0.00  0.00    -0.010 C 
ATOM     46  C   UNL A   1      40.451 -23.185 -32.680  0.00  0.00    -0.047 C 
ATOM     47  C   UNL A   1      40.165 -21.725 -32.368  0.00  0.00    -0.049 C 
ATOM     48  C   UNL A   1      40.980 -20.811 -33.283  0.00  0.00    -0.024 C 
ENDBRANCH  32  34
ENDBRANCH  31  32
ENDBRANCH  30  31
ENDBRANCH  29  30
ENDBRANCH  28  29
ENDBRANCH  27  28
ENDBRANCH  26  27
ENDBRANCH   3  26
TORSDOF 13
ENDMDL
MODEL 5
REMARK VINA RESULT:    -6.747     17.369     21.665
REMARK INTER + INTRA:         -16.720
REMARK INTER:                 -13.497
REMARK INTRA:                  -3.223
REMARK UNBOUND:                -4.845
REMARK  Name = cpd49.pdb
REMARK  15 active torsions:
REMARK  status: ('A' for Active; 'I' for Inactive)
REMARK    1  A    between atoms: C_1  and  C_2
REMARK    2  A    between atoms: C_6  and  N_7
REMARK    3  A    between atoms: N_7  and  C_8
REMARK    4  A    between atoms: C_13  and  C_14
REMARK    5  A    between atoms: N_16  and  C_17
REMARK    6  A    between atoms: C_17  and  C_18
REMARK    7  A    between atoms: N_20  and  C_21
REMARK    8  A    between atoms: C_21  and  C_22
REMARK    9  A    between atoms: C_22  and  C_23
REMARK   10  A    between atoms: C_23  and  C_24
REMARK   11  A    between atoms: C_24  and  C_25
REMARK   12  A    between atoms: C_25  and  C_26
REMARK   13  A    between atoms: C_26  and  N_27
REMARK   14  A    between atoms: N_27  and  C_28
REMARK   15  A    between atoms: C_43  and  C_44
REMARK                            x       y       z     vdW  Elec       q    Type
REMARK                         _______ _______ _______ _____ _____    ______ ____
ROOT
ATOM      1  C   UNL A   1      44.544 -19.286 -33.865  0.00  0.00    +0.230 C 
ATOM      2  O   UNL A   1      44.882 -18.564 -32.933  0.00  0.00    -0.274 OA
ATOM      3  N   UNL A   1      43.227 -19.575 -34.183  0.00  0.00    -0.314 N 
ATOM      4  H   UNL A   1      43.033 -19.939 -35.077  0.00  0.00    +0.000 HD
ENDROOT
BRANCH   1   5
ATOM      5  C   UNL A   1      45.548 -19.779 -34.916  0.00  0.00    +0.088 C 
BRANCH   5   8
ATOM      6  C   UNL A   1      45.347 -18.581 -37.039  0.00  0.00    +0.246 C 
ATOM      7  O   UNL A   1      44.286 -19.140 -37.297  0.00  0.00    -0.270 OA
ATOM      8  N   UNL A   1      46.002 -18.732 -35.830  0.00  0.00    -0.303 N 
ATOM      9  H   UNL A   1      46.758 -18.148 -35.591  0.00  0.00    +0.000 HD
BRANCH   6  15
ATOM     10  C   UNL A   1      46.491 -18.304 -39.254  0.00  0.00    +0.044 A 
ATOM     11  C   UNL A   1      47.099 -17.462 -40.197  0.00  0.00    -0.040 A 
ATOM     12  C   UNL A   1      47.221 -16.089 -39.971  0.00  0.00    -0.060 A 
ATOM     13  C   UNL A   1      46.737 -15.530 -38.792  0.00  0.00    -0.061 A 
ATOM     14  C   UNL A   1      46.129 -16.342 -37.835  0.00  0.00    -0.048 A 
ATOM     15  C   UNL A   1      46.010 -17.724 -38.059  0.00  0.00    +0.058 A 
BRANCH  10  16
ATOM     16  N   UNL A   1      46.403 -19.696 -39.479  0.00  0.00    -0.314 N 
ATOM     17  H   UNL A   1      46.681 -20.248 -38.712  0.00  0.00    +0.000 HD
BRANCH  16  23
ATOM     18  C   UNL A   1      46.887 -23.704 -42.446  0.00  0.00    -0.039 C 
ATOM     19  C   UNL A   1      46.219 -22.413 -42.052  0.00  0.00    -0.046 A 
ATOM     20  C   UNL A   1      45.159 -21.944 -42.839  0.00  0.00    -0.058 A 
ATOM     21  C   UNL A   1      44.515 -20.754 -42.525  0.00  0.00    -0.060 A 
ATOM     22  C   UNL A   1      44.929 -20.010 -41.421  0.00  0.00    -0.040 A 
ATOM     23  C   UNL A   1      45.987 -20.441 -40.608  0.00  0.00    +0.035 A 
ATOM     24  C   UNL A   1      46.616 -21.678 -40.906  0.00  0.00    -0.026 A 
ATOM     25  C   UNL A   1      47.746 -22.176 -40.034  0.00  0.00    -0.038 C 
ENDBRANCH  16  23
ENDBRANCH  10  16
ENDBRANCH   6  15
ENDBRANCH   5   8
ENDBRANCH   1   5
BRANCH   3  26
ATOM     26  C   UNL A   1      42.120 -19.371 -33.271  0.00  0.00    +0.012 C 
BRANCH  26  27
ATOM     27  C   UNL A   1      41.558 -17.953 -33.176  0.00  0.00    -0.037 C 
BRANCH  27  28
ATOM     28  C   UNL A   1      40.699 -17.533 -34.372  0.00  0.00    -0.052 C 
BRANCH  28  29
ATOM     29  C   UNL A   1      39.228 -17.442 -33.960  0.00  0.00    -0.052 C 
BRANCH  29  30
ATOM     30  C   UNL A   1      38.307 -17.188 -35.154  0.00  0.00    -0.037 C 
BRANCH  30  31
ATOM     31  C   UNL A   1      38.666 -18.113 -36.319  0.00  0.00    +0.009 C 
BRANCH  31  32
ATOM     32  N   UNL A   1      38.030 -19.421 -36.112  0.00  0.00    -0.343 N 
ATOM     33  H   UNL A   1      37.062 -19.552 -35.989  0.00  0.00    +0.000 HD
BRANCH  32  34
ATOM     34  C   UNL A   1      38.987 -20.480 -36.110  0.00  0.00    +0.041 A 
ATOM     35  C   UNL A   1      39.251 -21.211 -34.936  0.00  0.00    -0.005 A 
ATOM     36  C   UNL A   1      40.153 -22.276 -35.027  0.00  0.00    +0.047 A 
ATOM     37  N   UNL A   1      40.732 -22.663 -36.189  0.00  0.00    -0.251 NA
ATOM     38  C   UNL A   1      40.469 -21.979 -37.308  0.00  0.00    +0.074 A 
ATOM     39  C   UNL A   1      41.081 -22.390 -38.483  0.00  0.00    -0.017 A 
ATOM     40  C   UNL A   1      40.866 -21.720 -39.685  0.00  0.00    +0.043 A 
ATOM     41 CL   UNL A   1      41.643 -22.265 -41.120  0.00  0.00    -0.083 Cl
ATOM     42  C   UNL A   1      40.035 -20.612 -39.730  0.00  0.00    -0.043 A 
ATOM     43  C   UNL A   1      39.411 -20.186 -38.559  0.00  0.00    -0.049 A 
ATOM     44  C   UNL A   1      39.604 -20.867 -37.333  0.00  0.00    +0.022 A 
ATOM     45  C   UNL A   1      40.500 -23.129 -33.833  0.00  0.00    -0.010 C 
ATOM     46  C   UNL A   1      40.213 -22.446 -32.502  0.00  0.00    -0.047 C 
ATOM     47  C   UNL A   1      38.801 -21.882 -32.512  0.00  0.00    -0.049 C 
ATOM     48  C   UNL A   1      38.654 -20.822 -33.604  0.00  0.00    -0.024 C 
ENDBRANCH  32  34
ENDBRANCH  31  32
ENDBRANCH  30  31
ENDBRANCH  29  30
ENDBRANCH  28  29
ENDBRANCH  27  28
ENDBRANCH  26  27
ENDBRANCH   3  26
TORSDOF 13
ENDMDL
MODEL 6
REMARK VINA RESULT:    -6.741     17.858     22.595
REMARK INTER + INTRA:         -16.709
REMARK INTER:                 -12.045
REMARK INTRA:                  -4.664
REMARK UNBOUND:                -4.845
REMARK  Name = cpd49.pdb
REMARK  15 active torsions:
REMARK  status: ('A' for Active; 'I' for Inactive)
REMARK    1  A    between atoms: C_1  and  C_2
REMARK    2  A    between atoms: C_6  and  N_7
REMARK    3  A    between atoms: N_7  and  C_8
REMARK    4  A    between atoms: C_13  and  C_14
REMARK    5  A    between atoms: N_16  and  C_17
REMARK    6  A    between atoms: C_17  and  C_18
REMARK    7  A    between atoms: N_20  and  C_21
REMARK    8  A    between atoms: C_21  and  C_22
REMARK    9  A    between atoms: C_22  and  C_23
REMARK   10  A    between atoms: C_23  and  C_24
REMARK   11  A    between atoms: C_24  and  C_25
REMARK   12  A    between atoms: C_25  and  C_26
REMARK   13  A    between atoms: C_26  and  N_27
REMARK   14  A    between atoms: N_27  and  C_28
REMARK   15  A    between atoms: C_43  and  C_44
REMARK                            x       y       z     vdW  Elec       q    Type
REMARK                         _______ _______ _______ _____ _____    ______ ____
ROOT
ATOM      1  C   UNL A   1      37.882 -16.383 -39.720  0.00  0.00    +0.230 C 
ATOM      2  O   UNL A   1      37.464 -16.388 -40.874  0.00  0.00    -0.274 OA
ATOM      3  N   UNL A   1      38.672 -15.379 -39.186  0.00  0.00    -0.314 N 
ATOM      4  H   UNL A   1      38.748 -15.318 -38.206  0.00  0.00    +0.000 HD
ENDROOT
BRANCH   1   5
ATOM      5  C   UNL A   1      37.394 -17.397 -38.677  0.00  0.00    +0.088 C 
BRANCH   5   8
ATOM      6  C   UNL A   1      39.468 -18.557 -38.097  0.00  0.00    +0.246 C 
ATOM      7  O   UNL A   1      39.887 -17.581 -37.484  0.00  0.00    -0.270 OA
ATOM      8  N   UNL A   1      38.191 -18.621 -38.629  0.00  0.00    -0.303 N 
ATOM      9  H   UNL A   1      37.829 -19.472 -38.968  0.00  0.00    +0.000 HD
BRANCH   6  15
ATOM     10  C   UNL A   1      40.926 -20.407 -37.234  0.00  0.00    +0.044 A 
ATOM     11  C   UNL A   1      41.744 -21.516 -37.496  0.00  0.00    -0.040 A 
ATOM     12  C   UNL A   1      41.981 -21.949 -38.803  0.00  0.00    -0.060 A 
ATOM     13  C   UNL A   1      41.404 -21.278 -39.877  0.00  0.00    -0.061 A 
ATOM     14  C   UNL A   1      40.587 -20.171 -39.647  0.00  0.00    -0.048 A 
ATOM     15  C   UNL A   1      40.352 -19.731 -38.334  0.00  0.00    +0.058 A 
BRANCH  10  16
ATOM     16  N   UNL A   1      40.720 -19.957 -35.910  0.00  0.00    -0.314 N 
ATOM     17  H   UNL A   1      40.807 -18.983 -35.796  0.00  0.00    +0.000 HD
BRANCH  16  23
ATOM     18  C   UNL A   1      37.324 -21.724 -32.679  0.00  0.00    -0.039 C 
ATOM     19  C   UNL A   1      38.743 -21.531 -33.145  0.00  0.00    -0.046 A 
ATOM     20  C   UNL A   1      39.779 -22.059 -32.363  0.00  0.00    -0.058 A 
ATOM     21  C   UNL A   1      41.106 -21.901 -32.743  0.00  0.00    -0.060 A 
ATOM     22  C   UNL A   1      41.416 -21.203 -33.908  0.00  0.00    -0.040 A 
ATOM     23  C   UNL A   1      40.412 -20.655 -34.719  0.00  0.00    +0.035 A 
ATOM     24  C   UNL A   1      39.054 -20.854 -34.351  0.00  0.00    -0.026 A 
ATOM     25  C   UNL A   1      37.951 -20.293 -35.218  0.00  0.00    -0.038 C 
ENDBRANCH  16  23
ENDBRANCH  10  16
ENDBRANCH   6  15
ENDBRANCH   5   8
ENDBRANCH   1   5
BRANCH   3  26
ATOM     26  C   UNL A   1      39.392 -14.413 -39.991  0.00  0.00    +0.012 C 
BRANCH  26  27
ATOM     27  C   UNL A   1      40.869 -14.204 -39.658  0.00  0.00    -0.037 C 
BRANCH  27  28
ATOM     28  C   UNL A   1      41.811 -14.340 -40.856  0.00  0.00    -0.052 C 
BRANCH  28  29
ATOM     29  C   UNL A   1      42.441 -15.735 -40.879  0.00  0.00    -0.052 C 
BRANCH  29  30
ATOM     30  C   UNL A   1      43.756 -15.763 -41.657  0.00  0.00    -0.037 C 
BRANCH  30  31
ATOM     31  C   UNL A   1      44.567 -17.012 -41.303  0.00  0.00    +0.009 C 
BRANCH  31  32
ATOM     32  N   UNL A   1      43.652 -18.071 -40.855  0.00  0.00    -0.343 N 
ATOM     33  H   UNL A   1      42.696 -18.111 -41.088  0.00  0.00    +0.000 HD
BRANCH  32  34
ATOM     34  C   UNL A   1      44.319 -19.036 -40.042  0.00  0.00    +0.041 A 
ATOM     35  C   UNL A   1      44.286 -18.940 -38.637  0.00  0.00    -0.005 A 
ATOM     36  C   UNL A   1      44.906 -19.958 -37.906  0.00  0.00    +0.047 A 
ATOM     37  N   UNL A   1      45.480 -21.043 -38.480  0.00  0.00    -0.251 NA
ATOM     38  C   UNL A   1      45.497 -21.142 -39.814  0.00  0.00    +0.074 A 
ATOM     39  C   UNL A   1      46.097 -22.258 -40.377  0.00  0.00    -0.017 A 
ATOM     40  C   UNL A   1      46.165 -22.426 -41.758  0.00  0.00    +0.043 A 
ATOM     41 CL   UNL A   1      46.917 -23.827 -42.416  0.00  0.00    -0.083 Cl
ATOM     42  C   UNL A   1      45.636 -21.466 -42.607  0.00  0.00    -0.043 A 
ATOM     43  C   UNL A   1      45.028 -20.339 -42.057  0.00  0.00    -0.049 A 
ATOM     44  C   UNL A   1      44.934 -20.163 -40.656  0.00  0.00    +0.022 A 
ATOM     45  C   UNL A   1      44.924 -19.958 -36.398  0.00  0.00    -0.010 C 
ATOM     46  C   UNL A   1      44.688 -18.579 -35.794  0.00  0.00    -0.047 C 
ATOM     47  C   UNL A   1      43.462 -17.945 -36.433  0.00  0.00    -0.049 C 
ATOM     48  C   UNL A   1      43.680 -17.749 -37.933  0.00  0.00    -0.024 C 
ENDBRANCH  32  34
ENDBRANCH  31  32
ENDBRANCH  30  31
ENDBRANCH  29  30
ENDBRANCH  28  29
ENDBRANCH  27  28
ENDBRANCH  26  27
ENDBRANCH   3  26
TORSDOF 13
ENDMDL
MODEL 7
REMARK VINA RESULT:    -6.722     18.905     23.057
REMARK INTER + INTRA:         -16.675
REMARK INTER:                 -11.895
REMARK INTRA:                  -4.780
REMARK UNBOUND:                -4.845
REMARK  Name = cpd49.pdb
REMARK  15 active torsions:
REMARK  status: ('A' for Active; 'I' for Inactive)
REMARK    1  A    between atoms: C_1  and  C_2
REMARK    2  A    between atoms: C_6  and  N_7
REMARK    3  A    between atoms: N_7  and  C_8
REMARK    4  A    between atoms: C_13  and  C_14
REMARK    5  A    between atoms: N_16  and  C_17
REMARK    6  A    between atoms: C_17  and  C_18
REMARK    7  A    between atoms: N_20  and  C_21
REMARK    8  A    between atoms: C_21  and  C_22
REMARK    9  A    between atoms: C_22  and  C_23
REMARK   10  A    between atoms: C_23  and  C_24
REMARK   11  A    between atoms: C_24  and  C_25
REMARK   12  A    between atoms: C_25  and  C_26
REMARK   13  A    between atoms: C_26  and  N_27
REMARK   14  A    between atoms: N_27  and  C_28
REMARK   15  A    between atoms: C_43  and  C_44
REMARK                            x       y       z     vdW  Elec       q    Type
REMARK                         _______ _______ _______ _____ _____    ______ ____
ROOT
ATOM      1  C   UNL A   1      41.052 -21.994 -38.601  0.00  0.00    +0.230 C 
ATOM      2  O   UNL A   1      40.695 -23.039 -39.136  0.00  0.00    -0.274 OA
ATOM      3  N   UNL A   1      41.145 -21.815 -37.232  0.00  0.00    -0.314 N 
ATOM      4  H   UNL A   1      41.674 -21.056 -36.895  0.00  0.00    +0.000 HD
ENDROOT
BRANCH   1   5
ATOM      5  C   UNL A   1      41.642 -20.830 -39.411  0.00  0.00    +0.088 C 
BRANCH   5   8
ATOM      6  C   UNL A   1      44.082 -20.996 -39.398  0.00  0.00    +0.246 C 
ATOM      7  O   UNL A   1      44.128 -20.780 -38.191  0.00  0.00    -0.270 OA
ATOM      8  N   UNL A   1      42.894 -21.162 -40.088  0.00  0.00    -0.303 N 
ATOM      9  H   UNL A   1      42.893 -21.495 -41.014  0.00  0.00    +0.000 HD
BRANCH   6  15
ATOM     10  C   UNL A   1      46.121 -19.887 -40.350  0.00  0.00    +0.044 A 
ATOM     11  C   UNL A   1      47.302 -19.982 -41.100  0.00  0.00    -0.040 A 
ATOM     12  C   UNL A   1      47.700 -21.192 -41.676  0.00  0.00    -0.060 A 
ATOM     13  C   UNL A   1      46.921 -22.333 -41.512  0.00  0.00    -0.061 A 
ATOM     14  C   UNL A   1      45.740 -22.269 -40.772  0.00  0.00    -0.048 A 
ATOM     15  C   UNL A   1      45.336 -21.052 -40.197  0.00  0.00    +0.058 A 
BRANCH  10  16
ATOM     16  N   UNL A   1      45.711 -18.651 -39.801  0.00  0.00    -0.314 N 
ATOM     17  H   UNL A   1      45.842 -18.578 -38.828  0.00  0.00    +0.000 HD
BRANCH  16  23
ATOM     18  C   UNL A   1      46.098 -13.851 -41.182  0.00  0.00    -0.039 C 
ATOM     19  C   UNL A   1      45.344 -15.152 -41.086  0.00  0.00    -0.046 A 
ATOM     20  C   UNL A   1      44.043 -15.207 -41.604  0.00  0.00    -0.058 A 
ATOM     21  C   UNL A   1      43.301 -16.380 -41.532  0.00  0.00    -0.060 A 
ATOM     22  C   UNL A   1      43.848 -17.513 -40.932  0.00  0.00    -0.040 A 
ATOM     23  C   UNL A   1      45.145 -17.500 -40.399  0.00  0.00    +0.035 A 
ATOM     24  C   UNL A   1      45.917 -16.314 -40.511  0.00  0.00    -0.026 A 
ATOM     25  C   UNL A   1      47.326 -16.279 -39.964  0.00  0.00    -0.038 C 
ENDBRANCH  16  23
ENDBRANCH  10  16
ENDBRANCH   6  15
ENDBRANCH   5   8
ENDBRANCH   1   5
BRANCH   3  26
ATOM     26  C   UNL A   1      40.505 -22.685 -36.266  0.00  0.00    +0.012 C 
BRANCH  26  27
ATOM     27  C   UNL A   1      40.558 -22.246 -34.803  0.00  0.00    -0.037 C 
BRANCH  27  28
ATOM     28  C   UNL A   1      39.506 -21.202 -34.419  0.00  0.00    -0.052 C 
BRANCH  28  29
ATOM     29  C   UNL A   1      40.106 -19.795 -34.494  0.00  0.00    -0.052 C 
BRANCH  29  30
ATOM     30  C   UNL A   1      41.092 -19.526 -33.357  0.00  0.00    -0.037 C 
BRANCH  30  31
ATOM     31  C   UNL A   1      42.272 -18.688 -33.852  0.00  0.00    +0.009 C 
BRANCH  31  32
ATOM     32  N   UNL A   1      42.671 -19.156 -35.187  0.00  0.00    -0.343 N 
ATOM     33  H   UNL A   1      42.367 -20.002 -35.590  0.00  0.00    +0.000 HD
BRANCH  32  34
ATOM     34  C   UNL A   1      43.553 -18.235 -35.828  0.00  0.00    +0.041 A 
ATOM     35  C   UNL A   1      43.047 -17.132 -36.544  0.00  0.00    -0.005 A 
ATOM     36  C   UNL A   1      43.973 -16.237 -37.088  0.00  0.00    +0.047 A 
ATOM     37  N   UNL A   1      45.311 -16.352 -36.914  0.00  0.00    -0.251 NA
ATOM     38  C   UNL A   1      45.791 -17.391 -36.220  0.00  0.00    +0.074 A 
ATOM     39  C   UNL A   1      47.165 -17.490 -36.063  0.00  0.00    -0.017 A 
ATOM     40  C   UNL A   1      47.740 -18.549 -35.364  0.00  0.00    +0.043 A 
ATOM     41 CL   UNL A   1      49.450 -18.634 -35.190  0.00  0.00    -0.083 Cl
ATOM     42  C   UNL A   1      46.942 -19.541 -34.814  0.00  0.00    -0.043 A 
ATOM     43  C   UNL A   1      45.559 -19.456 -34.963  0.00  0.00    -0.049 A 
ATOM     44  C   UNL A   1      44.959 -18.375 -35.653  0.00  0.00    +0.022 A 
ATOM     45  C   UNL A   1      43.540 -15.020 -37.866  0.00  0.00    -0.010 C 
ATOM     46  C   UNL A   1      42.125 -15.132 -38.420  0.00  0.00    -0.047 C 
ATOM     47  C   UNL A   1      41.177 -15.572 -37.314  0.00  0.00    -0.049 C 
ATOM     48  C   UNL A   1      41.568 -16.954 -36.791  0.00  0.00    -0.024 C 
ENDBRANCH  32  34
ENDBRANCH  31  32
ENDBRANCH  30  31
ENDBRANCH  29  30
ENDBRANCH  28  29
ENDBRANCH  27  28
ENDBRANCH  26  27
ENDBRANCH   3  26
TORSDOF 13
ENDMDL
MODEL 8
REMARK VINA RESULT:    -6.712      3.727      7.712
REMARK INTER + INTRA:         -16.658
REMARK INTER:                 -12.970
REMARK INTRA:                  -3.688
REMARK UNBOUND:                -4.845
REMARK  Name = cpd49.pdb
REMARK  15 active torsions:
REMARK  status: ('A' for Active; 'I' for Inactive)
REMARK    1  A    between atoms: C_1  and  C_2
REMARK    2  A    between atoms: C_6  and  N_7
REMARK    3  A    between atoms: N_7  and  C_8
REMARK    4  A    between atoms: C_13  and  C_14
REMARK    5  A    between atoms: N_16  and  C_17
REMARK    6  A    between atoms: C_17  and  C_18
REMARK    7  A    between atoms: N_20  and  C_21
REMARK    8  A    between atoms: C_21  and  C_22
REMARK    9  A    between atoms: C_22  and  C_23
REMARK   10  A    between atoms: C_23  and  C_24
REMARK   11  A    between atoms: C_24  and  C_25
REMARK   12  A    between atoms: C_25  and  C_26
REMARK   13  A    between atoms: C_26  and  N_27
REMARK   14  A    between atoms: N_27  and  C_28
REMARK   15  A    between atoms: C_43  and  C_44
REMARK                            x       y       z     vdW  Elec       q    Type
REMARK                         _______ _______ _______ _____ _____    ______ ____
ROOT
ATOM      1  C   UNL A   1      30.164 -38.877 -36.935  0.00  0.00    +0.230 C 
ATOM      2  O   UNL A   1      29.583 -37.998 -37.563  0.00  0.00    -0.274 OA
ATOM      3  N   UNL A   1      30.280 -38.896 -35.555  0.00  0.00    -0.314 N 
ATOM      4  H   UNL A   1      30.527 -39.745 -35.121  0.00  0.00    +0.000 HD
ENDROOT
BRANCH   1   5
ATOM      5  C   UNL A   1      30.647 -40.170 -37.607  0.00  0.00    +0.088 C 
BRANCH   5   8
ATOM      6  C   UNL A   1      32.360 -41.603 -36.612  0.00  0.00    +0.246 C 
ATOM      7  O   UNL A   1      33.259 -40.983 -37.171  0.00  0.00    -0.270 OA
ATOM      8  N   UNL A   1      31.033 -41.215 -36.661  0.00  0.00    -0.303 N 
ATOM      9  H   UNL A   1      30.364 -41.633 -36.073  0.00  0.00    +0.000 HD
BRANCH   6  15
ATOM     10  C   UNL A   1      33.136 -42.783 -34.538  0.00  0.00    +0.044 A 
ATOM     11  C   UNL A   1      33.400 -43.985 -33.866  0.00  0.00    -0.040 A 
ATOM     12  C   UNL A   1      33.198 -45.222 -34.484  0.00  0.00    -0.060 A 
ATOM     13  C   UNL A   1      32.726 -45.279 -35.792  0.00  0.00    -0.061 A 
ATOM     14  C   UNL A   1      32.456 -44.100 -36.487  0.00  0.00    -0.048 A 
ATOM     15  C   UNL A   1      32.664 -42.856 -35.868  0.00  0.00    +0.058 A 
BRANCH  10  16
ATOM     16  N   UNL A   1      33.377 -41.538 -33.915  0.00  0.00    -0.314 N 
ATOM     17  H   UNL A   1      33.137 -40.758 -34.465  0.00  0.00    +0.000 HD
BRANCH  16  23
ATOM     18  C   UNL A   1      32.648 -40.225 -29.136  0.00  0.00    -0.039 C 
ATOM     19  C   UNL A   1      33.538 -40.581 -30.297  0.00  0.00    -0.046 A 
ATOM     20  C   UNL A   1      34.926 -40.581 -30.097  0.00  0.00    -0.058 A 
ATOM     21  C   UNL A   1      35.791 -40.893 -31.138  0.00  0.00    -0.060 A 
ATOM     22  C   UNL A   1      35.281 -41.202 -32.397  0.00  0.00    -0.040 A 
ATOM     23  C   UNL A   1      33.901 -41.212 -32.642  0.00  0.00    +0.035 A 
ATOM     24  C   UNL A   1      33.016 -40.934 -31.566  0.00  0.00    -0.026 A 
ATOM     25  C   UNL A   1      31.522 -40.958 -31.797  0.00  0.00    -0.038 C 
ENDBRANCH  16  23
ENDBRANCH  10  16
ENDBRANCH   6  15
ENDBRANCH   5   8
ENDBRANCH   1   5
BRANCH   3  26
ATOM     26  C   UNL A   1      30.058 -37.737 -34.716  0.00  0.00    +0.012 C 
BRANCH  26  27
ATOM     27  C   UNL A   1      31.297 -36.958 -34.275  0.00  0.00    -0.037 C 
BRANCH  27  28
ATOM     28  C   UNL A   1      32.399 -37.823 -33.658  0.00  0.00    -0.052 C 
BRANCH  28  29
ATOM     29  C   UNL A   1      32.767 -37.298 -32.268  0.00  0.00    -0.052 C 
BRANCH  29  30
ATOM     30  C   UNL A   1      33.200 -35.832 -32.299  0.00  0.00    -0.037 C 
BRANCH  30  31
ATOM     31  C   UNL A   1      34.714 -35.719 -32.493  0.00  0.00    +0.009 C 
BRANCH  31  32
ATOM     32  N   UNL A   1      35.279 -34.897 -31.414  0.00  0.00    -0.343 N 
ATOM     33  H   UNL A   1      35.105 -33.934 -31.303  0.00  0.00    +0.000 HD
BRANCH  32  34
ATOM     34  C   UNL A   1      36.111 -35.665 -30.545  0.00  0.00    +0.041 A 
ATOM     35  C   UNL A   1      35.581 -36.272 -29.389  0.00  0.00    -0.005 A 
ATOM     36  C   UNL A   1      36.442 -37.063 -28.623  0.00  0.00    +0.047 A 
ATOM     37  N   UNL A   1      37.728 -37.313 -28.968  0.00  0.00    -0.251 NA
ATOM     38  C   UNL A   1      38.227 -36.749 -30.073  0.00  0.00    +0.074 A 
ATOM     39  C   UNL A   1      39.549 -37.013 -30.400  0.00  0.00    -0.017 A 
ATOM     40  C   UNL A   1      40.143 -36.454 -31.529  0.00  0.00    +0.043 A 
ATOM     41 CL   UNL A   1      41.786 -36.809 -31.899  0.00  0.00    -0.083 Cl
ATOM     42  C   UNL A   1      39.420 -35.605 -32.353  0.00  0.00    -0.043 A 
ATOM     43  C   UNL A   1      38.090 -35.330 -32.040  0.00  0.00    -0.049 A 
ATOM     44  C   UNL A   1      37.467 -35.906 -30.907  0.00  0.00    +0.022 A 
ATOM     45  C   UNL A   1      35.976 -37.765 -27.372  0.00  0.00    -0.010 C 
ATOM     46  C   UNL A   1      34.719 -37.149 -26.770  0.00  0.00    -0.047 C 
ATOM     47  C   UNL A   1      33.665 -36.978 -27.854  0.00  0.00    -0.049 C 
ATOM     48  C   UNL A   1      34.161 -36.021 -28.938  0.00  0.00    -0.024 C 
ENDBRANCH  32  34
ENDBRANCH  31  32
ENDBRANCH  30  31
ENDBRANCH  29  30
ENDBRANCH  28  29
ENDBRANCH  27  28
ENDBRANCH  26  27
ENDBRANCH   3  26
TORSDOF 13
ENDMDL
MODEL 9
REMARK VINA RESULT:    -6.606     16.527     20.702
REMARK INTER + INTRA:         -16.471
REMARK INTER:                 -12.289
REMARK INTRA:                  -4.182
REMARK UNBOUND:                -4.845
REMARK  Name = cpd49.pdb
REMARK  15 active torsions:
REMARK  status: ('A' for Active; 'I' for Inactive)
REMARK    1  A    between atoms: C_1  and  C_2
REMARK    2  A    between atoms: C_6  and  N_7
REMARK    3  A    between atoms: N_7  and  C_8
REMARK    4  A    between atoms: C_13  and  C_14
REMARK    5  A    between atoms: N_16  and  C_17
REMARK    6  A    between atoms: C_17  and  C_18
REMARK    7  A    between atoms: N_20  and  C_21
REMARK    8  A    between atoms: C_21  and  C_22
REMARK    9  A    between atoms: C_22  and  C_23
REMARK   10  A    between atoms: C_23  and  C_24
REMARK   11  A    between atoms: C_24  and  C_25
REMARK   12  A    between atoms: C_25  and  C_26
REMARK   13  A    between atoms: C_26  and  N_27
REMARK   14  A    between atoms: N_27  and  C_28
REMARK   15  A    between atoms: C_43  and  C_44
REMARK                            x       y       z     vdW  Elec       q    Type
REMARK                         _______ _______ _______ _____ _____    ______ ____
ROOT
ATOM      1  C   UNL A   1      46.603 -19.635 -35.882  0.00  0.00    +0.230 C 
ATOM      2  O   UNL A   1      47.304 -19.938 -34.922  0.00  0.00    -0.274 OA
ATOM      3  N   UNL A   1      45.219 -19.637 -35.862  0.00  0.00    -0.314 N 
ATOM      4  H   UNL A   1      44.742 -19.144 -36.569  0.00  0.00    +0.000 HD
ENDROOT
BRANCH   1   5
ATOM      5  C   UNL A   1      47.196 -19.014 -37.155  0.00  0.00    +0.088 C 
BRANCH   5   8
ATOM      6  C   UNL A   1      45.900 -19.182 -39.222  0.00  0.00    +0.246 C 
ATOM      7  O   UNL A   1      45.490 -18.032 -39.103  0.00  0.00    -0.270 OA
ATOM      8  N   UNL A   1      46.846 -19.735 -38.377  0.00  0.00    -0.303 N 
ATOM      9  H   UNL A   1      47.274 -20.595 -38.594  0.00  0.00    +0.000 HD
BRANCH   6  15
ATOM     10  C   UNL A   1      43.956 -20.248 -40.397  0.00  0.00    +0.044 A 
ATOM     11  C   UNL A   1      43.478 -21.079 -41.420  0.00  0.00    -0.040 A 
ATOM     12  C   UNL A   1      44.352 -21.707 -42.313  0.00  0.00    -0.060 A 
ATOM     13  C   UNL A   1      45.725 -21.514 -42.197  0.00  0.00    -0.061 A 
ATOM     14  C   UNL A   1      46.230 -20.693 -41.188  0.00  0.00    -0.048 A 
ATOM     15  C   UNL A   1      45.353 -20.067 -40.287  0.00  0.00    +0.058 A 
BRANCH  10  16
ATOM     16  N   UNL A   1      43.066 -19.647 -39.479  0.00  0.00    -0.314 N 
ATOM     17  H   UNL A   1      43.027 -18.665 -39.539  0.00  0.00    +0.000 HD
BRANCH  16  23
ATOM     18  C   UNL A   1      39.061 -19.272 -36.493  0.00  0.00    -0.039 C 
ATOM     19  C   UNL A   1      40.250 -20.020 -37.037  0.00  0.00    -0.046 A 
ATOM     20  C   UNL A   1      40.518 -21.300 -36.535  0.00  0.00    -0.058 A 
ATOM     21  C   UNL A   1      41.608 -22.028 -36.996  0.00  0.00    -0.060 A 
ATOM     22  C   UNL A   1      42.451 -21.481 -37.962  0.00  0.00    -0.040 A 
ATOM     23  C   UNL A   1      42.221 -20.202 -38.489  0.00  0.00    +0.035 A 
ATOM     24  C   UNL A   1      41.083 -19.477 -38.047  0.00  0.00    -0.026 A 
ATOM     25  C   UNL A   1      40.800 -18.105 -38.615  0.00  0.00    -0.038 C 
ENDBRANCH  16  23
ENDBRANCH  10  16
ENDBRANCH   6  15
ENDBRANCH   5   8
ENDBRANCH   1   5
BRANCH   3  26
ATOM     26  C   UNL A   1      44.433 -20.323 -34.857  0.00  0.00    +0.012 C 
BRANCH  26  27
ATOM     27  C   UNL A   1      43.081 -19.706 -34.500  0.00  0.00    -0.037 C 
BRANCH  27  28
ATOM     28  C   UNL A   1      42.840 -18.321 -35.106  0.00  0.00    -0.052 C 
BRANCH  28  29
ATOM     29  C   UNL A   1      42.836 -17.256 -34.006  0.00  0.00    -0.052 C 
BRANCH  29  30
ATOM     30  C   UNL A   1      42.083 -17.716 -32.758  0.00  0.00    -0.037 C 
BRANCH  30  31
ATOM     31  C   UNL A   1      40.574 -17.730 -33.012  0.00  0.00    +0.009 C 
BRANCH  31  32
ATOM     32  N   UNL A   1      39.909 -18.472 -31.931  0.00  0.00    -0.343 N 
ATOM     33  H   UNL A   1      40.164 -18.415 -30.982  0.00  0.00    +0.000 HD
BRANCH  32  34
ATOM     34  C   UNL A   1      38.848 -19.287 -32.427  0.00  0.00    +0.041 A 
ATOM     35  C   UNL A   1      39.065 -20.644 -32.739  0.00  0.00    -0.005 A 
ATOM     36  C   UNL A   1      37.963 -21.396 -33.156  0.00  0.00    +0.047 A 
ATOM     37  N   UNL A   1      36.704 -20.898 -33.221  0.00  0.00    -0.251 NA
ATOM     38  C   UNL A   1      36.494 -19.614 -32.910  0.00  0.00    +0.074 A 
ATOM     39  C   UNL A   1      35.198 -19.127 -32.992  0.00  0.00    -0.017 A 
ATOM     40  C   UNL A   1      34.903 -17.799 -32.696  0.00  0.00    +0.043 A 
ATOM     41 CL   UNL A   1      33.281 -17.235 -32.808  0.00  0.00    -0.083 Cl
ATOM     42  C   UNL A   1      35.911 -16.924 -32.318  0.00  0.00    -0.043 A 
ATOM     43  C   UNL A   1      37.219 -17.398 -32.230  0.00  0.00    -0.049 A 
ATOM     44  C   UNL A   1      37.532 -18.750 -32.509  0.00  0.00    +0.022 A 
ATOM     45  C   UNL A   1      38.083 -22.857 -33.506  0.00  0.00    -0.010 C 
ATOM     46  C   UNL A   1      39.506 -23.278 -33.852  0.00  0.00    -0.047 C 
ATOM     47  C   UNL A   1      40.460 -22.784 -32.776  0.00  0.00    -0.049 C 
ATOM     48  C   UNL A   1      40.445 -21.257 -32.706  0.00  0.00    -0.024 C 
ENDBRANCH  32  34
ENDBRANCH  31  32
ENDBRANCH  30  31
ENDBRANCH  29  30
ENDBRANCH  28  29
ENDBRANCH  27  28
ENDBRANCH  26  27
ENDBRANCH   3  26
TORSDOF 13
ENDMDL
MODEL 10
REMARK VINA RESULT:    -6.543     18.180     22.327
REMARK INTER + INTRA:         -16.360
REMARK INTER:                 -12.964
REMARK INTRA:                  -3.396
REMARK UNBOUND:                -4.845
REMARK  Name = cpd49.pdb
REMARK  15 active torsions:
REMARK  status: ('A' for Active; 'I' for Inactive)
REMARK    1  A    between atoms: C_1  and  C_2
REMARK    2  A    between atoms: C_6  and  N_7
REMARK    3  A    between atoms: N_7  and  C_8
REMARK    4  A    between atoms: C_13  and  C_14
REMARK    5  A    between atoms: N_16  and  C_17
REMARK    6  A    between atoms: C_17  and  C_18
REMARK    7  A    between atoms: N_20  and  C_21
REMARK    8  A    between atoms: C_21  and  C_22
REMARK    9  A    between atoms: C_22  and  C_23
REMARK   10  A    between atoms: C_23  and  C_24
REMARK   11  A    between atoms: C_24  and  C_25
REMARK   12  A    between atoms: C_25  and  C_26
REMARK   13  A    between atoms: C_26  and  N_27
REMARK   14  A    between atoms: N_27  and  C_28
REMARK   15  A    between atoms: C_43  and  C_44
REMARK                            x       y       z     vdW  Elec       q    Type
REMARK                         _______ _______ _______ _____ _____    ______ ____
ROOT
ATOM      1  C   UNL A   1      45.368 -15.775 -39.040  0.00  0.00    +0.230 C 
ATOM      2  O   UNL A   1      44.443 -15.013 -38.778  0.00  0.00    -0.274 OA
ATOM      3  N   UNL A   1      45.992 -16.586 -38.108  0.00  0.00    -0.314 N 
ATOM      4  H   UNL A   1      46.535 -17.340 -38.435  0.00  0.00    +0.000 HD
ENDROOT
BRANCH   1   5
ATOM      5  C   UNL A   1      45.794 -16.066 -40.486  0.00  0.00    +0.088 C 
BRANCH   5   8
ATOM      6  C   UNL A   1      45.547 -18.420 -41.104  0.00  0.00    +0.246 C 
ATOM      7  O   UNL A   1      44.413 -18.228 -41.530  0.00  0.00    -0.270 OA
ATOM      8  N   UNL A   1      46.372 -17.396 -40.672  0.00  0.00    -0.303 N 
ATOM      9  H   UNL A   1      47.326 -17.560 -40.492  0.00  0.00    +0.000 HD
BRANCH   6  15
ATOM     10  C   UNL A   1      45.496 -20.712 -40.086  0.00  0.00    +0.044 A 
ATOM     11  C   UNL A   1      46.021 -22.011 -40.022  0.00  0.00    -0.040 A 
ATOM     12  C   UNL A   1      47.086 -22.405 -40.836  0.00  0.00    -0.060 A 
ATOM     13  C   UNL A   1      47.649 -21.502 -41.733  0.00  0.00    -0.061 A 
ATOM     14  C   UNL A   1      47.150 -20.202 -41.819  0.00  0.00    -0.048 A 
ATOM     15  C   UNL A   1      46.083 -19.803 -40.996  0.00  0.00    +0.058 A 
BRANCH  10  16
ATOM     16  N   UNL A   1      44.442 -20.315 -39.234  0.00  0.00    -0.314 N 
ATOM     17  H   UNL A   1      44.734 -19.846 -38.420  0.00  0.00    +0.000 HD
BRANCH  16  23
ATOM     18  C   UNL A   1      39.814 -18.553 -38.472  0.00  0.00    -0.039 C 
ATOM     19  C   UNL A   1      40.774 -19.598 -38.978  0.00  0.00    -0.046 A 
ATOM     20  C   UNL A   1      40.248 -20.757 -39.564  0.00  0.00    -0.058 A 
ATOM     21  C   UNL A   1      41.089 -21.756 -40.037  0.00  0.00    -0.060 A 
ATOM     22  C   UNL A   1      42.471 -21.614 -39.923  0.00  0.00    -0.040 A 
ATOM     23  C   UNL A   1      43.039 -20.472 -39.341  0.00  0.00    +0.035 A 
ATOM     24  C   UNL A   1      42.179 -19.433 -38.895  0.00  0.00    -0.026 A 
ATOM     25  C   UNL A   1      42.767 -18.182 -38.283  0.00  0.00    -0.038 C 
ENDBRANCH  16  23
ENDBRANCH  10  16
ENDBRANCH   6  15
ENDBRANCH   5   8
ENDBRANCH   1   5
BRANCH   3  26
ATOM     26  C   UNL A   1      45.889 -16.387 -36.676  0.00  0.00    +0.012 C 
BRANCH  26  27
ATOM     27  C   UNL A   1      46.976 -17.026 -35.812  0.00  0.00    -0.037 C 
BRANCH  27  28
ATOM     28  C   UNL A   1      47.205 -18.515 -36.084  0.00  0.00    -0.052 C 
BRANCH  28  29
ATOM     29  C   UNL A   1      46.677 -19.352 -34.917  0.00  0.00    -0.052 C 
BRANCH  29  30
ATOM     30  C   UNL A   1      45.628 -20.371 -35.364  0.00  0.00    -0.037 C 
BRANCH  30  31
ATOM     31  C   UNL A   1      44.220 -19.891 -35.007  0.00  0.00    +0.009 C 
BRANCH  31  32
ATOM     32  N   UNL A   1      44.068 -19.886 -33.546  0.00  0.00    -0.343 N 
ATOM     33  H   UNL A   1      44.658 -20.373 -32.926  0.00  0.00    +0.000 HD
BRANCH  32  34
ATOM     34  C   UNL A   1      42.958 -19.089 -33.134  0.00  0.00    +0.041 A 
ATOM     35  C   UNL A   1      43.077 -17.690 -33.022  0.00  0.00    -0.005 A 
ATOM     36  C   UNL A   1      41.929 -16.970 -32.678  0.00  0.00    +0.047 A 
ATOM     37  N   UNL A   1      40.714 -17.544 -32.503  0.00  0.00    -0.251 NA
ATOM     38  C   UNL A   1      40.598 -18.871 -32.623  0.00  0.00    +0.074 A 
ATOM     39  C   UNL A   1      39.345 -19.435 -32.431  0.00  0.00    -0.017 A 
ATOM     40  C   UNL A   1      39.148 -20.811 -32.528  0.00  0.00    +0.043 A 
ATOM     41 CL   UNL A   1      37.577 -21.471 -32.284  0.00  0.00    -0.083 Cl
ATOM     42  C   UNL A   1      40.211 -21.653 -32.813  0.00  0.00    -0.043 A 
ATOM     43  C   UNL A   1      41.476 -21.102 -33.010  0.00  0.00    -0.049 A 
ATOM     44  C   UNL A   1      41.689 -19.705 -32.934  0.00  0.00    +0.022 A 
ATOM     45  C   UNL A   1      41.943 -15.468 -32.540  0.00  0.00    -0.010 C 
ATOM     46  C   UNL A   1      43.336 -14.899 -32.304  0.00  0.00    -0.047 C 
ATOM     47  C   UNL A   1      44.301 -15.469 -33.332  0.00  0.00    -0.049 C 
ATOM     48  C   UNL A   1      44.404 -16.988 -33.187  0.00  0.00    -0.024 C 
ENDBRANCH  32  34
ENDBRANCH  31  32
ENDBRANCH  30  31
ENDBRANCH  29  30
ENDBRANCH  28  29
ENDBRANCH  27  28
ENDBRANCH  26  27
ENDBRANCH   3  26
TORSDOF 13
ENDMDL
MODEL 11
REMARK VINA RESULT:    -6.451     18.489     23.330
REMARK INTER + INTRA:         -16.198
REMARK INTER:                 -11.669
REMARK INTRA:                  -4.530
REMARK UNBOUND:                -4.845
REMARK  Name = cpd49.pdb
REMARK  15 active torsions:
REMARK  status: ('A' for Active; 'I' for Inactive)
REMARK    1  A    between atoms: C_1  and  C_2
REMARK    2  A    between atoms: C_6  and  N_7
REMARK    3  A    between atoms: N_7  and  C_8
REMARK    4  A    between atoms: C_13  and  C_14
REMARK    5  A    between atoms: N_16  and  C_17
REMARK    6  A    between atoms: C_17  and  C_18
REMARK    7  A    between atoms: N_20  and  C_21
REMARK    8  A    between atoms: C_21  and  C_22
REMARK    9  A    between atoms: C_22  and  C_23
REMARK   10  A    between atoms: C_23  and  C_24
REMARK   11  A    between atoms: C_24  and  C_25
REMARK   12  A    between atoms: C_25  and  C_26
REMARK   13  A    between atoms: C_26  and  N_27
REMARK   14  A    between atoms: N_27  and  C_28
REMARK   15  A    between atoms: C_43  and  C_44
REMARK                            x       y       z     vdW  Elec       q    Type
REMARK                         _______ _______ _______ _____ _____    ______ ____
ROOT
ATOM      1  C   UNL A   1      43.628 -16.760 -33.469  0.00  0.00    +0.230 C 
ATOM      2  O   UNL A   1      43.162 -15.752 -32.947  0.00  0.00    -0.274 OA
ATOM      3  N   UNL A   1      44.204 -16.785 -34.727  0.00  0.00    -0.314 N 
ATOM      4  H   UNL A   1      44.774 -17.553 -34.963  0.00  0.00    +0.000 HD
ENDROOT
BRANCH   1   5
ATOM      5  C   UNL A   1      43.810 -18.068 -32.686  0.00  0.00    +0.088 C 
BRANCH   5   8
ATOM      6  C   UNL A   1      41.768 -19.398 -32.883  0.00  0.00    +0.246 C 
ATOM      7  O   UNL A   1      41.119 -18.566 -32.257  0.00  0.00    -0.270 OA
ATOM      8  N   UNL A   1      43.085 -19.200 -33.258  0.00  0.00    -0.303 N 
ATOM      9  H   UNL A   1      43.523 -19.809 -33.896  0.00  0.00    +0.000 HD
BRANCH   6  15
ATOM     10  C   UNL A   1      40.420 -20.832 -34.439  0.00  0.00    +0.044 A 
ATOM     11  C   UNL A   1      39.871 -22.085 -34.749  0.00  0.00    -0.040 A 
ATOM     12  C   UNL A   1      40.052 -23.185 -33.905  0.00  0.00    -0.060 A 
ATOM     13  C   UNL A   1      40.788 -23.050 -32.731  0.00  0.00    -0.061 A 
ATOM     14  C   UNL A   1      41.345 -21.816 -32.397  0.00  0.00    -0.048 A 
ATOM     15  C   UNL A   1      41.158 -20.708 -33.241  0.00  0.00    +0.058 A 
BRANCH  10  16
ATOM     16  N   UNL A   1      40.201 -19.719 -35.282  0.00  0.00    -0.314 N 
ATOM     17  H   UNL A   1      39.556 -19.065 -34.929  0.00  0.00    +0.000 HD
BRANCH  16  23
ATOM     18  C   UNL A   1      39.844 -17.248 -39.625  0.00  0.00    -0.039 C 
ATOM     19  C   UNL A   1      40.571 -18.153 -38.664  0.00  0.00    -0.046 A 
ATOM     20  C   UNL A   1      41.817 -18.667 -39.047  0.00  0.00    -0.058 A 
ATOM     21  C   UNL A   1      42.524 -19.514 -38.202  0.00  0.00    -0.060 A 
ATOM     22  C   UNL A   1      41.988 -19.866 -36.964  0.00  0.00    -0.040 A 
ATOM     23  C   UNL A   1      40.744 -19.376 -36.543  0.00  0.00    +0.035 A 
ATOM     24  C   UNL A   1      40.042 -18.478 -37.390  0.00  0.00    -0.026 A 
ATOM     25  C   UNL A   1      38.708 -17.919 -36.952  0.00  0.00    -0.038 C 
ENDBRANCH  16  23
ENDBRANCH  10  16
ENDBRANCH   6  15
ENDBRANCH   5   8
ENDBRANCH   1   5
BRANCH   3  26
ATOM     26  C   UNL A   1      44.016 -15.743 -35.716  0.00  0.00    +0.012 C 
BRANCH  26  27
ATOM     27  C   UNL A   1      43.007 -16.025 -36.829  0.00  0.00    -0.037 C 
BRANCH  27  28
ATOM     28  C   UNL A   1      42.403 -14.770 -37.466  0.00  0.00    -0.052 C 
BRANCH  28  29
ATOM     29  C   UNL A   1      42.530 -14.838 -38.990  0.00  0.00    -0.052 C 
BRANCH  29  30
ATOM     30  C   UNL A   1      43.983 -14.978 -39.444  0.00  0.00    -0.037 C 
BRANCH  30  31
ATOM     31  C   UNL A   1      44.132 -16.140 -40.428  0.00  0.00    +0.009 C 
BRANCH  31  32
ATOM     32  N   UNL A   1      45.549 -16.521 -40.514  0.00  0.00    -0.343 N 
ATOM     33  H   UNL A   1      46.247 -15.965 -40.929  0.00  0.00    +0.000 HD
BRANCH  32  34
ATOM     34  C   UNL A   1      45.789 -17.798 -39.922  0.00  0.00    +0.041 A 
ATOM     35  C   UNL A   1      45.478 -18.984 -40.616  0.00  0.00    -0.005 A 
ATOM     36  C   UNL A   1      45.803 -20.196 -40.000  0.00  0.00    +0.047 A 
ATOM     37  N   UNL A   1      46.443 -20.277 -38.809  0.00  0.00    -0.251 NA
ATOM     38  C   UNL A   1      46.753 -19.151 -38.157  0.00  0.00    +0.074 A 
ATOM     39  C   UNL A   1      47.400 -19.261 -36.935  0.00  0.00    -0.017 A 
ATOM     40  C   UNL A   1      47.744 -18.134 -36.193  0.00  0.00    +0.043 A 
ATOM     41 CL   UNL A   1      48.549 -18.315 -34.682  0.00  0.00    -0.083 Cl
ATOM     42  C   UNL A   1      47.435 -16.866 -36.660  0.00  0.00    -0.043 A 
ATOM     43  C   UNL A   1      46.785 -16.737 -37.886  0.00  0.00    -0.049 A 
ATOM     44  C   UNL A   1      46.446 -17.872 -38.661  0.00  0.00    +0.022 A 
ATOM     45  C   UNL A   1      45.521 -21.523 -40.657  0.00  0.00    -0.010 C 
ATOM     46  C   UNL A   1      44.447 -21.445 -41.735  0.00  0.00    -0.047 C 
ATOM     47  C   UNL A   1      44.760 -20.300 -42.685  0.00  0.00    -0.049 C 
ATOM     48  C   UNL A   1      44.749 -18.966 -41.939  0.00  0.00    -0.024 C 
ENDBRANCH  32  34
ENDBRANCH  31  32
ENDBRANCH  30  31
ENDBRANCH  29  30
ENDBRANCH  28  29
ENDBRANCH  27  28
ENDBRANCH  26  27
ENDBRANCH   3  26
TORSDOF 13
ENDMDL
MODEL 12
REMARK VINA RESULT:    -6.398     18.901     22.041
REMARK INTER + INTRA:         -16.106
REMARK INTER:                 -10.330
REMARK INTRA:                  -5.775
REMARK UNBOUND:                -4.845
REMARK  Name = cpd49.pdb
REMARK  15 active torsions:
REMARK  status: ('A' for Active; 'I' for Inactive)
REMARK    1  A    between atoms: C_1  and  C_2
REMARK    2  A    between atoms: C_6  and  N_7
REMARK    3  A    between atoms: N_7  and  C_8
REMARK    4  A    between atoms: C_13  and  C_14
REMARK    5  A    between atoms: N_16  and  C_17
REMARK    6  A    between atoms: C_17  and  C_18
REMARK    7  A    between atoms: N_20  and  C_21
REMARK    8  A    between atoms: C_21  and  C_22
REMARK    9  A    between atoms: C_22  and  C_23
REMARK   10  A    between atoms: C_23  and  C_24
REMARK   11  A    between atoms: C_24  and  C_25
REMARK   12  A    between atoms: C_25  and  C_26
REMARK   13  A    between atoms: C_26  and  N_27
REMARK   14  A    between atoms: N_27  and  C_28
REMARK   15  A    between atoms: C_43  and  C_44
REMARK                            x       y       z     vdW  Elec       q    Type
REMARK                         _______ _______ _______ _____ _____    ______ ____
ROOT
ATOM      1  C   UNL A   1      37.984 -16.934 -34.828  0.00  0.00    +0.230 C 
ATOM      2  O   UNL A   1      37.197 -17.201 -33.925  0.00  0.00    -0.274 OA
ATOM      3  N   UNL A   1      39.180 -16.263 -34.641  0.00  0.00    -0.314 N 
ATOM      4  H   UNL A   1      39.860 -16.316 -35.351  0.00  0.00    +0.000 HD
ENDROOT
BRANCH   1   5
ATOM      5  C   UNL A   1      37.820 -17.509 -36.242  0.00  0.00    +0.088 C 
BRANCH   5   8
ATOM      6  C   UNL A   1      39.189 -18.669 -37.905  0.00  0.00    +0.246 C 
ATOM      7  O   UNL A   1      38.887 -17.858 -38.774  0.00  0.00    -0.270 OA
ATOM      8  N   UNL A   1      38.813 -18.527 -36.580  0.00  0.00    -0.303 N 
ATOM      9  H   UNL A   1      39.205 -19.100 -35.882  0.00  0.00    +0.000 HD
BRANCH   6  15
ATOM     10  C   UNL A   1      41.230 -19.766 -38.865  0.00  0.00    +0.044 A 
ATOM     11  C   UNL A   1      41.934 -20.941 -39.169  0.00  0.00    -0.040 A 
ATOM     12  C   UNL A   1      41.405 -22.200 -38.874  0.00  0.00    -0.060 A 
ATOM     13  C   UNL A   1      40.157 -22.308 -38.267  0.00  0.00    -0.061 A 
ATOM     14  C   UNL A   1      39.433 -21.158 -37.954  0.00  0.00    -0.048 A 
ATOM     15  C   UNL A   1      39.961 -19.891 -38.255  0.00  0.00    +0.058 A 
BRANCH  10  16
ATOM     16  N   UNL A   1      41.760 -18.499 -39.199  0.00  0.00    -0.314 N 
ATOM     17  H   UNL A   1      41.251 -18.019 -39.891  0.00  0.00    +0.000 HD
BRANCH  16  23
ATOM     18  C   UNL A   1      46.402 -16.755 -39.906  0.00  0.00    -0.039 C 
ATOM     19  C   UNL A   1      45.160 -16.933 -39.073  0.00  0.00    -0.046 A 
ATOM     20  C   UNL A   1      45.140 -16.388 -37.782  0.00  0.00    -0.058 A 
ATOM     21  C   UNL A   1      44.023 -16.534 -36.969  0.00  0.00    -0.060 A 
ATOM     22  C   UNL A   1      42.912 -17.235 -37.433  0.00  0.00    -0.040 A 
ATOM     23  C   UNL A   1      42.890 -17.798 -38.717  0.00  0.00    +0.035 A 
ATOM     24  C   UNL A   1      44.016 -17.613 -39.562  0.00  0.00    -0.026 A 
ATOM     25  C   UNL A   1      44.011 -18.192 -40.958  0.00  0.00    -0.038 C 
ENDBRANCH  16  23
ENDBRANCH  10  16
ENDBRANCH   6  15
ENDBRANCH   5   8
ENDBRANCH   1   5
BRANCH   3  26
ATOM     26  C   UNL A   1      39.487 -15.488 -33.456  0.00  0.00    +0.012 C 
BRANCH  26  27
ATOM     27  C   UNL A   1      40.873 -15.685 -32.843  0.00  0.00    -0.037 C 
BRANCH  27  28
ATOM     28  C   UNL A   1      41.973 -15.998 -33.860  0.00  0.00    -0.052 C 
BRANCH  28  29
ATOM     29  C   UNL A   1      43.242 -15.208 -33.527  0.00  0.00    -0.052 C 
BRANCH  29  30
ATOM     30  C   UNL A   1      44.471 -16.110 -33.410  0.00  0.00    -0.037 C 
BRANCH  30  31
ATOM     31  C   UNL A   1      44.267 -17.163 -32.319  0.00  0.00    +0.009 C 
BRANCH  31  32
ATOM     32  N   UNL A   1      45.115 -18.328 -32.609  0.00  0.00    -0.343 N 
ATOM     33  H   UNL A   1      45.865 -18.621 -32.042  0.00  0.00    +0.000 HD
BRANCH  32  34
ATOM     34  C   UNL A   1      44.717 -18.984 -33.812  0.00  0.00    +0.041 A 
ATOM     35  C   UNL A   1      45.632 -19.171 -34.867  0.00  0.00    -0.005 A 
ATOM     36  C   UNL A   1      45.189 -19.881 -35.988  0.00  0.00    +0.047 A 
ATOM     37  N   UNL A   1      43.956 -20.434 -36.078  0.00  0.00    -0.251 NA
ATOM     38  C   UNL A   1      43.092 -20.270 -35.070  0.00  0.00    +0.074 A 
ATOM     39  C   UNL A   1      41.833 -20.840 -35.191  0.00  0.00    -0.017 A 
ATOM     40  C   UNL A   1      40.876 -20.702 -34.188  0.00  0.00    +0.043 A 
ATOM     41 CL   UNL A   1      39.326 -21.426 -34.377  0.00  0.00    -0.083 Cl
ATOM     42  C   UNL A   1      41.162 -19.978 -33.041  0.00  0.00    -0.043 A 
ATOM     43  C   UNL A   1      42.423 -19.400 -32.904  0.00  0.00    -0.049 A 
ATOM     44  C   UNL A   1      43.412 -19.547 -33.905  0.00  0.00    +0.022 A 
ATOM     45  C   UNL A   1      46.088 -20.145 -37.169  0.00  0.00    -0.010 C 
ATOM     46  C   UNL A   1      47.266 -19.183 -37.255  0.00  0.00    -0.047 C 
ATOM     47  C   UNL A   1      47.965 -19.110 -35.906  0.00  0.00    -0.049 C 
ATOM     48  C   UNL A   1      47.015 -18.566 -34.839  0.00  0.00    -0.024 C 
ENDBRANCH  32  34
ENDBRANCH  31  32
ENDBRANCH  30  31
ENDBRANCH  29  30
ENDBRANCH  28  29
ENDBRANCH  27  28
ENDBRANCH  26  27
ENDBRANCH   3  26
TORSDOF 13
ENDMDL
MODEL 13
REMARK VINA RESULT:    -6.389     16.832     20.964
REMARK INTER + INTRA:         -16.090
REMARK INTER:                 -10.597
REMARK INTRA:                  -5.493
REMARK UNBOUND:                -4.845
REMARK  Name = cpd49.pdb
REMARK  15 active torsions:
REMARK  status: ('A' for Active; 'I' for Inactive)
REMARK    1  A    between atoms: C_1  and  C_2
REMARK    2  A    between atoms: C_6  and  N_7
REMARK    3  A    between atoms: N_7  and  C_8
REMARK    4  A    between atoms: C_13  and  C_14
REMARK    5  A    between atoms: N_16  and  C_17
REMARK    6  A    between atoms: C_17  and  C_18
REMARK    7  A    between atoms: N_20  and  C_21
REMARK    8  A    between atoms: C_21  and  C_22
REMARK    9  A    between atoms: C_22  and  C_23
REMARK   10  A    between atoms: C_23  and  C_24
REMARK   11  A    between atoms: C_24  and  C_25
REMARK   12  A    between atoms: C_25  and  C_26
REMARK   13  A    between atoms: C_26  and  N_27
REMARK   14  A    between atoms: N_27  and  C_28
REMARK   15  A    between atoms: C_43  and  C_44
REMARK                            x       y       z     vdW  Elec       q    Type
REMARK                         _______ _______ _______ _____ _____    ______ ____
ROOT
ATOM      1  C   UNL A   1      46.105 -20.265 -38.470  0.00  0.00    +0.230 C 
ATOM      2  O   UNL A   1      47.126 -20.943 -38.404  0.00  0.00    -0.274 OA
ATOM      3  N   UNL A   1      45.993 -18.982 -37.962  0.00  0.00    -0.314 N 
ATOM      4  H   UNL A   1      45.247 -18.420 -38.276  0.00  0.00    +0.000 HD
ENDROOT
BRANCH   1   5
ATOM      5  C   UNL A   1      44.900 -20.695 -39.318  0.00  0.00    +0.088 C 
BRANCH   5   8
ATOM      6  C   UNL A   1      42.471 -20.942 -39.167  0.00  0.00    +0.246 C 
ATOM      7  O   UNL A   1      42.351 -20.883 -40.387  0.00  0.00    -0.270 OA
ATOM      8  N   UNL A   1      43.701 -20.978 -38.533  0.00  0.00    -0.303 N 
ATOM      9  H   UNL A   1      43.766 -21.190 -37.573  0.00  0.00    +0.000 HD
BRANCH   6  15
ATOM     10  C   UNL A   1      40.624 -19.714 -37.995  0.00  0.00    +0.044 A 
ATOM     11  C   UNL A   1      39.483 -19.751 -37.180  0.00  0.00    -0.040 A 
ATOM     12  C   UNL A   1      38.988 -20.959 -36.680  0.00  0.00    -0.060 A 
ATOM     13  C   UNL A   1      39.626 -22.156 -36.988  0.00  0.00    -0.061 A 
ATOM     14  C   UNL A   1      40.763 -22.150 -37.796  0.00  0.00    -0.048 A 
ATOM     15  C   UNL A   1      41.266 -20.937 -38.294  0.00  0.00    +0.058 A 
BRANCH  10  16
ATOM     16  N   UNL A   1      41.136 -18.484 -38.467  0.00  0.00    -0.314 N 
ATOM     17  H   UNL A   1      40.794 -18.216 -39.350  0.00  0.00    +0.000 HD
BRANCH  16  23
ATOM     18  C   UNL A   1      45.140 -15.510 -38.928  0.00  0.00    -0.039 C 
ATOM     19  C   UNL A   1      44.007 -16.103 -38.131  0.00  0.00    -0.046 A 
ATOM     20  C   UNL A   1      43.874 -15.733 -36.786  0.00  0.00    -0.058 A 
ATOM     21  C   UNL A   1      42.852 -16.259 -36.005  0.00  0.00    -0.060 A 
ATOM     22  C   UNL A   1      41.954 -17.170 -36.557  0.00  0.00    -0.040 A 
ATOM     23  C   UNL A   1      42.053 -17.570 -37.897  0.00  0.00    +0.035 A 
ATOM     24  C   UNL A   1      43.072 -16.999 -38.705  0.00  0.00    -0.026 A 
ATOM     25  C   UNL A   1      43.188 -17.397 -40.159  0.00  0.00    -0.038 C 
ENDBRANCH  16  23
ENDBRANCH  10  16
ENDBRANCH   6  15
ENDBRANCH   5   8
ENDBRANCH   1   5
BRANCH   3  26
ATOM     26  C   UNL A   1      46.913 -18.420 -36.994  0.00  0.00    +0.012 C 
BRANCH  26  27
ATOM     27  C   UNL A   1      46.765 -18.893 -35.549  0.00  0.00    -0.037 C 
BRANCH  27  28
ATOM     28  C   UNL A   1      45.834 -18.030 -34.694  0.00  0.00    -0.052 C 
BRANCH  28  29
ATOM     29  C   UNL A   1      44.773 -18.904 -34.020  0.00  0.00    -0.052 C 
BRANCH  29  30
ATOM     30  C   UNL A   1      44.390 -20.111 -34.876  0.00  0.00    -0.037 C 
BRANCH  30  31
ATOM     31  C   UNL A   1      42.885 -20.374 -34.796  0.00  0.00    +0.009 C 
BRANCH  31  32
ATOM     32  N   UNL A   1      42.489 -20.492 -33.386  0.00  0.00    -0.343 N 
ATOM     33  H   UNL A   1      43.110 -20.705 -32.652  0.00  0.00    +0.000 HD
BRANCH  32  34
ATOM     34  C   UNL A   1      41.092 -20.258 -33.209  0.00  0.00    +0.041 A 
ATOM     35  C   UNL A   1      40.175 -21.328 -33.221  0.00  0.00    -0.005 A 
ATOM     36  C   UNL A   1      38.831 -21.029 -32.975  0.00  0.00    +0.047 A 
ATOM     37  N   UNL A   1      38.388 -19.784 -32.676  0.00  0.00    -0.251 NA
ATOM     38  C   UNL A   1      39.261 -18.770 -32.649  0.00  0.00    +0.074 A 
ATOM     39  C   UNL A   1      38.781 -17.505 -32.349  0.00  0.00    -0.017 A 
ATOM     40  C   UNL A   1      39.627 -16.398 -32.313  0.00  0.00    +0.043 A 
ATOM     41 CL   UNL A   1      38.991 -14.845 -31.934  0.00  0.00    -0.083 Cl
ATOM     42  C   UNL A   1      40.978 -16.540 -32.589  0.00  0.00    -0.043 A 
ATOM     43  C   UNL A   1      41.477 -17.806 -32.892  0.00  0.00    -0.049 A 
ATOM     44  C   UNL A   1      40.634 -18.943 -32.913  0.00  0.00    +0.022 A 
ATOM     45  C   UNL A   1      37.769 -22.098 -32.957  0.00  0.00    -0.010 C 
ATOM     46  C   UNL A   1      38.176 -23.363 -33.702  0.00  0.00    -0.047 C 
ATOM     47  C   UNL A   1      39.556 -23.806 -33.241  0.00  0.00    -0.049 C 
ATOM     48  C   UNL A   1      40.598 -22.736 -33.565  0.00  0.00    -0.024 C 
ENDBRANCH  32  34
ENDBRANCH  31  32
ENDBRANCH  30  31
ENDBRANCH  29  30
ENDBRANCH  28  29
ENDBRANCH  27  28
ENDBRANCH  26  27
ENDBRANCH   3  26
TORSDOF 13
ENDMDL
MODEL 14
REMARK VINA RESULT:    -6.357     17.069     20.825
REMARK INTER + INTRA:         -16.032
REMARK INTER:                 -11.144
REMARK INTRA:                  -4.888
REMARK UNBOUND:                -4.845
REMARK  Name = cpd49.pdb
REMARK  15 active torsions:
REMARK  status: ('A' for Active; 'I' for Inactive)
REMARK    1  A    between atoms: C_1  and  C_2
REMARK    2  A    between atoms: C_6  and  N_7
REMARK    3  A    between atoms: N_7  and  C_8
REMARK    4  A    between atoms: C_13  and  C_14
REMARK    5  A    between atoms: N_16  and  C_17
REMARK    6  A    between atoms: C_17  and  C_18
REMARK    7  A    between atoms: N_20  and  C_21
REMARK    8  A    between atoms: C_21  and  C_22
REMARK    9  A    between atoms: C_22  and  C_23
REMARK   10  A    between atoms: C_23  and  C_24
REMARK   11  A    between atoms: C_24  and  C_25
REMARK   12  A    between atoms: C_25  and  C_26
REMARK   13  A    between atoms: C_26  and  N_27
REMARK   14  A    between atoms: N_27  and  C_28
REMARK   15  A    between atoms: C_43  and  C_44
REMARK                            x       y       z     vdW  Elec       q    Type
REMARK                         _______ _______ _______ _____ _____    ______ ____
ROOT
ATOM      1  C   UNL A   1      46.576 -18.758 -35.420  0.00  0.00    +0.230 C 
ATOM      2  O   UNL A   1      46.622 -19.930 -35.058  0.00  0.00    -0.274 OA
ATOM      3  N   UNL A   1      46.124 -17.719 -34.625  0.00  0.00    -0.314 N 
ATOM      4  H   UNL A   1      46.357 -16.798 -34.885  0.00  0.00    +0.000 HD
ENDROOT
BRANCH   1   5
ATOM      5  C   UNL A   1      47.219 -18.289 -36.732  0.00  0.00    +0.088 C 
BRANCH   5   8
ATOM      6  C   UNL A   1      45.475 -18.700 -38.397  0.00  0.00    +0.246 C 
ATOM      7  O   UNL A   1      44.830 -17.728 -38.016  0.00  0.00    -0.270 OA
ATOM      8  N   UNL A   1      46.735 -19.004 -37.912  0.00  0.00    -0.303 N 
ATOM      9  H   UNL A   1      47.292 -19.687 -38.350  0.00  0.00    +0.000 HD
BRANCH   6  15
ATOM     10  C   UNL A   1      43.725 -20.360 -39.083  0.00  0.00    +0.044 A 
ATOM     11  C   UNL A   1      43.203 -21.226 -40.056  0.00  0.00    -0.040 A 
ATOM     12  C   UNL A   1      43.816 -21.368 -41.304  0.00  0.00    -0.060 A 
ATOM     13  C   UNL A   1      44.967 -20.644 -41.603  0.00  0.00    -0.061 A 
ATOM     14  C   UNL A   1      45.509 -19.777 -40.654  0.00  0.00    -0.048 A 
ATOM     15  C   UNL A   1      44.898 -19.638 -39.397  0.00  0.00    +0.058 A 
BRANCH  10  16
ATOM     16  N   UNL A   1      43.116 -20.250 -37.813  0.00  0.00    -0.314 N 
ATOM     17  H   UNL A   1      43.633 -19.723 -37.161  0.00  0.00    +0.000 HD
BRANCH  16  23
ATOM     18  C   UNL A   1      38.262 -19.622 -36.743  0.00  0.00    -0.039 C 
ATOM     19  C   UNL A   1      39.516 -20.455 -36.798  0.00  0.00    -0.046 A 
ATOM     20  C   UNL A   1      39.461 -21.774 -36.327  0.00  0.00    -0.058 A 
ATOM     21  C   UNL A   1      40.591 -22.581 -36.346  0.00  0.00    -0.060 A 
ATOM     22  C   UNL A   1      41.797 -22.078 -36.830  0.00  0.00    -0.040 A 
ATOM     23  C   UNL A   1      41.898 -20.763 -37.308  0.00  0.00    +0.035 A 
ATOM     24  C   UNL A   1      40.732 -19.953 -37.327  0.00  0.00    -0.026 A 
ATOM     25  C   UNL A   1      40.808 -18.539 -37.856  0.00  0.00    -0.038 C 
ENDBRANCH  16  23
ENDBRANCH  10  16
ENDBRANCH   6  15
ENDBRANCH   5   8
ENDBRANCH   1   5
BRANCH   3  26
ATOM     26  C   UNL A   1      45.329 -17.912 -33.429  0.00  0.00    +0.012 C 
BRANCH  26  27
ATOM     27  C   UNL A   1      43.869 -18.317 -33.632  0.00  0.00    -0.037 C 
BRANCH  27  28
ATOM     28  C   UNL A   1      43.191 -17.656 -34.834  0.00  0.00    -0.052 C 
BRANCH  28  29
ATOM     29  C   UNL A   1      42.365 -16.450 -34.379  0.00  0.00    -0.052 C 
BRANCH  29  30
ATOM     30  C   UNL A   1      41.926 -16.567 -32.920  0.00  0.00    -0.037 C 
BRANCH  30  31
ATOM     31  C   UNL A   1      40.400 -16.593 -32.815  0.00  0.00    +0.009 C 
BRANCH  31  32
ATOM     32  N   UNL A   1      39.853 -17.392 -33.920  0.00  0.00    -0.343 N 
ATOM     33  H   UNL A   1      40.060 -17.238 -34.870  0.00  0.00    +0.000 HD
BRANCH  32  34
ATOM     34  C   UNL A   1      38.984 -18.422 -33.447  0.00  0.00    +0.041 A 
ATOM     35  C   UNL A   1      37.598 -18.198 -33.332  0.00  0.00    -0.005 A 
ATOM     36  C   UNL A   1      36.802 -19.274 -32.925  0.00  0.00    +0.047 A 
ATOM     37  N   UNL A   1      37.291 -20.515 -32.693  0.00  0.00    -0.251 NA
ATOM     38  C   UNL A   1      38.606 -20.732 -32.817  0.00  0.00    +0.074 A 
ATOM     39  C   UNL A   1      39.083 -22.010 -32.566  0.00  0.00    -0.017 A 
ATOM     40  C   UNL A   1      40.440 -22.309 -32.663  0.00  0.00    +0.043 A 
ATOM     41 CL   UNL A   1      40.990 -23.908 -32.345  0.00  0.00    -0.083 Cl
ATOM     42  C   UNL A   1      41.352 -21.323 -33.007  0.00  0.00    -0.043 A 
ATOM     43  C   UNL A   1      40.889 -20.034 -33.264  0.00  0.00    -0.049 A 
ATOM     44  C   UNL A   1      39.511 -19.718 -33.188  0.00  0.00    +0.022 A 
ATOM     45  C   UNL A   1      35.307 -19.146 -32.778  0.00  0.00    -0.010 C 
ATOM     46  C   UNL A   1      34.840 -17.706 -32.608  0.00  0.00    -0.047 C 
ATOM     47  C   UNL A   1      35.466 -16.836 -33.687  0.00  0.00    -0.049 C 
ATOM     48  C   UNL A   1      36.989 -16.835 -33.558  0.00  0.00    -0.024 C 
ENDBRANCH  32  34
ENDBRANCH  31  32
ENDBRANCH  30  31
ENDBRANCH  29  30
ENDBRANCH  28  29
ENDBRANCH  27  28
ENDBRANCH  26  27
ENDBRANCH   3  26
TORSDOF 13
ENDMDL
MODEL 15
REMARK VINA RESULT:    -6.340     18.762     22.682
REMARK INTER + INTRA:         -16.004
REMARK INTER:                 -11.951
REMARK INTRA:                  -4.053
REMARK UNBOUND:                -4.845
REMARK  Name = cpd49.pdb
REMARK  15 active torsions:
REMARK  status: ('A' for Active; 'I' for Inactive)
REMARK    1  A    between atoms: C_1  and  C_2
REMARK    2  A    between atoms: C_6  and  N_7
REMARK    3  A    between atoms: N_7  and  C_8
REMARK    4  A    between atoms: C_13  and  C_14
REMARK    5  A    between atoms: N_16  and  C_17
REMARK    6  A    between atoms: C_17  and  C_18
REMARK    7  A    between atoms: N_20  and  C_21
REMARK    8  A    between atoms: C_21  and  C_22
REMARK    9  A    between atoms: C_22  and  C_23
REMARK   10  A    between atoms: C_23  and  C_24
REMARK   11  A    between atoms: C_24  and  C_25
REMARK   12  A    between atoms: C_25  and  C_26
REMARK   13  A    between atoms: C_26  and  N_27
REMARK   14  A    between atoms: N_27  and  C_28
REMARK   15  A    between atoms: C_43  and  C_44
REMARK                            x       y       z     vdW  Elec       q    Type
REMARK                         _______ _______ _______ _____ _____    ______ ____
ROOT
ATOM      1  C   UNL A   1      41.310 -14.929 -38.549  0.00  0.00    +0.230 C 
ATOM      2  O   UNL A   1      41.008 -14.113 -37.683  0.00  0.00    -0.274 OA
ATOM      3  N   UNL A   1      41.220 -16.301 -38.386  0.00  0.00    -0.314 N 
ATOM      4  H   UNL A   1      41.231 -16.867 -39.192  0.00  0.00    +0.000 HD
ENDROOT
BRANCH   1   5
ATOM      5  C   UNL A   1      41.621 -14.503 -39.990  0.00  0.00    +0.088 C 
BRANCH   5   8
ATOM      6  C   UNL A   1      43.652 -15.188 -41.168  0.00  0.00    +0.246 C 
ATOM      7  O   UNL A   1      43.017 -15.934 -41.907  0.00  0.00    -0.270 OA
ATOM      8  N   UNL A   1      43.049 -14.338 -40.258  0.00  0.00    -0.303 N 
ATOM      9  H   UNL A   1      43.570 -13.639 -39.800  0.00  0.00    +0.000 HD
BRANCH   6  15
ATOM     10  C   UNL A   1      45.839 -16.397 -40.946  0.00  0.00    +0.044 A 
ATOM     11  C   UNL A   1      47.240 -16.367 -40.993  0.00  0.00    -0.040 A 
ATOM     12  C   UNL A   1      47.931 -15.188 -41.285  0.00  0.00    -0.060 A 
ATOM     13  C   UNL A   1      47.229 -14.012 -41.535  0.00  0.00    -0.061 A 
ATOM     14  C   UNL A   1      45.835 -14.011 -41.494  0.00  0.00    -0.048 A 
ATOM     15  C   UNL A   1      45.140 -15.195 -41.196  0.00  0.00    +0.058 A 
BRANCH  10  16
ATOM     16  N   UNL A   1      45.152 -17.588 -40.617  0.00  0.00    -0.314 N 
ATOM     17  H   UNL A   1      44.595 -17.523 -39.808  0.00  0.00    +0.000 HD
BRANCH  16  23
ATOM     18  C   UNL A   1      46.635 -22.370 -40.789  0.00  0.00    -0.039 C 
ATOM     19  C   UNL A   1      45.840 -21.203 -41.314  0.00  0.00    -0.046 A 
ATOM     20  C   UNL A   1      45.056 -21.394 -42.460  0.00  0.00    -0.058 A 
ATOM     21  C   UNL A   1      44.311 -20.348 -42.991  0.00  0.00    -0.060 A 
ATOM     22  C   UNL A   1      44.348 -19.092 -42.388  0.00  0.00    -0.040 A 
ATOM     23  C   UNL A   1      45.121 -18.857 -41.242  0.00  0.00    +0.035 A 
ATOM     24  C   UNL A   1      45.849 -19.938 -40.676  0.00  0.00    -0.026 A 
ATOM     25  C   UNL A   1      46.674 -19.716 -39.430  0.00  0.00    -0.038 C 
ENDBRANCH  16  23
ENDBRANCH  10  16
ENDBRANCH   6  15
ENDBRANCH   5   8
ENDBRANCH   1   5
BRANCH   3  26
ATOM     26  C   UNL A   1      41.111 -16.949 -37.095  0.00  0.00    +0.012 C 
BRANCH  26  27
ATOM     27  C   UNL A   1      42.398 -17.090 -36.284  0.00  0.00    -0.037 C 
BRANCH  27  28
ATOM     28  C   UNL A   1      42.183 -17.214 -34.774  0.00  0.00    -0.052 C 
BRANCH  28  29
ATOM     29  C   UNL A   1      43.517 -17.472 -34.069  0.00  0.00    -0.052 C 
BRANCH  29  30
ATOM     30  C   UNL A   1      43.570 -18.855 -33.420  0.00  0.00    -0.037 C 
BRANCH  30  31
ATOM     31  C   UNL A   1      43.986 -19.915 -34.442  0.00  0.00    +0.009 C 
BRANCH  31  32
ATOM     32  N   UNL A   1      43.049 -21.045 -34.374  0.00  0.00    -0.343 N 
ATOM     33  H   UNL A   1      43.206 -21.864 -33.851  0.00  0.00    +0.000 HD
BRANCH  32  34
ATOM     34  C   UNL A   1      41.881 -20.811 -35.161  0.00  0.00    +0.041 A 
ATOM     35  C   UNL A   1      41.962 -20.735 -36.566  0.00  0.00    -0.005 A 
ATOM     36  C   UNL A   1      40.767 -20.569 -37.273  0.00  0.00    +0.047 A 
ATOM     37  N   UNL A   1      39.550 -20.533 -36.680  0.00  0.00    -0.251 NA
ATOM     38  C   UNL A   1      39.472 -20.620 -35.347  0.00  0.00    +0.074 A 
ATOM     39  C   UNL A   1      38.215 -20.572 -34.764  0.00  0.00    -0.017 A 
ATOM     40  C   UNL A   1      38.053 -20.645 -33.382  0.00  0.00    +0.043 A 
ATOM     41 CL   UNL A   1      36.475 -20.584 -32.698  0.00  0.00    -0.083 Cl
ATOM     42  C   UNL A   1      39.159 -20.758 -32.553  0.00  0.00    -0.043 A 
ATOM     43  C   UNL A   1      40.430 -20.809 -33.123  0.00  0.00    -0.049 A 
ATOM     44  C   UNL A   1      40.608 -20.756 -34.526  0.00  0.00    +0.022 A 
ATOM     45  C   UNL A   1      40.739 -20.485 -38.778  0.00  0.00    -0.010 C 
ATOM     46  C   UNL A   1      42.080 -20.090 -39.384  0.00  0.00    -0.047 C 
ATOM     47  C   UNL A   1      43.180 -20.963 -38.800  0.00  0.00    -0.049 C 
ATOM     48  C   UNL A   1      43.288 -20.751 -37.290  0.00  0.00    -0.024 C 
ENDBRANCH  32  34
ENDBRANCH  31  32
ENDBRANCH  30  31
ENDBRANCH  29  30
ENDBRANCH  28  29
ENDBRANCH  27  28
ENDBRANCH  26  27
ENDBRANCH   3  26
TORSDOF 13
ENDMDL
MODEL 16
REMARK VINA RESULT:    -6.299     17.376     22.184
REMARK INTER + INTRA:         -15.930
REMARK INTER:                 -11.752
REMARK INTRA:                  -4.179
REMARK UNBOUND:                -4.845
REMARK  Name = cpd49.pdb
REMARK  15 active torsions:
REMARK  status: ('A' for Active; 'I' for Inactive)
REMARK    1  A    between atoms: C_1  and  C_2
REMARK    2  A    between atoms: C_6  and  N_7
REMARK    3  A    between atoms: N_7  and  C_8
REMARK    4  A    between atoms: C_13  and  C_14
REMARK    5  A    between atoms: N_16  and  C_17
REMARK    6  A    between atoms: C_17  and  C_18
REMARK    7  A    between atoms: N_20  and  C_21
REMARK    8  A    between atoms: C_21  and  C_22
REMARK    9  A    between atoms: C_22  and  C_23
REMARK   10  A    between atoms: C_23  and  C_24
REMARK   11  A    between atoms: C_24  and  C_25
REMARK   12  A    between atoms: C_25  and  C_26
REMARK   13  A    between atoms: C_26  and  N_27
REMARK   14  A    between atoms: N_27  and  C_28
REMARK   15  A    between atoms: C_43  and  C_44
REMARK                            x       y       z     vdW  Elec       q    Type
REMARK                         _______ _______ _______ _____ _____    ______ ____
ROOT
ATOM      1  C   UNL A   1      36.999 -16.978 -34.563  0.00  0.00    +0.230 C 
ATOM      2  O   UNL A   1      36.526 -15.850 -34.661  0.00  0.00    -0.274 OA
ATOM      3  N   UNL A   1      37.780 -17.578 -35.535  0.00  0.00    -0.314 N 
ATOM      4  H   UNL A   1      38.324 -18.359 -35.280  0.00  0.00    +0.000 HD
ENDROOT
BRANCH   1   5
ATOM      5  C   UNL A   1      36.947 -17.767 -33.247  0.00  0.00    +0.088 C 
BRANCH   5   8
ATOM      6  C   UNL A   1      38.130 -19.908 -33.215  0.00  0.00    +0.246 C 
ATOM      7  O   UNL A   1      39.113 -19.400 -32.685  0.00  0.00    -0.270 OA
ATOM      8  N   UNL A   1      36.951 -19.217 -33.432  0.00  0.00    -0.303 N 
ATOM      9  H   UNL A   1      36.133 -19.692 -33.705  0.00  0.00    +0.000 HD
BRANCH   6  15
ATOM     10  C   UNL A   1      38.945 -21.639 -34.838  0.00  0.00    +0.044 A 
ATOM     11  C   UNL A   1      38.978 -22.978 -35.252  0.00  0.00    -0.040 A 
ATOM     12  C   UNL A   1      38.284 -23.970 -34.554  0.00  0.00    -0.060 A 
ATOM     13  C   UNL A   1      37.541 -23.639 -33.425  0.00  0.00    -0.061 A 
ATOM     14  C   UNL A   1      37.488 -22.315 -32.990  0.00  0.00    -0.048 A 
ATOM     15  C   UNL A   1      38.180 -21.316 -33.694  0.00  0.00    +0.058 A 
BRANCH  10  16
ATOM     16  N   UNL A   1      39.623 -20.639 -35.571  0.00  0.00    -0.314 N 
ATOM     17  H   UNL A   1      39.153 -19.775 -35.606  0.00  0.00    +0.000 HD
BRANCH  16  23
ATOM     18  C   UNL A   1      42.172 -20.906 -39.876  0.00  0.00    -0.039 C 
ATOM     19  C   UNL A   1      42.101 -20.774 -38.377  0.00  0.00    -0.046 A 
ATOM     20  C   UNL A   1      43.301 -20.672 -37.660  0.00  0.00    -0.058 A 
ATOM     21  C   UNL A   1      43.292 -20.559 -36.275  0.00  0.00    -0.060 A 
ATOM     22  C   UNL A   1      42.080 -20.554 -35.586  0.00  0.00    -0.040 A 
ATOM     23  C   UNL A   1      40.857 -20.656 -36.264  0.00  0.00    +0.035 A 
ATOM     24  C   UNL A   1      40.866 -20.730 -37.682  0.00  0.00    -0.026 A 
ATOM     25  C   UNL A   1      39.561 -20.821 -38.438  0.00  0.00    -0.038 C 
ENDBRANCH  16  23
ENDBRANCH  10  16
ENDBRANCH   6  15
ENDBRANCH   5   8
ENDBRANCH   1   5
BRANCH   3  26
ATOM     26  C   UNL A   1      37.841 -17.120 -36.909  0.00  0.00    +0.012 C 
BRANCH  26  27
ATOM     27  C   UNL A   1      39.003 -16.198 -37.275  0.00  0.00    -0.037 C 
BRANCH  27  28
ATOM     28  C   UNL A   1      40.385 -16.845 -37.157  0.00  0.00    -0.052 C 
BRANCH  28  29
ATOM     29  C   UNL A   1      41.175 -16.646 -38.453  0.00  0.00    -0.052 C 
BRANCH  29  30
ATOM     30  C   UNL A   1      42.628 -17.104 -38.322  0.00  0.00    -0.037 C 
BRANCH  30  31
ATOM     31  C   UNL A   1      43.214 -17.442 -39.694  0.00  0.00    +0.009 C 
BRANCH  31  32
ATOM     32  N   UNL A   1      44.634 -17.063 -39.719  0.00  0.00    -0.343 N 
ATOM     33  H   UNL A   1      44.967 -16.185 -40.015  0.00  0.00    +0.000 HD
BRANCH  32  34
ATOM     34  C   UNL A   1      45.472 -18.124 -39.261  0.00  0.00    +0.041 A 
ATOM     35  C   UNL A   1      45.990 -18.120 -37.951  0.00  0.00    -0.005 A 
ATOM     36  C   UNL A   1      46.748 -19.225 -37.553  0.00  0.00    +0.047 A 
ATOM     37  N   UNL A   1      46.956 -20.308 -38.340  0.00  0.00    -0.251 NA
ATOM     38  C   UNL A   1      46.450 -20.319 -39.579  0.00  0.00    +0.074 A 
ATOM     39  C   UNL A   1      46.684 -21.436 -40.368  0.00  0.00    -0.017 A 
ATOM     40  C   UNL A   1      46.201 -21.516 -41.672  0.00  0.00    +0.043 A 
ATOM     41 CL   UNL A   1      46.512 -22.920 -42.617  0.00  0.00    -0.083 Cl
ATOM     42  C   UNL A   1      45.476 -20.467 -42.216  0.00  0.00    -0.043 A 
ATOM     43  C   UNL A   1      45.231 -19.338 -41.437  0.00  0.00    -0.049 A 
ATOM     44  C   UNL A   1      45.699 -19.249 -40.104  0.00  0.00    +0.022 A 
ATOM     45  C   UNL A   1      47.342 -19.326 -36.171  0.00  0.00    -0.010 C 
ATOM     46  C   UNL A   1      47.483 -17.977 -35.477  0.00  0.00    -0.047 C 
ATOM     47  C   UNL A   1      46.169 -17.217 -35.568  0.00  0.00    -0.049 C 
ATOM     48  C   UNL A   1      45.812 -16.938 -37.028  0.00  0.00    -0.024 C 
ENDBRANCH  32  34
ENDBRANCH  31  32
ENDBRANCH  30  31
ENDBRANCH  29  30
ENDBRANCH  28  29
ENDBRANCH  27  28
ENDBRANCH  26  27
ENDBRANCH   3  26
TORSDOF 13
ENDMDL
MODEL 17
REMARK VINA RESULT:    -6.286     18.312     22.841
REMARK INTER + INTRA:         -15.908
REMARK INTER:                  -9.979
REMARK INTRA:                  -5.928
REMARK UNBOUND:                -4.845
REMARK  Name = cpd49.pdb
REMARK  15 active torsions:
REMARK  status: ('A' for Active; 'I' for Inactive)
REMARK    1  A    between atoms: C_1  and  C_2
REMARK    2  A    between atoms: C_6  and  N_7
REMARK    3  A    between atoms: N_7  and  C_8
REMARK    4  A    between atoms: C_13  and  C_14
REMARK    5  A    between atoms: N_16  and  C_17
REMARK    6  A    between atoms: C_17  and  C_18
REMARK    7  A    between atoms: N_20  and  C_21
REMARK    8  A    between atoms: C_21  and  C_22
REMARK    9  A    between atoms: C_22  and  C_23
REMARK   10  A    between atoms: C_23  and  C_24
REMARK   11  A    between atoms: C_24  and  C_25
REMARK   12  A    between atoms: C_25  and  C_26
REMARK   13  A    between atoms: C_26  and  N_27
REMARK   14  A    between atoms: N_27  and  C_28
REMARK   15  A    between atoms: C_43  and  C_44
REMARK                            x       y       z     vdW  Elec       q    Type
REMARK                         _______ _______ _______ _____ _____    ______ ____
ROOT
ATOM      1  C   UNL A   1      44.127 -15.606 -34.870  0.00  0.00    +0.230 C 
ATOM      2  O   UNL A   1      43.633 -14.485 -34.950  0.00  0.00    -0.274 OA
ATOM      3  N   UNL A   1      45.070 -16.101 -35.755  0.00  0.00    -0.314 N 
ATOM      4  H   UNL A   1      45.597 -16.887 -35.482  0.00  0.00    +0.000 HD
ENDROOT
BRANCH   1   5
ATOM      5  C   UNL A   1      43.904 -16.505 -33.647  0.00  0.00    +0.088 C 
BRANCH   5   8
ATOM      6  C   UNL A   1      41.880 -17.875 -33.563  0.00  0.00    +0.246 C 
ATOM      7  O   UNL A   1      41.212 -16.930 -33.156  0.00  0.00    -0.270 OA
ATOM      8  N   UNL A   1      43.202 -17.750 -33.953  0.00  0.00    -0.303 N 
ATOM      9  H   UNL A   1      43.658 -18.482 -34.427  0.00  0.00    +0.000 HD
BRANCH   6  15
ATOM     10  C   UNL A   1      40.253 -19.518 -34.537  0.00  0.00    +0.044 A 
ATOM     11  C   UNL A   1      39.732 -20.820 -34.568  0.00  0.00    -0.040 A 
ATOM     12  C   UNL A   1      40.225 -21.820 -33.725  0.00  0.00    -0.060 A 
ATOM     13  C   UNL A   1      41.253 -21.534 -32.831  0.00  0.00    -0.061 A 
ATOM     14  C   UNL A   1      41.790 -20.248 -32.776  0.00  0.00    -0.048 A 
ATOM     15  C   UNL A   1      41.291 -19.241 -33.618  0.00  0.00    +0.058 A 
BRANCH  10  16
ATOM     16  N   UNL A   1      39.724 -18.507 -35.369  0.00  0.00    -0.314 N 
ATOM     17  H   UNL A   1      39.085 -17.907 -34.921  0.00  0.00    +0.000 HD
BRANCH  16  23
ATOM     18  C   UNL A   1      38.018 -18.167 -40.067  0.00  0.00    -0.039 C 
ATOM     19  C   UNL A   1      39.102 -18.024 -39.032  0.00  0.00    -0.046 A 
ATOM     20  C   UNL A   1      40.365 -17.581 -39.446  0.00  0.00    -0.058 A 
ATOM     21  C   UNL A   1      41.403 -17.442 -38.533  0.00  0.00    -0.060 A 
ATOM     22  C   UNL A   1      41.193 -17.753 -37.191  0.00  0.00    -0.040 A 
ATOM     23  C   UNL A   1      39.946 -18.202 -36.733  0.00  0.00    +0.035 A 
ATOM     24  C   UNL A   1      38.876 -18.304 -37.661  0.00  0.00    -0.026 A 
ATOM     25  C   UNL A   1      37.516 -18.766 -37.190  0.00  0.00    -0.038 C 
ENDBRANCH  16  23
ENDBRANCH  10  16
ENDBRANCH   6  15
ENDBRANCH   5   8
ENDBRANCH   1   5
BRANCH   3  26
ATOM     26  C   UNL A   1      45.324 -15.526 -37.060  0.00  0.00    +0.012 C 
BRANCH  26  27
ATOM     27  C   UNL A   1      44.406 -15.969 -38.198  0.00  0.00    -0.037 C 
BRANCH  27  28
ATOM     28  C   UNL A   1      44.397 -15.028 -39.405  0.00  0.00    -0.052 C 
BRANCH  28  29
ATOM     29  C   UNL A   1      44.099 -15.813 -40.686  0.00  0.00    -0.052 C 
BRANCH  29  30
ATOM     30  C   UNL A   1      45.011 -17.030 -40.843  0.00  0.00    -0.037 C 
BRANCH  30  31
ATOM     31  C   UNL A   1      44.186 -18.295 -41.086  0.00  0.00    +0.009 C 
BRANCH  31  32
ATOM     32  N   UNL A   1      44.928 -19.460 -40.584  0.00  0.00    -0.343 N 
ATOM     33  H   UNL A   1      45.601 -19.955 -41.106  0.00  0.00    +0.000 HD
BRANCH  32  34
ATOM     34  C   UNL A   1      44.555 -19.787 -39.245  0.00  0.00    +0.041 A 
ATOM     35  C   UNL A   1      43.351 -20.469 -38.979  0.00  0.00    -0.005 A 
ATOM     36  C   UNL A   1      43.085 -20.813 -37.650  0.00  0.00    +0.047 A 
ATOM     37  N   UNL A   1      43.945 -20.572 -36.632  0.00  0.00    -0.251 NA
ATOM     38  C   UNL A   1      45.095 -19.938 -36.887  0.00  0.00    +0.074 A 
ATOM     39  C   UNL A   1      45.954 -19.695 -35.826  0.00  0.00    -0.017 A 
ATOM     40  C   UNL A   1      47.164 -19.030 -36.010  0.00  0.00    +0.043 A 
ATOM     41 CL   UNL A   1      48.203 -18.751 -34.667  0.00  0.00    -0.083 Cl
ATOM     42  C   UNL A   1      47.533 -18.584 -37.270  0.00  0.00    -0.043 A 
ATOM     43  C   UNL A   1      46.681 -18.821 -38.348  0.00  0.00    -0.049 A 
ATOM     44  C   UNL A   1      45.458 -19.512 -38.180  0.00  0.00    +0.022 A 
ATOM     45  C   UNL A   1      41.830 -21.551 -37.256  0.00  0.00    -0.010 C 
ATOM     46  C   UNL A   1      40.711 -21.427 -38.282  0.00  0.00    -0.047 C 
ATOM     47  C   UNL A   1      41.250 -21.749 -39.667  0.00  0.00    -0.049 C 
ATOM     48  C   UNL A   1      42.340 -20.753 -40.064  0.00  0.00    -0.024 C 
ENDBRANCH  32  34
ENDBRANCH  31  32
ENDBRANCH  30  31
ENDBRANCH  29  30
ENDBRANCH  28  29
ENDBRANCH  27  28
ENDBRANCH  26  27
ENDBRANCH   3  26
TORSDOF 13
ENDMDL
MODEL 18
REMARK VINA RESULT:    -6.283     18.209     22.755
REMARK INTER + INTRA:         -15.903
REMARK INTER:                  -9.829
REMARK INTRA:                  -6.074
REMARK UNBOUND:                -4.845
REMARK  Name = cpd49.pdb
REMARK  15 active torsions:
REMARK  status: ('A' for Active; 'I' for Inactive)
REMARK    1  A    between atoms: C_1  and  C_2
REMARK    2  A    between atoms: C_6  and  N_7
REMARK    3  A    between atoms: N_7  and  C_8
REMARK    4  A    between atoms: C_13  and  C_14
REMARK    5  A    between atoms: N_16  and  C_17
REMARK    6  A    between atoms: C_17  and  C_18
REMARK    7  A    between atoms: N_20  and  C_21
REMARK    8  A    between atoms: C_21  and  C_22
REMARK    9  A    between atoms: C_22  and  C_23
REMARK   10  A    between atoms: C_23  and  C_24
REMARK   11  A    between atoms: C_24  and  C_25
REMARK   12  A    between atoms: C_25  and  C_26
REMARK   13  A    between atoms: C_26  and  N_27
REMARK   14  A    between atoms: N_27  and  C_28
REMARK   15  A    between atoms: C_43  and  C_44
REMARK                            x       y       z     vdW  Elec       q    Type
REMARK                         _______ _______ _______ _____ _____    ______ ____
ROOT
ATOM      1  C   UNL A   1      44.215 -15.687 -34.568  0.00  0.00    +0.230 C 
ATOM      2  O   UNL A   1      43.678 -14.589 -34.674  0.00  0.00    -0.274 OA
ATOM      3  N   UNL A   1      45.250 -16.124 -35.376  0.00  0.00    -0.314 N 
ATOM      4  H   UNL A   1      45.789 -16.890 -35.070  0.00  0.00    +0.000 HD
ENDROOT
BRANCH   1   5
ATOM      5  C   UNL A   1      43.934 -16.616 -33.379  0.00  0.00    +0.088 C 
BRANCH   5   8
ATOM      6  C   UNL A   1      41.843 -17.884 -33.439  0.00  0.00    +0.246 C 
ATOM      7  O   UNL A   1      41.196 -16.908 -33.073  0.00  0.00    -0.270 OA
ATOM      8  N   UNL A   1      43.193 -17.823 -33.739  0.00  0.00    -0.303 N 
ATOM      9  H   UNL A   1      43.644 -18.576 -34.185  0.00  0.00    +0.000 HD
BRANCH   6  15
ATOM     10  C   UNL A   1      40.151 -19.419 -34.476  0.00  0.00    +0.044 A 
ATOM     11  C   UNL A   1      39.571 -20.693 -34.553  0.00  0.00    -0.040 A 
ATOM     12  C   UNL A   1      40.012 -21.741 -33.740  0.00  0.00    -0.060 A 
ATOM     13  C   UNL A   1      41.044 -21.532 -32.830  0.00  0.00    -0.061 A 
ATOM     14  C   UNL A   1      41.639 -20.274 -32.730  0.00  0.00    -0.048 A 
ATOM     15  C   UNL A   1      41.193 -19.219 -33.543  0.00  0.00    +0.058 A 
BRANCH  10  16
ATOM     16  N   UNL A   1      39.674 -18.358 -35.278  0.00  0.00    -0.314 N 
ATOM     17  H   UNL A   1      39.427 -17.549 -34.775  0.00  0.00    +0.000 HD
BRANCH  16  23
ATOM     18  C   UNL A   1      41.393 -17.013 -39.788  0.00  0.00    -0.039 C 
ATOM     19  C   UNL A   1      40.339 -17.602 -38.886  0.00  0.00    -0.046 A 
ATOM     20  C   UNL A   1      39.142 -18.047 -39.463  0.00  0.00    -0.058 A 
ATOM     21  C   UNL A   1      38.134 -18.589 -38.675  0.00  0.00    -0.060 A 
ATOM     22  C   UNL A   1      38.307 -18.686 -37.295  0.00  0.00    -0.040 A 
ATOM     23  C   UNL A   1      39.488 -18.250 -36.677  0.00  0.00    +0.035 A 
ATOM     24  C   UNL A   1      40.533 -17.735 -37.489  0.00  0.00    -0.026 A 
ATOM     25  C   UNL A   1      41.824 -17.278 -36.850  0.00  0.00    -0.038 C 
ENDBRANCH  16  23
ENDBRANCH  10  16
ENDBRANCH   6  15
ENDBRANCH   5   8
ENDBRANCH   1   5
BRANCH   3  26
ATOM     26  C   UNL A   1      45.585 -15.517 -36.649  0.00  0.00    +0.012 C 
BRANCH  26  27
ATOM     27  C   UNL A   1      44.880 -16.075 -37.884  0.00  0.00    -0.037 C 
BRANCH  27  28
ATOM     28  C   UNL A   1      44.890 -15.138 -39.094  0.00  0.00    -0.052 C 
BRANCH  28  29
ATOM     29  C   UNL A   1      44.756 -15.944 -40.389  0.00  0.00    -0.052 C 
BRANCH  29  30
ATOM     30  C   UNL A   1      45.653 -17.182 -40.395  0.00  0.00    -0.037 C 
BRANCH  30  31
ATOM     31  C   UNL A   1      44.833 -18.441 -40.685  0.00  0.00    +0.009 C 
BRANCH  31  32
ATOM     32  N   UNL A   1      45.510 -19.605 -40.095  0.00  0.00    -0.343 N 
ATOM     33  H   UNL A   1      46.245 -20.095 -40.528  0.00  0.00    +0.000 HD
BRANCH  32  34
ATOM     34  C   UNL A   1      44.971 -19.937 -38.816  0.00  0.00    +0.041 A 
ATOM     35  C   UNL A   1      45.709 -19.700 -37.639  0.00  0.00    -0.005 A 
ATOM     36  C   UNL A   1      45.089 -19.989 -36.419  0.00  0.00    +0.047 A 
ATOM     37  N   UNL A   1      43.812 -20.428 -36.319  0.00  0.00    -0.251 NA
ATOM     38  C   UNL A   1      43.106 -20.639 -37.436  0.00  0.00    +0.074 A 
ATOM     39  C   UNL A   1      41.803 -21.096 -37.306  0.00  0.00    -0.017 A 
ATOM     40  C   UNL A   1      41.010 -21.350 -38.423  0.00  0.00    +0.043 A 
ATOM     41 CL   UNL A   1      39.397 -21.916 -38.218  0.00  0.00    -0.083 Cl
ATOM     42  C   UNL A   1      41.514 -21.157 -39.700  0.00  0.00    -0.043 A 
ATOM     43  C   UNL A   1      42.821 -20.696 -39.847  0.00  0.00    -0.049 A 
ATOM     44  C   UNL A   1      43.634 -20.415 -38.722  0.00  0.00    +0.022 A 
ATOM     45  C   UNL A   1      45.785 -19.765 -35.101  0.00  0.00    -0.010 C 
ATOM     46  C   UNL A   1      47.303 -19.704 -35.224  0.00  0.00    -0.047 C 
ATOM     47  C   UNL A   1      47.686 -18.740 -36.336  0.00  0.00    -0.049 C 
ATOM     48  C   UNL A   1      47.143 -19.228 -37.679  0.00  0.00    -0.024 C 
ENDBRANCH  32  34
ENDBRANCH  31  32
ENDBRANCH  30  31
ENDBRANCH  29  30
ENDBRANCH  28  29
ENDBRANCH  27  28
ENDBRANCH  26  27
ENDBRANCH   3  26
TORSDOF 13
ENDMDL
MODEL 19
REMARK VINA RESULT:    -6.239     18.207     22.434
REMARK INTER + INTRA:         -15.825
REMARK INTER:                 -11.086
REMARK INTRA:                  -4.739
REMARK UNBOUND:                -4.845
REMARK  Name = cpd49.pdb
REMARK  15 active torsions:
REMARK  status: ('A' for Active; 'I' for Inactive)
REMARK    1  A    between atoms: C_1  and  C_2
REMARK    2  A    between atoms: C_6  and  N_7
REMARK    3  A    between atoms: N_7  and  C_8
REMARK    4  A    between atoms: C_13  and  C_14
REMARK    5  A    between atoms: N_16  and  C_17
REMARK    6  A    between atoms: C_17  and  C_18
REMARK    7  A    between atoms: N_20  and  C_21
REMARK    8  A    between atoms: C_21  and  C_22
REMARK    9  A    between atoms: C_22  and  C_23
REMARK   10  A    between atoms: C_23  and  C_24
REMARK   11  A    between atoms: C_24  and  C_25
REMARK   12  A    between atoms: C_25  and  C_26
REMARK   13  A    between atoms: C_26  and  N_27
REMARK   14  A    between atoms: N_27  and  C_28
REMARK   15  A    between atoms: C_43  and  C_44
REMARK                            x       y       z     vdW  Elec       q    Type
REMARK                         _______ _______ _______ _____ _____    ______ ____
ROOT
ATOM      1  C   UNL A   1      43.461 -14.592 -40.708  0.00  0.00    +0.230 C 
ATOM      2  O   UNL A   1      42.691 -14.409 -41.646  0.00  0.00    -0.274 OA
ATOM      3  N   UNL A   1      43.116 -14.424 -39.378  0.00  0.00    -0.314 N 
ATOM      4  H   UNL A   1      43.693 -14.831 -38.692  0.00  0.00    +0.000 HD
ENDROOT
BRANCH   1   5
ATOM      5  C   UNL A   1      44.840 -15.237 -40.905  0.00  0.00    +0.088 C 
BRANCH   5   8
ATOM      6  C   UNL A   1      46.054 -17.321 -40.498  0.00  0.00    +0.246 C 
ATOM      7  O   UNL A   1      47.094 -16.713 -40.264  0.00  0.00    -0.270 OA
ATOM      8  N   UNL A   1      44.843 -16.686 -40.711  0.00  0.00    -0.303 N 
ATOM      9  H   UNL A   1      44.003 -17.199 -40.732  0.00  0.00    +0.000 HD
BRANCH   6  15
ATOM     10  C   UNL A   1      46.280 -19.587 -39.446  0.00  0.00    +0.044 A 
ATOM     11  C   UNL A   1      46.267 -20.983 -39.582  0.00  0.00    -0.040 A 
ATOM     12  C   UNL A   1      46.036 -21.589 -40.820  0.00  0.00    -0.060 A 
ATOM     13  C   UNL A   1      45.815 -20.806 -41.950  0.00  0.00    -0.061 A 
ATOM     14  C   UNL A   1      45.824 -19.416 -41.846  0.00  0.00    -0.048 A 
ATOM     15  C   UNL A   1      46.061 -18.805 -40.603  0.00  0.00    +0.058 A 
BRANCH  10  16
ATOM     16  N   UNL A   1      46.548 -18.985 -38.196  0.00  0.00    -0.314 N 
ATOM     17  H   UNL A   1      47.416 -18.524 -38.147  0.00  0.00    +0.000 HD
BRANCH  16  23
ATOM     18  C   UNL A   1      44.704 -16.343 -34.360  0.00  0.00    -0.039 C 
ATOM     19  C   UNL A   1      44.879 -17.625 -35.131  0.00  0.00    -0.046 A 
ATOM     20  C   UNL A   1      44.275 -18.788 -34.635  0.00  0.00    -0.058 A 
ATOM     21  C   UNL A   1      44.414 -19.999 -35.302  0.00  0.00    -0.060 A 
ATOM     22  C   UNL A   1      45.168 -20.065 -36.472  0.00  0.00    -0.040 A 
ATOM     23  C   UNL A   1      45.792 -18.927 -37.001  0.00  0.00    +0.035 A 
ATOM     24  C   UNL A   1      45.614 -17.682 -36.341  0.00  0.00    -0.026 A 
ATOM     25  C   UNL A   1      46.259 -16.436 -36.902  0.00  0.00    -0.038 C 
ENDBRANCH  16  23
ENDBRANCH  10  16
ENDBRANCH   6  15
ENDBRANCH   5   8
ENDBRANCH   1   5
BRANCH   3  26
ATOM     26  C   UNL A   1      41.951 -13.682 -38.940  0.00  0.00    +0.012 C 
BRANCH  26  27
ATOM     27  C   UNL A   1      41.405 -14.014 -37.551  0.00  0.00    -0.037 C 
BRANCH  27  28
ATOM     28  C   UNL A   1      42.132 -15.161 -36.845  0.00  0.00    -0.052 C 
BRANCH  28  29
ATOM     29  C   UNL A   1      41.190 -16.354 -36.667  0.00  0.00    -0.052 C 
BRANCH  29  30
ATOM     30  C   UNL A   1      41.112 -16.818 -35.213  0.00  0.00    -0.037 C 
BRANCH  30  31
ATOM     31  C   UNL A   1      40.891 -18.331 -35.139  0.00  0.00    +0.009 C 
BRANCH  31  32
ATOM     32  N   UNL A   1      39.891 -18.722 -36.142  0.00  0.00    -0.343 N 
ATOM     33  H   UNL A   1      39.174 -18.132 -36.468  0.00  0.00    +0.000 HD
BRANCH  32  34
ATOM     34  C   UNL A   1      40.086 -20.065 -36.585  0.00  0.00    +0.041 A 
ATOM     35  C   UNL A   1      40.957 -20.352 -37.655  0.00  0.00    -0.005 A 
ATOM     36  C   UNL A   1      41.148 -21.696 -37.989  0.00  0.00    +0.047 A 
ATOM     37  N   UNL A   1      40.584 -22.720 -37.306  0.00  0.00    -0.251 NA
ATOM     38  C   UNL A   1      39.768 -22.449 -36.280  0.00  0.00    +0.074 A 
ATOM     39  C   UNL A   1      39.196 -23.515 -35.603  0.00  0.00    -0.017 A 
ATOM     40  C   UNL A   1      38.328 -23.312 -34.533  0.00  0.00    +0.043 A 
ATOM     41 CL   UNL A   1      37.641 -24.663 -33.717  0.00  0.00    -0.083 Cl
ATOM     42  C   UNL A   1      38.007 -22.026 -34.125  0.00  0.00    -0.043 A 
ATOM     43  C   UNL A   1      38.574 -20.943 -34.795  0.00  0.00    -0.049 A 
ATOM     44  C   UNL A   1      39.473 -21.134 -35.872  0.00  0.00    +0.022 A 
ATOM     45  C   UNL A   1      42.065 -22.114 -39.110  0.00  0.00    -0.010 C 
ATOM     46  C   UNL A   1      42.331 -21.001 -40.117  0.00  0.00    -0.047 C 
ATOM     47  C   UNL A   1      42.736 -19.734 -39.380  0.00  0.00    -0.049 C 
ATOM     48  C   UNL A   1      41.605 -19.257 -38.470  0.00  0.00    -0.024 C 
ENDBRANCH  32  34
ENDBRANCH  31  32
ENDBRANCH  30  31
ENDBRANCH  29  30
ENDBRANCH  28  29
ENDBRANCH  27  28
ENDBRANCH  26  27
ENDBRANCH   3  26
TORSDOF 13
ENDMDL
MODEL 20
REMARK VINA RESULT:    -6.158     17.892     22.219
REMARK INTER + INTRA:         -15.683
REMARK INTER:                 -11.249
REMARK INTRA:                  -4.434
REMARK UNBOUND:                -4.845
REMARK  Name = cpd49.pdb
REMARK  15 active torsions:
REMARK  status: ('A' for Active; 'I' for Inactive)
REMARK    1  A    between atoms: C_1  and  C_2
REMARK    2  A    between atoms: C_6  and  N_7
REMARK    3  A    between atoms: N_7  and  C_8
REMARK    4  A    between atoms: C_13  and  C_14
REMARK    5  A    between atoms: N_16  and  C_17
REMARK    6  A    between atoms: C_17  and  C_18
REMARK    7  A    between atoms: N_20  and  C_21
REMARK    8  A    between atoms: C_21  and  C_22
REMARK    9  A    between atoms: C_22  and  C_23
REMARK   10  A    between atoms: C_23  and  C_24
REMARK   11  A    between atoms: C_24  and  C_25
REMARK   12  A    between atoms: C_25  and  C_26
REMARK   13  A    between atoms: C_26  and  N_27
REMARK   14  A    between atoms: N_27  and  C_28
REMARK   15  A    between atoms: C_43  and  C_44
REMARK                            x       y       z     vdW  Elec       q    Type
REMARK                         _______ _______ _______ _____ _____    ______ ____
ROOT
ATOM      1  C   UNL A   1      43.194 -16.435 -39.955  0.00  0.00    +0.230 C 
ATOM      2  O   UNL A   1      43.662 -16.482 -38.822  0.00  0.00    -0.274 OA
ATOM      3  N   UNL A   1      42.114 -15.647 -40.316  0.00  0.00    -0.314 N 
ATOM      4  H   UNL A   1      41.966 -15.469 -41.273  0.00  0.00    +0.000 HD
ENDROOT
BRANCH   1   5
ATOM      5  C   UNL A   1      43.897 -17.092 -41.151  0.00  0.00    +0.088 C 
BRANCH   5   8
ATOM      6  C   UNL A   1      45.754 -18.628 -40.733  0.00  0.00    +0.246 C 
ATOM      7  O   UNL A   1      46.549 -17.699 -40.630  0.00  0.00    -0.270 OA
ATOM      8  N   UNL A   1      44.390 -18.439 -40.873  0.00  0.00    -0.303 N 
ATOM      9  H   UNL A   1      43.767 -19.196 -40.788  0.00  0.00    +0.000 HD
BRANCH   6  15
ATOM     10  C   UNL A   1      46.791 -20.599 -39.578  0.00  0.00    +0.044 A 
ATOM     11  C   UNL A   1      47.228 -21.930 -39.630  0.00  0.00    -0.040 A 
ATOM     12  C   UNL A   1      47.121 -22.683 -40.802  0.00  0.00    -0.060 A 
ATOM     13  C   UNL A   1      46.573 -22.116 -41.949  0.00  0.00    -0.061 A 
ATOM     14  C   UNL A   1      46.130 -20.794 -41.927  0.00  0.00    -0.048 A 
ATOM     15  C   UNL A   1      46.242 -20.033 -40.751  0.00  0.00    +0.058 A 
BRANCH  10  16
ATOM     16  N   UNL A   1      46.935 -19.836 -38.397  0.00  0.00    -0.314 N 
ATOM     17  H   UNL A   1      47.850 -19.512 -38.234  0.00  0.00    +0.000 HD
BRANCH  16  23
ATOM     18  C   UNL A   1      45.243 -16.456 -35.109  0.00  0.00    -0.039 C 
ATOM     19  C   UNL A   1      45.166 -17.789 -35.806  0.00  0.00    -0.046 A 
ATOM     20  C   UNL A   1      44.136 -18.670 -35.448  0.00  0.00    -0.058 A 
ATOM     21  C   UNL A   1      44.026 -19.916 -36.053  0.00  0.00    -0.060 A 
ATOM     22  C   UNL A   1      44.952 -20.302 -37.020  0.00  0.00    -0.040 A 
ATOM     23  C   UNL A   1      46.000 -19.454 -37.406  0.00  0.00    +0.035 A 
ATOM     24  C   UNL A   1      46.086 -18.165 -36.817  0.00  0.00    -0.026 A 
ATOM     25  C   UNL A   1      47.193 -17.223 -37.230  0.00  0.00    -0.038 C 
ENDBRANCH  16  23
ENDBRANCH  10  16
ENDBRANCH   6  15
ENDBRANCH   5   8
ENDBRANCH   1   5
BRANCH   3  26
ATOM     26  C   UNL A   1      41.190 -15.069 -39.361  0.00  0.00    +0.012 C 
BRANCH  26  27
ATOM     27  C   UNL A   1      40.426 -16.043 -38.465  0.00  0.00    -0.037 C 
BRANCH  27  28
ATOM     28  C   UNL A   1      38.919 -16.095 -38.729  0.00  0.00    -0.052 C 
BRANCH  28  29
ATOM     29  C   UNL A   1      38.176 -16.535 -37.465  0.00  0.00    -0.052 C 
BRANCH  29  30
ATOM     30  C   UNL A   1      37.432 -17.856 -37.662  0.00  0.00    -0.037 C 
BRANCH  30  31
ATOM     31  C   UNL A   1      37.745 -18.827 -36.522  0.00  0.00    +0.009 C 
BRANCH  31  32
ATOM     32  N   UNL A   1      39.143 -18.651 -36.106  0.00  0.00    -0.343 N 
ATOM     33  H   UNL A   1      39.543 -17.785 -35.861  0.00  0.00    +0.000 HD
BRANCH  32  34
ATOM     34  C   UNL A   1      39.853 -19.889 -36.100  0.00  0.00    +0.041 A 
ATOM     35  C   UNL A   1      39.782 -20.756 -34.991  0.00  0.00    -0.005 A 
ATOM     36  C   UNL A   1      40.449 -21.980 -35.085  0.00  0.00    +0.047 A 
ATOM     37  N   UNL A   1      41.105 -22.387 -36.199  0.00  0.00    -0.251 NA
ATOM     38  C   UNL A   1      41.160 -21.571 -37.258  0.00  0.00    +0.074 A 
ATOM     39  C   UNL A   1      41.844 -22.008 -38.382  0.00  0.00    -0.017 A 
ATOM     40  C   UNL A   1      41.954 -21.210 -39.519  0.00  0.00    +0.043 A 
ATOM     41 CL   UNL A   1      42.811 -21.790 -40.894  0.00  0.00    -0.083 Cl
ATOM     42  C   UNL A   1      41.384 -19.946 -39.546  0.00  0.00    -0.043 A 
ATOM     43  C   UNL A   1      40.692 -19.493 -38.424  0.00  0.00    -0.049 A 
ATOM     44  C   UNL A   1      40.554 -20.300 -37.269  0.00  0.00    +0.022 A 
ATOM     45  C   UNL A   1      40.431 -22.985 -33.961  0.00  0.00    -0.010 C 
ATOM     46  C   UNL A   1      40.093 -22.368 -32.609  0.00  0.00    -0.047 C 
ATOM     47  C   UNL A   1      38.844 -21.510 -32.738  0.00  0.00    -0.049 C 
ATOM     48  C   UNL A   1      39.083 -20.357 -33.713  0.00  0.00    -0.024 C 
ENDBRANCH  32  34
ENDBRANCH  31  32
ENDBRANCH  30  31
ENDBRANCH  29  30
ENDBRANCH  28  29
ENDBRANCH  27  28
ENDBRANCH  26  27
ENDBRANCH   3  26
TORSDOF 13
ENDMDL
