REMARK  Name = cpd72.pdb
REMARK  10 active torsions:
REMARK  status: ('A' for Active; 'I' for Inactive)
REMARK    1  A    between atoms: O_1  and  C_2
REMARK    2  A    between atoms: C_2  and  O_3
REMARK    3  A    between atoms: C_2  and  C_4
REMARK    4  A    between atoms: C_2  and  C_25
REMARK    5  A    between atoms: C_4  and  C_5
REMARK    6  A    between atoms: C_5  and  C_6
REMARK    7  A    between atoms: C_6  and  C_7
REMARK    8  A    between atoms: C_7  and  C_8
REMARK    9  A    between atoms: C_8  and  N_9
REMARK   10  A    between atoms: N_9  and  C_10
REMARK                            x       y       z     vdW  Elec       q    Type
REMARK                         _______ _______ _______ _____ _____    ______ ____
ROOT
ATOM      1  N   UNL A   1      -3.082  -0.337  -0.720  0.00  0.00    -0.343 N 
ATOM      2  H   UNL A   1      -3.163  -0.762  -1.604  0.00  0.00    +0.000 HD
ENDROOT
BRANCH   1   3
ATOM      3  C   UNL A   1      -2.927   1.070  -0.518  0.00  0.00    +0.041 A 
ATOM      4  C   UNL A   1      -1.632   1.630  -0.601  0.00  0.00    -0.005 A 
ATOM      5  C   UNL A   1      -1.492   2.988  -0.310  0.00  0.00    +0.047 A 
ATOM      6  N   UNL A   1      -2.533   3.776   0.052  0.00  0.00    -0.251 NA
ATOM      7  C   UNL A   1      -3.759   3.247   0.125  0.00  0.00    +0.073 A 
ATOM      8  C   UNL A   1      -4.800   4.088   0.495  0.00  0.00    -0.036 A 
ATOM      9  C   UNL A   1      -6.115   3.636   0.603  0.00  0.00    -0.060 A 
ATOM     10  C   UNL A   1      -6.404   2.307   0.334  0.00  0.00    -0.061 A 
ATOM     11  C   UNL A   1      -5.374   1.444  -0.039  0.00  0.00    -0.051 A 
ATOM     12  C   UNL A   1      -4.031   1.892  -0.148  0.00  0.00    +0.021 A 
ATOM     13  C   UNL A   1      -0.157   3.687  -0.373  0.00  0.00    -0.010 C 
ATOM     14  C   UNL A   1       0.841   3.164   0.658  0.00  0.00    -0.048 C 
ATOM     15  C   UNL A   1       1.535   1.870   0.238  0.00  0.00    -0.052 C 
ATOM     16  C   UNL A   1       0.609   0.665   0.085  0.00  0.00    -0.049 C 
ATOM     17  C   UNL A   1      -0.430   0.821  -1.026  0.00  0.00    -0.024 C 
ENDBRANCH   1   3
BRANCH   1  18
ATOM     18  C   UNL A   1      -3.106  -1.072   0.555  0.00  0.00    +0.009 C 
BRANCH  18  19
ATOM     19  C   UNL A   1      -2.829  -2.563   0.319  0.00  0.00    -0.037 C 
BRANCH  19  20
ATOM     20  C   UNL A   1      -1.403  -2.791  -0.185  0.00  0.00    -0.051 C 
BRANCH  20  21
ATOM     21  C   UNL A   1      -0.952  -4.256  -0.112  0.00  0.00    -0.048 C 
BRANCH  21  22
ATOM     22  C   UNL A   1       0.420  -4.538  -0.804  0.00  0.00    +0.010 C 
BRANCH  22  23
ATOM     23  C   UNL A   1       1.816  -3.877   0.000  0.00  0.00    +0.263 C 
BRANCH  23  24
ATOM     24  C   UNL A   1       2.316  -4.742   0.000  0.00  0.00    +0.444 C 
ATOM     25  F   UNL A   1       2.591  -5.457  -1.131  0.00  0.00    -0.165 F 
ATOM     26  F   UNL A   1       3.582  -4.558   0.550  0.00  0.00    -0.165 F 
ATOM     27  F   UNL A   1       1.796  -5.673   0.872  0.00  0.00    -0.165 F 
ENDBRANCH  23  24
BRANCH  23  28
ATOM     28  O   UNL A   1       2.689  -3.208  -1.091  0.00  0.00    -0.358 OA
ATOM     29  H   UNL A   1       3.378  -3.827  -1.379  0.00  0.00    +0.000 HD
ENDBRANCH  23  28
BRANCH  23  30
ATOM     30  O   UNL A   1       1.316  -3.010   0.000  0.00  0.00    -0.358 OA
ATOM     31  H   UNL A   1       0.594  -3.053   0.647  0.00  0.00    +0.000 HD
ENDBRANCH  23  30
ENDBRANCH  22  23
ENDBRANCH  21  22
ENDBRANCH  20  21
ENDBRANCH  19  20
ENDBRANCH  18  19
ENDBRANCH   1  18
TORSDOF 10
