@<TRIPOS>MOLECULE
*****
 28 30 0 0 0
SMALL
GASTEIGER

@<TRIPOS>ATOM
      1 O           2.6823   -3.3765    0.0000 O.2     1  UNL1       -0.2660
      2 C           1.8162   -3.8765    0.0000 C.3     1  UNL1        0.4359
      3 O           1.3162   -3.0105    0.0000 O.2     1  UNL1       -0.2660
      4 C           0.9502   -4.3765    0.0000 C.3     1  UNL1        0.1008
      5 C           0.0842   -3.8765    0.0000 C.3     1  UNL1        0.0082
      6 C           0.0842   -2.8765    0.0000 C.3     1  UNL1        0.0021
      7 C          -0.7818   -2.3765    0.0000 C.3     1  UNL1        0.0233
      8 C          -0.7818   -1.3765    0.0000 C.3     1  UNL1        0.1122
      9 N          -1.6479   -0.8765    0.0000 N.pl3   1  UNL1       -0.2378
     10 C          -1.6479    0.1235    0.0000 C.ar    1  UNL1        0.0638
     11 C          -0.7818    0.6235    0.0000 C.ar    1  UNL1        0.0062
     12 C          -0.7818    1.6235    0.0000 C.ar    1  UNL1        0.0562
     13 N          -1.6479    2.1235    0.0000 N.ar    1  UNL1       -0.2499
     14 C          -2.5139    1.6235    0.0000 C.ar    1  UNL1        0.0821
     15 C          -3.3799    2.1235    0.0000 C.ar    1  UNL1        0.0191
     16 C          -4.2459    1.6235    0.0000 C.ar    1  UNL1        0.0015
     17 C          -4.2459    0.6235    0.0000 C.ar    1  UNL1        0.0001
     18 C          -3.3799    0.1235    0.0000 C.ar    1  UNL1        0.0028
     19 C          -2.5139    0.6235    0.0000 C.ar    1  UNL1        0.0322
     20 C           0.0000    2.2470    0.0000 C.3     1  UNL1        0.0455
     21 C           0.9749    2.0245    0.0000 C.3     1  UNL1        0.0063
     22 C           1.4088    1.1235    0.0000 C.3     1  UNL1        0.0007
     23 C           0.9749    0.2225    0.0000 C.3     1  UNL1        0.0048
     24 C           0.0000   -0.0000    0.0000 C.3     1  UNL1        0.0289
     25 C           2.3162   -4.7425    0.0000 C.3     1  UNL1        0.4771
     26 F           3.1823   -5.2425    0.0000 F       1  UNL1       -0.1634
     27 F           3.1823   -4.2425    0.0000 F       1  UNL1       -0.1634
     28 F           1.8162   -5.6086    0.0000 F       1  UNL1       -0.1634
@<TRIPOS>BOND
     1     1     2    1
     2     2     3    1
     3     2     4    1
     4     4     5    1
     5     5     6    1
     6     6     7    1
     7     7     8    1
     8     8     9    1
     9     9    10    1
    10    10    11   ar
    11    11    12   ar
    12    12    13   ar
    13    13    14   ar
    14    14    15   ar
    15    15    16   ar
    16    16    17   ar
    17    17    18   ar
    18    18    19   ar
    19    10    19   ar
    20    14    19   ar
    21    12    20    1
    22    20    21    1
    23    21    22    1
    24    22    23    1
    25    23    24    1
    26    11    24    1
    27     2    25    1
    28    25    26    1
    29    25    27    1
    30    25    28    1
