MODEL 1
REMARK VINA RESULT:    -8.632      0.000      0.000
REMARK INTER + INTRA:         -11.145
REMARK INTER:                 -12.416
REMARK INTRA:                   1.271
REMARK UNBOUND:                 1.271
REMARK  Name = cpd72.pdb
REMARK  10 active torsions:
REMARK  status: ('A' for Active; 'I' for Inactive)
REMARK    1  A    between atoms: O_1  and  C_2
REMARK    2  A    between atoms: C_2  and  O_3
REMARK    3  A    between atoms: C_2  and  C_4
REMARK    4  A    between atoms: C_2  and  C_25
REMARK    5  A    between atoms: C_4  and  C_5
REMARK    6  A    between atoms: C_5  and  C_6
REMARK    7  A    between atoms: C_6  and  C_7
REMARK    8  A    between atoms: C_7  and  C_8
REMARK    9  A    between atoms: C_8  and  N_9
REMARK   10  A    between atoms: N_9  and  C_10
REMARK                            x       y       z     vdW  Elec       q    Type
REMARK                         _______ _______ _______ _____ _____    ______ ____
ROOT
ATOM      1  N   UNL A   1      36.243 -34.620 -31.735  0.00  0.00    -0.343 N 
ATOM      2  H   UNL A   1      35.632 -34.753 -32.495  0.00  0.00    +0.000 HD
ENDROOT
BRANCH   1   3
ATOM      3  C   UNL A   1      36.990 -35.669 -31.114  0.00  0.00    +0.041 A 
ATOM      4  C   UNL A   1      36.350 -36.480 -30.150  0.00  0.00    -0.005 A 
ATOM      5  C   UNL A   1      37.123 -37.438 -29.491  0.00  0.00    +0.047 A 
ATOM      6  N   UNL A   1      38.445 -37.611 -29.730  0.00  0.00    -0.251 NA
ATOM      7  C   UNL A   1      39.049 -36.847 -30.647  0.00  0.00    +0.073 A 
ATOM      8  C   UNL A   1      40.404 -37.058 -30.866  0.00  0.00    -0.036 A 
ATOM      9  C   UNL A   1      41.128 -36.314 -31.798  0.00  0.00    -0.060 A 
ATOM     10  C   UNL A   1      40.485 -35.331 -32.535  0.00  0.00    -0.061 A 
ATOM     11  C   UNL A   1      39.125 -35.101 -32.330  0.00  0.00    -0.051 A 
ATOM     12  C   UNL A   1      38.378 -35.849 -31.381  0.00  0.00    +0.021 A 
ATOM     13  C   UNL A   1      36.539 -38.359 -28.448  0.00  0.00    -0.010 C 
ATOM     14  C   UNL A   1      36.046 -37.619 -27.206  0.00  0.00    -0.048 C 
ATOM     15  C   UNL A   1      34.665 -36.989 -27.376  0.00  0.00    -0.052 C 
ATOM     16  C   UNL A   1      34.588 -35.884 -28.428  0.00  0.00    -0.049 C 
ATOM     17  C   UNL A   1      34.874 -36.365 -29.851  0.00  0.00    -0.024 C 
ENDBRANCH   1   3
BRANCH   1  18
ATOM     18  C   UNL A   1      36.499 -33.317 -31.099  0.00  0.00    +0.009 C 
BRANCH  18  19
ATOM     19  C   UNL A   1      35.189 -32.535 -30.934  0.00  0.00    -0.037 C 
BRANCH  19  20
ATOM     20  C   UNL A   1      34.035 -33.222 -31.665  0.00  0.00    -0.051 C 
BRANCH  20  21
ATOM     21  C   UNL A   1      32.658 -32.635 -31.329  0.00  0.00    -0.048 C 
BRANCH  21  22
ATOM     22  C   UNL A   1      32.593 -31.905 -29.949  0.00  0.00    +0.010 C 
BRANCH  22  23
ATOM     23  C   UNL A   1      31.405 -30.638 -29.825  0.00  0.00    +0.263 C 
BRANCH  23  24
ATOM     24  C   UNL A   1      30.765 -31.190 -29.292  0.00  0.00    +0.444 C 
ATOM     25  F   UNL A   1      31.153 -32.166 -28.418  0.00  0.00    -0.165 F 
ATOM     26  F   UNL A   1      29.982 -30.366 -28.489  0.00  0.00    -0.165 F 
ATOM     27  F   UNL A   1      29.792 -31.791 -30.060  0.00  0.00    -0.165 F 
ENDBRANCH  23  24
BRANCH  23  28
ATOM     28  O   UNL A   1      31.833 -29.735 -28.641  0.00  0.00    -0.358 OA
ATOM     29  H   UNL A   1      32.611 -30.118 -28.206  0.00  0.00    +0.000 HD
ENDBRANCH  23  28
BRANCH  23  30
ATOM     30  O   UNL A   1      32.046 -30.084 -30.358  0.00  0.00    -0.358 OA
ATOM     31  H   UNL A   1      31.607 -29.267 -30.643  0.00  0.00    +0.000 HD
ENDBRANCH  23  30
ENDBRANCH  22  23
ENDBRANCH  21  22
ENDBRANCH  20  21
ENDBRANCH  19  20
ENDBRANCH  18  19
ENDBRANCH   1  18
TORSDOF 10
ENDMDL
MODEL 2
REMARK VINA RESULT:    -8.051      2.165      2.528
REMARK INTER + INTRA:         -10.309
REMARK INTER:                 -11.019
REMARK INTRA:                   0.710
REMARK UNBOUND:                 1.271
REMARK  Name = cpd72.pdb
REMARK  10 active torsions:
REMARK  status: ('A' for Active; 'I' for Inactive)
REMARK    1  A    between atoms: O_1  and  C_2
REMARK    2  A    between atoms: C_2  and  O_3
REMARK    3  A    between atoms: C_2  and  C_4
REMARK    4  A    between atoms: C_2  and  C_25
REMARK    5  A    between atoms: C_4  and  C_5
REMARK    6  A    between atoms: C_5  and  C_6
REMARK    7  A    between atoms: C_6  and  C_7
REMARK    8  A    between atoms: C_7  and  C_8
REMARK    9  A    between atoms: C_8  and  N_9
REMARK   10  A    between atoms: N_9  and  C_10
REMARK                            x       y       z     vdW  Elec       q    Type
REMARK                         _______ _______ _______ _____ _____    ______ ____
ROOT
ATOM      1  N   UNL A   1      36.805 -34.659 -31.846  0.00  0.00    -0.343 N 
ATOM      2  H   UNL A   1      36.426 -34.788 -32.745  0.00  0.00    +0.000 HD
ENDROOT
BRANCH   1   3
ATOM      3  C   UNL A   1      37.549 -35.655 -31.140  0.00  0.00    +0.041 A 
ATOM      4  C   UNL A   1      36.872 -36.481 -30.214  0.00  0.00    -0.005 A 
ATOM      5  C   UNL A   1      37.635 -37.383 -29.470  0.00  0.00    +0.047 A 
ATOM      6  N   UNL A   1      38.980 -37.489 -29.592  0.00  0.00    -0.251 NA
ATOM      7  C   UNL A   1      39.619 -36.711 -30.472  0.00  0.00    +0.073 A 
ATOM      8  C   UNL A   1      40.997 -36.852 -30.572  0.00  0.00    -0.036 A 
ATOM      9  C   UNL A   1      41.758 -36.089 -31.456  0.00  0.00    -0.060 A 
ATOM     10  C   UNL A   1      41.130 -35.156 -32.267  0.00  0.00    -0.061 A 
ATOM     11  C   UNL A   1      39.748 -34.996 -32.184  0.00  0.00    -0.051 A 
ATOM     12  C   UNL A   1      38.963 -35.765 -31.284  0.00  0.00    +0.021 A 
ATOM     13  C   UNL A   1      37.013 -38.314 -28.459  0.00  0.00    -0.010 C 
ATOM     14  C   UNL A   1      36.377 -37.579 -27.281  0.00  0.00    -0.048 C 
ATOM     15  C   UNL A   1      34.985 -37.027 -27.581  0.00  0.00    -0.052 C 
ATOM     16  C   UNL A   1      34.941 -35.948 -28.662  0.00  0.00    -0.049 C 
ATOM     17  C   UNL A   1      35.372 -36.440 -30.044  0.00  0.00    -0.024 C 
ENDBRANCH   1   3
BRANCH   1  18
ATOM     18  C   UNL A   1      36.673 -33.419 -31.064  0.00  0.00    +0.009 C 
BRANCH  18  19
ATOM     19  C   UNL A   1      35.248 -32.862 -31.180  0.00  0.00    -0.037 C 
BRANCH  19  20
ATOM     20  C   UNL A   1      34.621 -32.647 -29.801  0.00  0.00    -0.051 C 
BRANCH  20  21
ATOM     21  C   UNL A   1      33.104 -32.423 -29.843  0.00  0.00    -0.048 C 
BRANCH  21  22
ATOM     22  C   UNL A   1      32.265 -33.739 -29.909  0.00  0.00    +0.010 C 
BRANCH  22  23
ATOM     23  C   UNL A   1      31.384 -33.994 -31.390  0.00  0.00    +0.263 C 
BRANCH  23  24
ATOM     24  C   UNL A   1      31.775 -34.899 -31.551  0.00  0.00    +0.444 C 
ATOM     25  F   UNL A   1      31.958 -35.831 -30.569  0.00  0.00    -0.165 F 
ATOM     26  F   UNL A   1      31.000 -35.593 -32.477  0.00  0.00    -0.165 F 
ATOM     27  F   UNL A   1      32.983 -34.862 -32.213  0.00  0.00    -0.165 F 
ENDBRANCH  23  24
BRANCH  23  28
ATOM     28  O   UNL A   1      29.980 -34.514 -30.994  0.00  0.00    -0.358 OA
ATOM     29  H   UNL A   1      29.409 -33.764 -30.765  0.00  0.00    +0.000 HD
ENDBRANCH  23  28
BRANCH  23  30
ATOM     30  O   UNL A   1      30.992 -33.088 -31.229  0.00  0.00    -0.358 OA
ATOM     31  H   UNL A   1      31.674 -32.411 -31.366  0.00  0.00    +0.000 HD
ENDBRANCH  23  30
ENDBRANCH  22  23
ENDBRANCH  21  22
ENDBRANCH  20  21
ENDBRANCH  19  20
ENDBRANCH  18  19
ENDBRANCH   1  18
TORSDOF 10
ENDMDL
MODEL 3
REMARK VINA RESULT:    -7.843     17.768     19.840
REMARK INTER + INTRA:         -10.011
REMARK INTER:                 -10.651
REMARK INTRA:                   0.640
REMARK UNBOUND:                 1.271
REMARK  Name = cpd72.pdb
REMARK  10 active torsions:
REMARK  status: ('A' for Active; 'I' for Inactive)
REMARK    1  A    between atoms: O_1  and  C_2
REMARK    2  A    between atoms: C_2  and  O_3
REMARK    3  A    between atoms: C_2  and  C_4
REMARK    4  A    between atoms: C_2  and  C_25
REMARK    5  A    between atoms: C_4  and  C_5
REMARK    6  A    between atoms: C_5  and  C_6
REMARK    7  A    between atoms: C_6  and  C_7
REMARK    8  A    between atoms: C_7  and  C_8
REMARK    9  A    between atoms: C_8  and  N_9
REMARK   10  A    between atoms: N_9  and  C_10
REMARK                            x       y       z     vdW  Elec       q    Type
REMARK                         _______ _______ _______ _____ _____    ______ ____
ROOT
ATOM      1  N   UNL A   1      45.193 -19.804 -39.144  0.00  0.00    -0.343 N 
ATOM      2  H   UNL A   1      46.031 -20.246 -39.413  0.00  0.00    +0.000 HD
ENDROOT
BRANCH   1   3
ATOM      3  C   UNL A   1      44.501 -20.075 -37.923  0.00  0.00    +0.041 A 
ATOM      4  C   UNL A   1      43.374 -20.928 -37.955  0.00  0.00    -0.005 A 
ATOM      5  C   UNL A   1      42.660 -21.105 -36.769  0.00  0.00    +0.047 A 
ATOM      6  N   UNL A   1      42.995 -20.492 -35.607  0.00  0.00    -0.251 NA
ATOM      7  C   UNL A   1      44.064 -19.690 -35.576  0.00  0.00    +0.073 A 
ATOM      8  C   UNL A   1      44.378 -19.085 -34.366  0.00  0.00    -0.036 A 
ATOM      9  C   UNL A   1      45.470 -18.229 -34.227  0.00  0.00    -0.060 A 
ATOM     10  C   UNL A   1      46.277 -17.968 -35.324  0.00  0.00    -0.061 A 
ATOM     11  C   UNL A   1      45.981 -18.564 -36.549  0.00  0.00    -0.051 A 
ATOM     12  C   UNL A   1      44.869 -19.434 -36.704  0.00  0.00    +0.021 A 
ATOM     13  C   UNL A   1      41.446 -21.996 -36.690  0.00  0.00    -0.010 C 
ATOM     14  C   UNL A   1      40.282 -21.499 -37.545  0.00  0.00    -0.048 C 
ATOM     15  C   UNL A   1      40.411 -21.858 -39.024  0.00  0.00    -0.052 C 
ATOM     16  C   UNL A   1      41.598 -21.217 -39.740  0.00  0.00    -0.049 C 
ATOM     17  C   UNL A   1      42.958 -21.667 -39.204  0.00  0.00    -0.024 C 
ENDBRANCH   1   3
BRANCH   1  18
ATOM     18  C   UNL A   1      44.502 -18.784 -39.949  0.00  0.00    +0.009 C 
BRANCH  18  19
ATOM     19  C   UNL A   1      45.032 -18.789 -41.389  0.00  0.00    -0.037 C 
BRANCH  19  20
ATOM     20  C   UNL A   1      44.220 -19.732 -42.278  0.00  0.00    -0.051 C 
BRANCH  20  21
ATOM     21  C   UNL A   1      45.063 -20.830 -42.941  0.00  0.00    -0.048 C 
BRANCH  21  22
ATOM     22  C   UNL A   1      45.323 -22.073 -42.032  0.00  0.00    +0.010 C 
BRANCH  22  23
ATOM     23  C   UNL A   1      46.956 -22.676 -42.034  0.00  0.00    +0.263 C 
BRANCH  23  24
ATOM     24  C   UNL A   1      47.103 -22.492 -41.064  0.00  0.00    +0.444 C 
ATOM     25  F   UNL A   1      46.160 -22.713 -40.100  0.00  0.00    -0.165 F 
ATOM     26  F   UNL A   1      48.183 -23.238 -40.598  0.00  0.00    -0.165 F 
ATOM     27  F   UNL A   1      47.553 -21.215 -40.812  0.00  0.00    -0.165 F 
ENDBRANCH  23  24
BRANCH  23  28
ATOM     28  O   UNL A   1      46.868 -24.215 -41.876  0.00  0.00    -0.358 OA
ATOM     29  H   UNL A   1      47.593 -24.633 -42.366  0.00  0.00    +0.000 HD
ENDBRANCH  23  28
BRANCH  23  30
ATOM     30  O   UNL A   1      46.810 -22.862 -43.007  0.00  0.00    -0.358 OA
ATOM     31  H   UNL A   1      47.650 -22.772 -43.484  0.00  0.00    +0.000 HD
ENDBRANCH  23  30
ENDBRANCH  22  23
ENDBRANCH  21  22
ENDBRANCH  20  21
ENDBRANCH  19  20
ENDBRANCH  18  19
ENDBRANCH   1  18
TORSDOF 10
ENDMDL
MODEL 4
REMARK VINA RESULT:    -7.805     20.244     22.393
REMARK INTER + INTRA:          -9.956
REMARK INTER:                 -10.605
REMARK INTRA:                   0.649
REMARK UNBOUND:                 1.271
REMARK  Name = cpd72.pdb
REMARK  10 active torsions:
REMARK  status: ('A' for Active; 'I' for Inactive)
REMARK    1  A    between atoms: O_1  and  C_2
REMARK    2  A    between atoms: C_2  and  O_3
REMARK    3  A    between atoms: C_2  and  C_4
REMARK    4  A    between atoms: C_2  and  C_25
REMARK    5  A    between atoms: C_4  and  C_5
REMARK    6  A    between atoms: C_5  and  C_6
REMARK    7  A    between atoms: C_6  and  C_7
REMARK    8  A    between atoms: C_7  and  C_8
REMARK    9  A    between atoms: C_8  and  N_9
REMARK   10  A    between atoms: N_9  and  C_10
REMARK                            x       y       z     vdW  Elec       q    Type
REMARK                         _______ _______ _______ _____ _____    ______ ____
ROOT
ATOM      1  N   UNL A   1      46.701 -18.379 -40.234  0.00  0.00    -0.343 N 
ATOM      2  H   UNL A   1      47.369 -18.819 -40.807  0.00  0.00    +0.000 HD
ENDROOT
BRANCH   1   3
ATOM      3  C   UNL A   1      47.015 -17.679 -39.028  0.00  0.00    +0.041 A 
ATOM      4  C   UNL A   1      46.884 -18.356 -37.794  0.00  0.00    -0.005 A 
ATOM      5  C   UNL A   1      47.107 -17.627 -36.626  0.00  0.00    +0.047 A 
ATOM      6  N   UNL A   1      47.431 -16.311 -36.628  0.00  0.00    -0.251 NA
ATOM      7  C   UNL A   1      47.560 -15.671 -37.795  0.00  0.00    +0.073 A 
ATOM      8  C   UNL A   1      47.897 -14.325 -37.755  0.00  0.00    -0.036 A 
ATOM      9  C   UNL A   1      48.055 -13.566 -38.915  0.00  0.00    -0.060 A 
ATOM     10  C   UNL A   1      47.872 -14.165 -40.152  0.00  0.00    -0.061 A 
ATOM     11  C   UNL A   1      47.532 -15.516 -40.216  0.00  0.00    -0.051 A 
ATOM     12  C   UNL A   1      47.365 -16.297 -39.042  0.00  0.00    +0.021 A 
ATOM     13  C   UNL A   1      46.999 -18.253 -35.258  0.00  0.00    -0.010 C 
ATOM     14  C   UNL A   1      45.584 -18.723 -34.925  0.00  0.00    -0.048 C 
ATOM     15  C   UNL A   1      45.228 -20.076 -35.538  0.00  0.00    -0.052 C 
ATOM     16  C   UNL A   1      45.198 -20.102 -37.064  0.00  0.00    -0.049 C 
ATOM     17  C   UNL A   1      46.554 -19.828 -37.715  0.00  0.00    -0.024 C 
ENDBRANCH   1   3
BRANCH   1  18
ATOM     18  C   UNL A   1      45.256 -18.361 -40.515  0.00  0.00    +0.009 C 
BRANCH  18  19
ATOM     19  C   UNL A   1      44.883 -19.500 -41.474  0.00  0.00    -0.037 C 
BRANCH  19  20
ATOM     20  C   UNL A   1      44.473 -20.760 -40.710  0.00  0.00    -0.051 C 
BRANCH  20  21
ATOM     21  C   UNL A   1      45.541 -21.862 -40.725  0.00  0.00    -0.048 C 
BRANCH  21  22
ATOM     22  C   UNL A   1      46.760 -21.559 -41.654  0.00  0.00    +0.010 C 
BRANCH  22  23
ATOM     23  C   UNL A   1      48.328 -21.812 -40.940  0.00  0.00    +0.263 C 
BRANCH  23  24
ATOM     24  C   UNL A   1      48.456 -22.708 -41.362  0.00  0.00    +0.444 C 
ATOM     25  F   UNL A   1      48.090 -23.000 -42.646  0.00  0.00    -0.165 F 
ATOM     26  F   UNL A   1      49.807 -23.047 -41.355  0.00  0.00    -0.165 F 
ATOM     27  F   UNL A   1      47.934 -23.742 -40.617  0.00  0.00    -0.165 F 
ENDBRANCH  23  24
BRANCH  23  28
ATOM     28  O   UNL A   1      49.356 -21.082 -41.841  0.00  0.00    -0.358 OA
ATOM     29  H   UNL A   1      48.918 -20.777 -42.651  0.00  0.00    +0.000 HD
ENDBRANCH  23  28
BRANCH  23  30
ATOM     30  O   UNL A   1      48.201 -20.914 -40.517  0.00  0.00    -0.358 OA
ATOM     31  H   UNL A   1      47.845 -20.295 -41.174  0.00  0.00    +0.000 HD
ENDBRANCH  23  30
ENDBRANCH  22  23
ENDBRANCH  21  22
ENDBRANCH  20  21
ENDBRANCH  19  20
ENDBRANCH  18  19
ENDBRANCH   1  18
TORSDOF 10
ENDMDL
MODEL 5
REMARK VINA RESULT:    -7.796     20.635     23.025
REMARK INTER + INTRA:          -9.942
REMARK INTER:                 -10.681
REMARK INTRA:                   0.739
REMARK UNBOUND:                 1.271
REMARK  Name = cpd72.pdb
REMARK  10 active torsions:
REMARK  status: ('A' for Active; 'I' for Inactive)
REMARK    1  A    between atoms: O_1  and  C_2
REMARK    2  A    between atoms: C_2  and  O_3
REMARK    3  A    between atoms: C_2  and  C_4
REMARK    4  A    between atoms: C_2  and  C_25
REMARK    5  A    between atoms: C_4  and  C_5
REMARK    6  A    between atoms: C_5  and  C_6
REMARK    7  A    between atoms: C_6  and  C_7
REMARK    8  A    between atoms: C_7  and  C_8
REMARK    9  A    between atoms: C_8  and  N_9
REMARK   10  A    between atoms: N_9  and  C_10
REMARK                            x       y       z     vdW  Elec       q    Type
REMARK                         _______ _______ _______ _____ _____    ______ ____
ROOT
ATOM      1  N   UNL A   1      46.676 -18.250 -40.428  0.00  0.00    -0.343 N 
ATOM      2  H   UNL A   1      47.387 -18.661 -40.972  0.00  0.00    +0.000 HD
ENDROOT
BRANCH   1   3
ATOM      3  C   UNL A   1      46.907 -17.554 -39.201  0.00  0.00    +0.041 A 
ATOM      4  C   UNL A   1      47.221 -16.176 -39.249  0.00  0.00    -0.005 A 
ATOM      5  C   UNL A   1      47.532 -15.539 -38.047  0.00  0.00    +0.047 A 
ATOM      6  N   UNL A   1      47.552 -16.181 -36.855  0.00  0.00    -0.251 NA
ATOM      7  C   UNL A   1      47.249 -17.483 -36.809  0.00  0.00    +0.073 A 
ATOM      8  C   UNL A   1      47.276 -18.105 -35.567  0.00  0.00    -0.036 A 
ATOM      9  C   UNL A   1      46.979 -19.458 -35.410  0.00  0.00    -0.060 A 
ATOM     10  C   UNL A   1      46.643 -20.217 -36.521  0.00  0.00    -0.061 A 
ATOM     11  C   UNL A   1      46.610 -19.614 -37.778  0.00  0.00    -0.051 A 
ATOM     12  C   UNL A   1      46.915 -18.238 -37.950  0.00  0.00    +0.021 A 
ATOM     13  C   UNL A   1      47.876 -14.072 -37.985  0.00  0.00    -0.010 C 
ATOM     14  C   UNL A   1      49.167 -13.729 -38.726  0.00  0.00    -0.048 C 
ATOM     15  C   UNL A   1      48.989 -13.590 -40.236  0.00  0.00    -0.052 C 
ATOM     16  C   UNL A   1      48.567 -14.870 -40.954  0.00  0.00    -0.049 C 
ATOM     17  C   UNL A   1      47.190 -15.388 -40.537  0.00  0.00    -0.024 C 
ENDBRANCH   1   3
BRANCH   1  18
ATOM     18  C   UNL A   1      45.247 -18.278 -40.780  0.00  0.00    +0.009 C 
BRANCH  18  19
ATOM     19  C   UNL A   1      44.931 -19.510 -41.639  0.00  0.00    -0.037 C 
BRANCH  19  20
ATOM     20  C   UNL A   1      44.512 -20.699 -40.773  0.00  0.00    -0.051 C 
BRANCH  20  21
ATOM     21  C   UNL A   1      45.508 -21.866 -40.809  0.00  0.00    -0.048 C 
BRANCH  21  22
ATOM     22  C   UNL A   1      46.753 -21.617 -41.719  0.00  0.00    +0.010 C 
BRANCH  22  23
ATOM     23  C   UNL A   1      48.300 -21.762 -40.931  0.00  0.00    +0.263 C 
BRANCH  23  24
ATOM     24  C   UNL A   1      48.486 -22.670 -41.304  0.00  0.00    +0.444 C 
ATOM     25  F   UNL A   1      48.188 -23.038 -42.585  0.00  0.00    -0.165 F 
ATOM     26  F   UNL A   1      49.849 -22.943 -41.227  0.00  0.00    -0.165 F 
ATOM     27  F   UNL A   1      47.981 -23.692 -40.531  0.00  0.00    -0.165 F 
ENDBRANCH  23  24
BRANCH  23  28
ATOM     28  O   UNL A   1      49.330 -21.027 -41.824  0.00  0.00    -0.358 OA
ATOM     29  H   UNL A   1      50.071 -21.621 -42.021  0.00  0.00    +0.000 HD
ENDBRANCH  23  28
BRANCH  23  30
ATOM     30  O   UNL A   1      48.114 -20.852 -40.558  0.00  0.00    -0.358 OA
ATOM     31  H   UNL A   1      48.707 -20.205 -40.971  0.00  0.00    +0.000 HD
ENDBRANCH  23  30
ENDBRANCH  22  23
ENDBRANCH  21  22
ENDBRANCH  20  21
ENDBRANCH  19  20
ENDBRANCH  18  19
ENDBRANCH   1  18
TORSDOF 10
ENDMDL
MODEL 6
REMARK VINA RESULT:    -7.760      3.546      6.445
REMARK INTER + INTRA:          -9.891
REMARK INTER:                 -10.301
REMARK INTRA:                   0.410
REMARK UNBOUND:                 1.271
REMARK  Name = cpd72.pdb
REMARK  10 active torsions:
REMARK  status: ('A' for Active; 'I' for Inactive)
REMARK    1  A    between atoms: O_1  and  C_2
REMARK    2  A    between atoms: C_2  and  O_3
REMARK    3  A    between atoms: C_2  and  C_4
REMARK    4  A    between atoms: C_2  and  C_25
REMARK    5  A    between atoms: C_4  and  C_5
REMARK    6  A    between atoms: C_5  and  C_6
REMARK    7  A    between atoms: C_6  and  C_7
REMARK    8  A    between atoms: C_7  and  C_8
REMARK    9  A    between atoms: C_8  and  N_9
REMARK   10  A    between atoms: N_9  and  C_10
REMARK                            x       y       z     vdW  Elec       q    Type
REMARK                         _______ _______ _______ _____ _____    ______ ____
ROOT
ATOM      1  N   UNL A   1      37.643 -37.740 -28.340  0.00  0.00    -0.343 N 
ATOM      2  H   UNL A   1      37.849 -37.482 -27.413  0.00  0.00    +0.000 HD
ENDROOT
BRANCH   1   3
ATOM      3  C   UNL A   1      37.440 -36.808 -29.405  0.00  0.00    +0.041 A 
ATOM      4  C   UNL A   1      38.481 -36.605 -30.339  0.00  0.00    -0.005 A 
ATOM      5  C   UNL A   1      38.295 -35.625 -31.316  0.00  0.00    +0.047 A 
ATOM      6  N   UNL A   1      37.175 -34.867 -31.396  0.00  0.00    -0.251 NA
ATOM      7  C   UNL A   1      36.188 -35.063 -30.515  0.00  0.00    +0.073 A 
ATOM      8  C   UNL A   1      35.055 -34.269 -30.634  0.00  0.00    -0.036 A 
ATOM      9  C   UNL A   1      33.971 -34.392 -29.765  0.00  0.00    -0.060 A 
ATOM     10  C   UNL A   1      34.013 -35.334 -28.749  0.00  0.00    -0.061 A 
ATOM     11  C   UNL A   1      35.141 -36.142 -28.612  0.00  0.00    -0.051 A 
ATOM     12  C   UNL A   1      36.253 -36.023 -29.487  0.00  0.00    +0.021 A 
ATOM     13  C   UNL A   1      39.339 -35.331 -32.363  0.00  0.00    -0.010 C 
ATOM     14  C   UNL A   1      40.635 -34.776 -31.776  0.00  0.00    -0.048 C 
ATOM     15  C   UNL A   1      41.558 -35.850 -31.205  0.00  0.00    -0.052 C 
ATOM     16  C   UNL A   1      40.993 -36.612 -30.007  0.00  0.00    -0.049 C 
ATOM     17  C   UNL A   1      39.744 -37.432 -30.330  0.00  0.00    -0.024 C 
ENDBRANCH   1   3
BRANCH   1  18
ATOM     18  C   UNL A   1      37.508 -39.132 -28.799  0.00  0.00    +0.009 C 
BRANCH  18  19
ATOM     19  C   UNL A   1      36.050 -39.596 -28.681  0.00  0.00    -0.037 C 
BRANCH  19  20
ATOM     20  C   UNL A   1      35.476 -39.982 -30.045  0.00  0.00    -0.051 C 
BRANCH  20  21
ATOM     21  C   UNL A   1      33.942 -40.032 -30.075  0.00  0.00    -0.048 C 
BRANCH  21  22
ATOM     22  C   UNL A   1      33.308 -39.433 -31.371  0.00  0.00    +0.010 C 
BRANCH  22  23
ATOM     23  C   UNL A   1      32.935 -37.734 -31.307  0.00  0.00    +0.263 C 
BRANCH  23  24
ATOM     24  C   UNL A   1      33.447 -37.516 -32.137  0.00  0.00    +0.444 C 
ATOM     25  F   UNL A   1      33.337 -38.223 -33.301  0.00  0.00    -0.165 F 
ATOM     26  F   UNL A   1      33.153 -36.219 -32.550  0.00  0.00    -0.165 F 
ATOM     27  F   UNL A   1      34.805 -37.413 -31.930  0.00  0.00    -0.165 F 
ENDBRANCH  23  24
BRANCH  23  28
ATOM     28  O   UNL A   1      31.537 -37.555 -31.951  0.00  0.00    -0.358 OA
ATOM     29  H   UNL A   1      30.889 -38.093 -31.471  0.00  0.00    +0.000 HD
ENDBRANCH  23  28
BRANCH  23  30
ATOM     30  O   UNL A   1      32.422 -37.951 -30.476  0.00  0.00    -0.358 OA
ATOM     31  H   UNL A   1      31.485 -38.074 -30.697  0.00  0.00    +0.000 HD
ENDBRANCH  23  30
ENDBRANCH  22  23
ENDBRANCH  21  22
ENDBRANCH  20  21
ENDBRANCH  19  20
ENDBRANCH  18  19
ENDBRANCH   1  18
TORSDOF 10
ENDMDL
MODEL 7
REMARK VINA RESULT:    -7.504      5.604      8.831
REMARK INTER + INTRA:          -9.522
REMARK INTER:                 -11.711
REMARK INTRA:                   2.189
REMARK UNBOUND:                 1.271
REMARK  Name = cpd72.pdb
REMARK  10 active torsions:
REMARK  status: ('A' for Active; 'I' for Inactive)
REMARK    1  A    between atoms: O_1  and  C_2
REMARK    2  A    between atoms: C_2  and  O_3
REMARK    3  A    between atoms: C_2  and  C_4
REMARK    4  A    between atoms: C_2  and  C_25
REMARK    5  A    between atoms: C_4  and  C_5
REMARK    6  A    between atoms: C_5  and  C_6
REMARK    7  A    between atoms: C_6  and  C_7
REMARK    8  A    between atoms: C_7  and  C_8
REMARK    9  A    between atoms: C_8  and  N_9
REMARK   10  A    between atoms: N_9  and  C_10
REMARK                            x       y       z     vdW  Elec       q    Type
REMARK                         _______ _______ _______ _____ _____    ______ ____
ROOT
ATOM      1  N   UNL A   1      35.715 -36.444 -28.884  0.00  0.00    -0.343 N 
ATOM      2  H   UNL A   1      36.564 -36.144 -28.488  0.00  0.00    +0.000 HD
ENDROOT
BRANCH   1   3
ATOM      3  C   UNL A   1      34.478 -35.738 -28.757  0.00  0.00    +0.041 A 
ATOM      4  C   UNL A   1      34.151 -34.759 -29.722  0.00  0.00    -0.005 A 
ATOM      5  C   UNL A   1      32.983 -34.019 -29.527  0.00  0.00    +0.047 A 
ATOM      6  N   UNL A   1      32.168 -34.196 -28.460  0.00  0.00    -0.251 NA
ATOM      7  C   UNL A   1      32.474 -35.127 -27.550  0.00  0.00    +0.073 A 
ATOM      8  C   UNL A   1      31.611 -35.281 -26.473  0.00  0.00    -0.036 A 
ATOM      9  C   UNL A   1      31.839 -36.222 -25.469  0.00  0.00    -0.060 A 
ATOM     10  C   UNL A   1      32.961 -37.034 -25.538  0.00  0.00    -0.061 A 
ATOM     11  C   UNL A   1      33.842 -36.897 -26.610  0.00  0.00    -0.051 A 
ATOM     12  C   UNL A   1      33.621 -35.940 -27.636  0.00  0.00    +0.021 A 
ATOM     13  C   UNL A   1      32.539 -32.953 -30.497  0.00  0.00    -0.010 C 
ATOM     14  C   UNL A   1      33.505 -31.773 -30.573  0.00  0.00    -0.048 C 
ATOM     15  C   UNL A   1      34.720 -32.031 -31.462  0.00  0.00    -0.052 C 
ATOM     16  C   UNL A   1      35.648 -33.142 -30.975  0.00  0.00    -0.049 C 
ATOM     17  C   UNL A   1      34.996 -34.525 -30.951  0.00  0.00    -0.024 C 
ENDBRANCH   1   3
BRANCH   1  18
ATOM     18  C   UNL A   1      35.563 -37.672 -29.681  0.00  0.00    +0.009 C 
BRANCH  18  19
ATOM     19  C   UNL A   1      36.827 -37.931 -30.513  0.00  0.00    -0.037 C 
BRANCH  19  20
ATOM     20  C   UNL A   1      38.065 -37.331 -29.845  0.00  0.00    -0.051 C 
BRANCH  20  21
ATOM     21  C   UNL A   1      39.162 -36.922 -30.837  0.00  0.00    -0.048 C 
BRANCH  21  22
ATOM     22  C   UNL A   1      40.616 -37.168 -30.321  0.00  0.00    +0.010 C 
BRANCH  22  23
ATOM     23  C   UNL A   1      41.878 -36.384 -31.229  0.00  0.00    +0.263 C 
BRANCH  23  24
ATOM     24  C   UNL A   1      42.225 -37.235 -31.620  0.00  0.00    +0.444 C 
ATOM     25  F   UNL A   1      41.953 -38.471 -31.105  0.00  0.00    -0.165 F 
ATOM     26  F   UNL A   1      41.794 -37.362 -32.939  0.00  0.00    -0.165 F 
ATOM     27  F   UNL A   1      43.590 -37.236 -31.802  0.00  0.00    -0.165 F 
ENDBRANCH  23  24
BRANCH  23  28
ATOM     28  O   UNL A   1      41.236 -35.875 -32.544  0.00  0.00    -0.358 OA
ATOM     29  H   UNL A   1      41.512 -36.442 -33.280  0.00  0.00    +0.000 HD
ENDBRANCH  23  28
BRANCH  23  30
ATOM     30  O   UNL A   1      41.530 -35.531 -30.838  0.00  0.00    -0.358 OA
ATOM     31  H   UNL A   1      41.875 -35.424 -29.937  0.00  0.00    +0.000 HD
ENDBRANCH  23  30
ENDBRANCH  22  23
ENDBRANCH  21  22
ENDBRANCH  20  21
ENDBRANCH  19  20
ENDBRANCH  18  19
ENDBRANCH   1  18
TORSDOF 10
ENDMDL
MODEL 8
REMARK VINA RESULT:    -7.466      6.105      8.610
REMARK INTER + INTRA:          -9.468
REMARK INTER:                 -11.193
REMARK INTRA:                   1.725
REMARK UNBOUND:                 1.271
REMARK  Name = cpd72.pdb
REMARK  10 active torsions:
REMARK  status: ('A' for Active; 'I' for Inactive)
REMARK    1  A    between atoms: O_1  and  C_2
REMARK    2  A    between atoms: C_2  and  O_3
REMARK    3  A    between atoms: C_2  and  C_4
REMARK    4  A    between atoms: C_2  and  C_25
REMARK    5  A    between atoms: C_4  and  C_5
REMARK    6  A    between atoms: C_5  and  C_6
REMARK    7  A    between atoms: C_6  and  C_7
REMARK    8  A    between atoms: C_7  and  C_8
REMARK    9  A    between atoms: C_8  and  N_9
REMARK   10  A    between atoms: N_9  and  C_10
REMARK                            x       y       z     vdW  Elec       q    Type
REMARK                         _______ _______ _______ _____ _____    ______ ____
ROOT
ATOM      1  N   UNL A   1      36.225 -36.042 -31.585  0.00  0.00    -0.343 N 
ATOM      2  H   UNL A   1      36.033 -36.009 -32.550  0.00  0.00    +0.000 HD
ENDROOT
BRANCH   1   3
ATOM      3  C   UNL A   1      35.253 -36.357 -30.585  0.00  0.00    +0.041 A 
ATOM      4  C   UNL A   1      35.055 -37.712 -30.233  0.00  0.00    -0.005 A 
ATOM      5  C   UNL A   1      34.039 -38.004 -29.322  0.00  0.00    +0.047 A 
ATOM      6  N   UNL A   1      33.241 -37.054 -28.777  0.00  0.00    -0.251 NA
ATOM      7  C   UNL A   1      33.432 -35.772 -29.106  0.00  0.00    +0.073 A 
ATOM      8  C   UNL A   1      32.597 -34.828 -28.523  0.00  0.00    -0.036 A 
ATOM      9  C   UNL A   1      32.712 -33.466 -28.799  0.00  0.00    -0.060 A 
ATOM     10  C   UNL A   1      33.687 -33.029 -29.683  0.00  0.00    -0.061 A 
ATOM     11  C   UNL A   1      34.536 -33.959 -30.281  0.00  0.00    -0.051 A 
ATOM     12  C   UNL A   1      34.426 -35.349 -30.010  0.00  0.00    +0.021 A 
ATOM     13  C   UNL A   1      33.746 -39.414 -28.874  0.00  0.00    -0.010 C 
ATOM     14  C   UNL A   1      33.253 -40.311 -30.008  0.00  0.00    -0.048 C 
ATOM     15  C   UNL A   1      34.376 -40.858 -30.888  0.00  0.00    -0.052 C 
ATOM     16  C   UNL A   1      35.156 -39.800 -31.666  0.00  0.00    -0.049 C 
ATOM     17  C   UNL A   1      35.923 -38.821 -30.777  0.00  0.00    -0.024 C 
ENDBRANCH   1   3
BRANCH   1  18
ATOM     18  C   UNL A   1      37.546 -35.772 -30.996  0.00  0.00    +0.009 C 
BRANCH  18  19
ATOM     19  C   UNL A   1      38.322 -34.766 -31.858  0.00  0.00    -0.037 C 
BRANCH  19  20
ATOM     20  C   UNL A   1      39.832 -34.960 -31.717  0.00  0.00    -0.051 C 
BRANCH  20  21
ATOM     21  C   UNL A   1      40.252 -36.429 -31.568  0.00  0.00    -0.048 C 
BRANCH  21  22
ATOM     22  C   UNL A   1      41.733 -36.716 -31.973  0.00  0.00    +0.010 C 
BRANCH  22  23
ATOM     23  C   UNL A   1      42.780 -37.227 -30.679  0.00  0.00    +0.263 C 
BRANCH  23  24
ATOM     24  C   UNL A   1      42.799 -38.181 -30.974  0.00  0.00    +0.444 C 
ATOM     25  F   UNL A   1      42.610 -38.577 -32.268  0.00  0.00    -0.165 F 
ATOM     26  F   UNL A   1      44.035 -38.747 -30.669  0.00  0.00    -0.165 F 
ATOM     27  F   UNL A   1      41.962 -38.996 -30.244  0.00  0.00    -0.165 F 
ENDBRANCH  23  24
BRANCH  23  28
ATOM     28  O   UNL A   1      44.230 -36.911 -31.122  0.00  0.00    -0.358 OA
ATOM     29  H   UNL A   1      44.716 -36.516 -30.381  0.00  0.00    +0.000 HD
ENDBRANCH  23  28
BRANCH  23  30
ATOM     30  O   UNL A   1      42.761 -36.271 -30.382  0.00  0.00    -0.358 OA
ATOM     31  H   UNL A   1      43.044 -35.700 -31.114  0.00  0.00    +0.000 HD
ENDBRANCH  23  30
ENDBRANCH  22  23
ENDBRANCH  21  22
ENDBRANCH  20  21
ENDBRANCH  19  20
ENDBRANCH  18  19
ENDBRANCH   1  18
TORSDOF 10
ENDMDL
MODEL 9
REMARK VINA RESULT:    -7.464     17.930     19.996
REMARK INTER + INTRA:          -9.465
REMARK INTER:                 -10.116
REMARK INTRA:                   0.651
REMARK UNBOUND:                 1.271
REMARK  Name = cpd72.pdb
REMARK  10 active torsions:
REMARK  status: ('A' for Active; 'I' for Inactive)
REMARK    1  A    between atoms: O_1  and  C_2
REMARK    2  A    between atoms: C_2  and  O_3
REMARK    3  A    between atoms: C_2  and  C_4
REMARK    4  A    between atoms: C_2  and  C_25
REMARK    5  A    between atoms: C_4  and  C_5
REMARK    6  A    between atoms: C_5  and  C_6
REMARK    7  A    between atoms: C_6  and  C_7
REMARK    8  A    between atoms: C_7  and  C_8
REMARK    9  A    between atoms: C_8  and  N_9
REMARK   10  A    between atoms: N_9  and  C_10
REMARK                            x       y       z     vdW  Elec       q    Type
REMARK                         _______ _______ _______ _____ _____    ______ ____
ROOT
ATOM      1  N   UNL A   1      44.129 -20.517 -39.583  0.00  0.00    -0.343 N 
ATOM      2  H   UNL A   1      44.518 -21.260 -40.100  0.00  0.00    +0.000 HD
ENDROOT
BRANCH   1   3
ATOM      3  C   UNL A   1      43.894 -20.558 -38.174  0.00  0.00    +0.041 A 
ATOM      4  C   UNL A   1      42.648 -21.034 -37.706  0.00  0.00    -0.005 A 
ATOM      5  C   UNL A   1      42.406 -20.979 -36.332  0.00  0.00    +0.047 A 
ATOM      6  N   UNL A   1      43.303 -20.485 -35.444  0.00  0.00    -0.251 NA
ATOM      7  C   UNL A   1      44.484 -20.040 -35.887  0.00  0.00    +0.073 A 
ATOM      8  C   UNL A   1      45.377 -19.546 -34.946  0.00  0.00    -0.036 A 
ATOM      9  C   UNL A   1      46.633 -19.056 -35.302  0.00  0.00    -0.060 A 
ATOM     10  C   UNL A   1      47.013 -19.057 -36.635  0.00  0.00    -0.061 A 
ATOM     11  C   UNL A   1      46.132 -19.548 -37.598  0.00  0.00    -0.051 A 
ATOM     12  C   UNL A   1      44.849 -20.046 -37.247  0.00  0.00    +0.021 A 
ATOM     13  C   UNL A   1      41.114 -21.465 -35.727  0.00  0.00    -0.010 C 
ATOM     14  C   UNL A   1      39.901 -20.649 -36.170  0.00  0.00    -0.048 C 
ATOM     15  C   UNL A   1      39.367 -21.042 -37.546  0.00  0.00    -0.052 C 
ATOM     16  C   UNL A   1      40.331 -20.793 -38.704  0.00  0.00    -0.049 C 
ATOM     17  C   UNL A   1      41.612 -21.625 -38.632  0.00  0.00    -0.024 C 
ENDBRANCH   1   3
BRANCH   1  18
ATOM     18  C   UNL A   1      43.721 -19.230 -40.168  0.00  0.00    +0.009 C 
BRANCH  18  19
ATOM     19  C   UNL A   1      44.574 -18.907 -41.402  0.00  0.00    -0.037 C 
BRANCH  19  20
ATOM     20  C   UNL A   1      45.804 -18.079 -41.027  0.00  0.00    -0.051 C 
BRANCH  20  21
ATOM     21  C   UNL A   1      47.129 -18.835 -41.199  0.00  0.00    -0.048 C 
BRANCH  21  22
ATOM     22  C   UNL A   1      46.997 -20.193 -41.960  0.00  0.00    +0.010 C 
BRANCH  22  23
ATOM     23  C   UNL A   1      48.094 -21.447 -41.453  0.00  0.00    +0.263 C 
BRANCH  23  24
ATOM     24  C   UNL A   1      47.377 -22.006 -41.039  0.00  0.00    +0.444 C 
ATOM     25  F   UNL A   1      46.126 -22.146 -41.568  0.00  0.00    -0.165 F 
ATOM     26  F   UNL A   1      47.806 -23.327 -40.938  0.00  0.00    -0.165 F 
ATOM     27  F   UNL A   1      47.154 -21.713 -39.712  0.00  0.00    -0.165 F 
ENDBRANCH  23  24
BRANCH  23  28
ATOM     28  O   UNL A   1      48.311 -22.375 -42.674  0.00  0.00    -0.358 OA
ATOM     29  H   UNL A   1      48.407 -21.838 -43.476  0.00  0.00    +0.000 HD
ENDBRANCH  23  28
BRANCH  23  30
ATOM     30  O   UNL A   1      48.812 -20.887 -41.868  0.00  0.00    -0.358 OA
ATOM     31  H   UNL A   1      48.560 -20.659 -42.777  0.00  0.00    +0.000 HD
ENDBRANCH  23  30
ENDBRANCH  22  23
ENDBRANCH  21  22
ENDBRANCH  20  21
ENDBRANCH  19  20
ENDBRANCH  18  19
ENDBRANCH   1  18
TORSDOF 10
ENDMDL
MODEL 10
REMARK VINA RESULT:    -7.461     17.858     19.994
REMARK INTER + INTRA:          -9.460
REMARK INTER:                 -10.141
REMARK INTRA:                   0.680
REMARK UNBOUND:                 1.271
REMARK  Name = cpd72.pdb
REMARK  10 active torsions:
REMARK  status: ('A' for Active; 'I' for Inactive)
REMARK    1  A    between atoms: O_1  and  C_2
REMARK    2  A    between atoms: C_2  and  O_3
REMARK    3  A    between atoms: C_2  and  C_4
REMARK    4  A    between atoms: C_2  and  C_25
REMARK    5  A    between atoms: C_4  and  C_5
REMARK    6  A    between atoms: C_5  and  C_6
REMARK    7  A    between atoms: C_6  and  C_7
REMARK    8  A    between atoms: C_7  and  C_8
REMARK    9  A    between atoms: C_8  and  N_9
REMARK   10  A    between atoms: N_9  and  C_10
REMARK                            x       y       z     vdW  Elec       q    Type
REMARK                         _______ _______ _______ _____ _____    ______ ____
ROOT
ATOM      1  N   UNL A   1      45.005 -19.407 -38.901  0.00  0.00    -0.343 N 
ATOM      2  H   UNL A   1      45.862 -19.886 -38.829  0.00  0.00    +0.000 HD
ENDROOT
BRANCH   1   3
ATOM      3  C   UNL A   1      43.892 -19.622 -38.029  0.00  0.00    +0.041 A 
ATOM      4  C   UNL A   1      43.886 -18.989 -36.766  0.00  0.00    -0.005 A 
ATOM      5  C   UNL A   1      42.836 -19.285 -35.896  0.00  0.00    +0.047 A 
ATOM      6  N   UNL A   1      41.841 -20.151 -36.208  0.00  0.00    -0.251 NA
ATOM      7  C   UNL A   1      41.844 -20.745 -37.406  0.00  0.00    +0.073 A 
ATOM      8  C   UNL A   1      40.805 -21.622 -37.690  0.00  0.00    -0.036 A 
ATOM      9  C   UNL A   1      40.716 -22.295 -38.909  0.00  0.00    -0.060 A 
ATOM     10  C   UNL A   1      41.689 -22.089 -39.875  0.00  0.00    -0.061 A 
ATOM     11  C   UNL A   1      42.742 -21.214 -39.611  0.00  0.00    -0.051 A 
ATOM     12  C   UNL A   1      42.845 -20.526 -38.373  0.00  0.00    +0.021 A 
ATOM     13  C   UNL A   1      42.729 -18.662 -34.527  0.00  0.00    -0.010 C 
ATOM     14  C   UNL A   1      43.871 -19.065 -33.596  0.00  0.00    -0.048 C 
ATOM     15  C   UNL A   1      45.156 -18.271 -33.822  0.00  0.00    -0.052 C 
ATOM     16  C   UNL A   1      45.804 -18.475 -35.190  0.00  0.00    -0.049 C 
ATOM     17  C   UNL A   1      44.945 -17.992 -36.359  0.00  0.00    -0.024 C 
ENDBRANCH   1   3
BRANCH   1  18
ATOM     18  C   UNL A   1      44.713 -18.384 -39.917  0.00  0.00    +0.009 C 
BRANCH  18  19
ATOM     19  C   UNL A   1      45.409 -18.729 -41.241  0.00  0.00    -0.037 C 
BRANCH  19  20
ATOM     20  C   UNL A   1      44.433 -19.361 -42.235  0.00  0.00    -0.051 C 
BRANCH  20  21
ATOM     21  C   UNL A   1      45.013 -20.570 -42.980  0.00  0.00    -0.048 C 
BRANCH  21  22
ATOM     22  C   UNL A   1      45.183 -21.846 -42.095  0.00  0.00    +0.010 C 
BRANCH  22  23
ATOM     23  C   UNL A   1      46.806 -22.464 -41.974  0.00  0.00    +0.263 C 
BRANCH  23  24
ATOM     24  C   UNL A   1      46.876 -22.292 -40.992  0.00  0.00    +0.444 C 
ATOM     25  F   UNL A   1      45.805 -22.299 -40.144  0.00  0.00    -0.165 F 
ATOM     26  F   UNL A   1      47.724 -23.229 -40.406  0.00  0.00    -0.165 F 
ATOM     27  F   UNL A   1      47.542 -21.126 -40.688  0.00  0.00    -0.165 F 
ENDBRANCH  23  24
BRANCH  23  28
ATOM     28  O   UNL A   1      46.693 -24.003 -41.841  0.00  0.00    -0.358 OA
ATOM     29  H   UNL A   1      46.007 -24.223 -41.192  0.00  0.00    +0.000 HD
ENDBRANCH  23  28
BRANCH  23  30
ATOM     30  O   UNL A   1      46.737 -22.637 -42.957  0.00  0.00    -0.358 OA
ATOM     31  H   UNL A   1      47.098 -21.879 -43.445  0.00  0.00    +0.000 HD
ENDBRANCH  23  30
ENDBRANCH  22  23
ENDBRANCH  21  22
ENDBRANCH  20  21
ENDBRANCH  19  20
ENDBRANCH  18  19
ENDBRANCH   1  18
TORSDOF 10
ENDMDL
MODEL 11
REMARK VINA RESULT:    -7.353     19.511     21.791
REMARK INTER + INTRA:          -9.305
REMARK INTER:                  -9.953
REMARK INTRA:                   0.648
REMARK UNBOUND:                 1.271
REMARK  Name = cpd72.pdb
REMARK  10 active torsions:
REMARK  status: ('A' for Active; 'I' for Inactive)
REMARK    1  A    between atoms: O_1  and  C_2
REMARK    2  A    between atoms: C_2  and  O_3
REMARK    3  A    between atoms: C_2  and  C_4
REMARK    4  A    between atoms: C_2  and  C_25
REMARK    5  A    between atoms: C_4  and  C_5
REMARK    6  A    between atoms: C_5  and  C_6
REMARK    7  A    between atoms: C_6  and  C_7
REMARK    8  A    between atoms: C_7  and  C_8
REMARK    9  A    between atoms: C_8  and  N_9
REMARK   10  A    between atoms: N_9  and  C_10
REMARK                            x       y       z     vdW  Elec       q    Type
REMARK                         _______ _______ _______ _____ _____    ______ ____
ROOT
ATOM      1  N   UNL A   1      43.767 -18.556 -37.133  0.00  0.00    -0.343 N 
ATOM      2  H   UNL A   1      43.113 -18.031 -36.618  0.00  0.00    +0.000 HD
ENDROOT
BRANCH   1   3
ATOM      3  C   UNL A   1      44.405 -18.094 -38.326  0.00  0.00    +0.041 A 
ATOM      4  C   UNL A   1      43.997 -18.633 -39.567  0.00  0.00    -0.005 A 
ATOM      5  C   UNL A   1      44.695 -18.235 -40.709  0.00  0.00    +0.047 A 
ATOM      6  N   UNL A   1      45.739 -17.372 -40.672  0.00  0.00    -0.251 NA
ATOM      7  C   UNL A   1      46.121 -16.858 -39.498  0.00  0.00    +0.073 A 
ATOM      8  C   UNL A   1      47.191 -15.973 -39.503  0.00  0.00    -0.036 A 
ATOM      9  C   UNL A   1      47.669 -15.382 -38.333  0.00  0.00    -0.060 A 
ATOM     10  C   UNL A   1      47.064 -15.680 -37.122  0.00  0.00    -0.061 A 
ATOM     11  C   UNL A   1      45.987 -16.566 -37.094  0.00  0.00    -0.051 A 
ATOM     12  C   UNL A   1      45.495 -17.176 -38.277  0.00  0.00    +0.021 A 
ATOM     13  C   UNL A   1      44.340 -18.746 -42.083  0.00  0.00    -0.010 C 
ATOM     14  C   UNL A   1      44.557 -20.250 -42.237  0.00  0.00    -0.048 C 
ATOM     15  C   UNL A   1      43.421 -21.095 -41.665  0.00  0.00    -0.052 C 
ATOM     16  C   UNL A   1      43.231 -20.977 -40.154  0.00  0.00    -0.049 C 
ATOM     17  C   UNL A   1      42.825 -19.577 -39.690  0.00  0.00    -0.024 C 
ENDBRANCH   1   3
BRANCH   1  18
ATOM     18  C   UNL A   1      44.209 -19.912 -36.768  0.00  0.00    +0.009 C 
BRANCH  18  19
ATOM     19  C   UNL A   1      45.741 -19.976 -36.701  0.00  0.00    -0.037 C 
BRANCH  19  20
ATOM     20  C   UNL A   1      46.306 -20.905 -37.777  0.00  0.00    -0.051 C 
BRANCH  20  21
ATOM     21  C   UNL A   1      47.365 -20.242 -38.668  0.00  0.00    -0.048 C 
BRANCH  21  22
ATOM     22  C   UNL A   1      47.394 -20.780 -40.135  0.00  0.00    +0.010 C 
BRANCH  22  23
ATOM     23  C   UNL A   1      48.513 -22.079 -40.436  0.00  0.00    +0.263 C 
BRANCH  23  24
ATOM     24  C   UNL A   1      47.930 -22.521 -41.116  0.00  0.00    +0.444 C 
ATOM     25  F   UNL A   1      47.586 -21.944 -42.306  0.00  0.00    -0.165 F 
ATOM     26  F   UNL A   1      48.503 -23.722 -41.524  0.00  0.00    -0.165 F 
ATOM     27  F   UNL A   1      46.736 -22.974 -40.601  0.00  0.00    -0.165 F 
ENDBRANCH  23  24
BRANCH  23  28
ATOM     28  O   UNL A   1      49.551 -21.552 -41.457  0.00  0.00    -0.358 OA
ATOM     29  H   UNL A   1      49.238 -21.730 -42.358  0.00  0.00    +0.000 HD
ENDBRANCH  23  28
BRANCH  23  30
ATOM     30  O   UNL A   1      49.098 -21.637 -39.754  0.00  0.00    -0.358 OA
ATOM     31  H   UNL A   1      49.443 -22.306 -39.142  0.00  0.00    +0.000 HD
ENDBRANCH  23  30
ENDBRANCH  22  23
ENDBRANCH  21  22
ENDBRANCH  20  21
ENDBRANCH  19  20
ENDBRANCH  18  19
ENDBRANCH   1  18
TORSDOF 10
ENDMDL
MODEL 12
REMARK VINA RESULT:    -7.264     16.943     19.257
REMARK INTER + INTRA:          -9.177
REMARK INTER:                 -10.033
REMARK INTRA:                   0.856
REMARK UNBOUND:                 1.271
REMARK  Name = cpd72.pdb
REMARK  10 active torsions:
REMARK  status: ('A' for Active; 'I' for Inactive)
REMARK    1  A    between atoms: O_1  and  C_2
REMARK    2  A    between atoms: C_2  and  O_3
REMARK    3  A    between atoms: C_2  and  C_4
REMARK    4  A    between atoms: C_2  and  C_25
REMARK    5  A    between atoms: C_4  and  C_5
REMARK    6  A    between atoms: C_5  and  C_6
REMARK    7  A    between atoms: C_6  and  C_7
REMARK    8  A    between atoms: C_7  and  C_8
REMARK    9  A    between atoms: C_8  and  N_9
REMARK   10  A    between atoms: N_9  and  C_10
REMARK                            x       y       z     vdW  Elec       q    Type
REMARK                         _______ _______ _______ _____ _____    ______ ____
ROOT
ATOM      1  N   UNL A   1      42.121 -20.568 -38.715  0.00  0.00    -0.343 N 
ATOM      2  H   UNL A   1      41.902 -19.751 -39.217  0.00  0.00    +0.000 HD
ENDROOT
BRANCH   1   3
ATOM      3  C   UNL A   1      42.158 -20.647 -37.288  0.00  0.00    +0.041 A 
ATOM      4  C   UNL A   1      43.294 -20.152 -36.609  0.00  0.00    -0.005 A 
ATOM      5  C   UNL A   1      43.349 -20.323 -35.224  0.00  0.00    +0.047 A 
ATOM      6  N   UNL A   1      42.374 -20.943 -34.518  0.00  0.00    -0.251 NA
ATOM      7  C   UNL A   1      41.296 -21.407 -35.160  0.00  0.00    +0.073 A 
ATOM      8  C   UNL A   1      40.316 -22.033 -34.401  0.00  0.00    -0.036 A 
ATOM      9  C   UNL A   1      39.155 -22.553 -34.973  0.00  0.00    -0.060 A 
ATOM     10  C   UNL A   1      38.962 -22.447 -36.342  0.00  0.00    -0.061 A 
ATOM     11  C   UNL A   1      39.933 -21.822 -37.124  0.00  0.00    -0.051 A 
ATOM     12  C   UNL A   1      41.121 -21.293 -36.553  0.00  0.00    +0.021 A 
ATOM     13  C   UNL A   1      44.513 -19.828 -34.402  0.00  0.00    -0.010 C 
ATOM     14  C   UNL A   1      45.825 -20.534 -34.736  0.00  0.00    -0.048 C 
ATOM     15  C   UNL A   1      46.515 -19.987 -35.984  0.00  0.00    -0.052 C 
ATOM     16  C   UNL A   1      45.737 -20.177 -37.284  0.00  0.00    -0.049 C 
ATOM     17  C   UNL A   1      44.407 -19.424 -37.324  0.00  0.00    -0.024 C 
ENDBRANCH   1   3
BRANCH   1  18
ATOM     18  C   UNL A   1      42.450 -21.859 -39.341  0.00  0.00    +0.009 C 
BRANCH  18  19
ATOM     19  C   UNL A   1      43.743 -21.743 -40.160  0.00  0.00    -0.037 C 
BRANCH  19  20
ATOM     20  C   UNL A   1      43.901 -20.342 -40.755  0.00  0.00    -0.051 C 
BRANCH  20  21
ATOM     21  C   UNL A   1      45.027 -20.238 -41.792  0.00  0.00    -0.048 C 
BRANCH  21  22
ATOM     22  C   UNL A   1      45.745 -21.592 -42.095  0.00  0.00    +0.010 C 
BRANCH  22  23
ATOM     23  C   UNL A   1      47.440 -21.648 -41.700  0.00  0.00    +0.263 C 
BRANCH  23  24
ATOM     24  C   UNL A   1      47.332 -22.373 -41.020  0.00  0.00    +0.444 C 
ATOM     25  F   UNL A   1      46.464 -23.418 -41.159  0.00  0.00    -0.165 F 
ATOM     26  F   UNL A   1      48.548 -23.021 -40.822  0.00  0.00    -0.165 F 
ATOM     27  F   UNL A   1      47.091 -21.897 -39.750  0.00  0.00    -0.165 F 
ENDBRANCH  23  24
BRANCH  23  28
ATOM     28  O   UNL A   1      48.119 -22.550 -42.762  0.00  0.00    -0.358 OA
ATOM     29  H   UNL A   1      49.065 -22.630 -42.560  0.00  0.00    +0.000 HD
ENDBRANCH  23  28
BRANCH  23  30
ATOM     30  O   UNL A   1      47.549 -20.923 -42.382  0.00  0.00    -0.358 OA
ATOM     31  H   UNL A   1      46.817 -20.964 -43.017  0.00  0.00    +0.000 HD
ENDBRANCH  23  30
ENDBRANCH  22  23
ENDBRANCH  21  22
ENDBRANCH  20  21
ENDBRANCH  19  20
ENDBRANCH  18  19
ENDBRANCH   1  18
TORSDOF 10
ENDMDL
MODEL 13
REMARK VINA RESULT:    -7.233     16.897     19.036
REMARK INTER + INTRA:          -9.133
REMARK INTER:                 -10.141
REMARK INTRA:                   1.007
REMARK UNBOUND:                 1.271
REMARK  Name = cpd72.pdb
REMARK  10 active torsions:
REMARK  status: ('A' for Active; 'I' for Inactive)
REMARK    1  A    between atoms: O_1  and  C_2
REMARK    2  A    between atoms: C_2  and  O_3
REMARK    3  A    between atoms: C_2  and  C_4
REMARK    4  A    between atoms: C_2  and  C_25
REMARK    5  A    between atoms: C_4  and  C_5
REMARK    6  A    between atoms: C_5  and  C_6
REMARK    7  A    between atoms: C_6  and  C_7
REMARK    8  A    between atoms: C_7  and  C_8
REMARK    9  A    between atoms: C_8  and  N_9
REMARK   10  A    between atoms: N_9  and  C_10
REMARK                            x       y       z     vdW  Elec       q    Type
REMARK                         _______ _______ _______ _____ _____    ______ ____
ROOT
ATOM      1  N   UNL A   1      43.233 -19.238 -36.738  0.00  0.00    -0.343 N 
ATOM      2  H   UNL A   1      43.104 -18.263 -36.771  0.00  0.00    +0.000 HD
ENDROOT
BRANCH   1   3
ATOM      3  C   UNL A   1      42.239 -20.192 -37.120  0.00  0.00    +0.041 A 
ATOM      4  C   UNL A   1      41.343 -20.670 -36.137  0.00  0.00    -0.005 A 
ATOM      5  C   UNL A   1      40.441 -21.667 -36.511  0.00  0.00    +0.047 A 
ATOM      6  N   UNL A   1      40.398 -22.193 -37.759  0.00  0.00    -0.251 NA
ATOM      7  C   UNL A   1      41.242 -21.737 -38.690  0.00  0.00    +0.073 A 
ATOM      8  C   UNL A   1      41.164 -22.297 -39.958  0.00  0.00    -0.036 A 
ATOM      9  C   UNL A   1      41.999 -21.894 -40.999  0.00  0.00    -0.060 A 
ATOM     10  C   UNL A   1      42.941 -20.902 -40.773  0.00  0.00    -0.061 A 
ATOM     11  C   UNL A   1      43.038 -20.325 -39.507  0.00  0.00    -0.051 A 
ATOM     12  C   UNL A   1      42.196 -20.731 -38.439  0.00  0.00    +0.021 A 
ATOM     13  C   UNL A   1      39.438 -22.244 -35.543  0.00  0.00    -0.010 C 
ATOM     14  C   UNL A   1      40.090 -22.997 -34.385  0.00  0.00    -0.048 C 
ATOM     15  C   UNL A   1      40.595 -22.085 -33.268  0.00  0.00    -0.052 C 
ATOM     16  C   UNL A   1      41.720 -21.135 -33.674  0.00  0.00    -0.049 C 
ATOM     17  C   UNL A   1      41.312 -20.112 -34.734  0.00  0.00    -0.024 C 
ENDBRANCH   1   3
BRANCH   1  18
ATOM     18  C   UNL A   1      44.473 -19.892 -36.290  0.00  0.00    +0.009 C 
BRANCH  18  19
ATOM     19  C   UNL A   1      45.658 -19.447 -37.158  0.00  0.00    -0.037 C 
BRANCH  19  20
ATOM     20  C   UNL A   1      46.310 -20.638 -37.862  0.00  0.00    -0.051 C 
BRANCH  20  21
ATOM     21  C   UNL A   1      47.249 -20.236 -39.008  0.00  0.00    -0.048 C 
BRANCH  21  22
ATOM     22  C   UNL A   1      46.939 -20.942 -40.366  0.00  0.00    +0.010 C 
BRANCH  22  23
ATOM     23  C   UNL A   1      48.279 -21.776 -41.102  0.00  0.00    +0.263 C 
BRANCH  23  24
ATOM     24  C   UNL A   1      47.974 -22.680 -40.804  0.00  0.00    +0.444 C 
ATOM     25  F   UNL A   1      46.661 -23.047 -40.725  0.00  0.00    -0.165 F 
ATOM     26  F   UNL A   1      48.506 -23.659 -41.640  0.00  0.00    -0.165 F 
ATOM     27  F   UNL A   1      48.508 -23.065 -39.594  0.00  0.00    -0.165 F 
ENDBRANCH  23  24
BRANCH  23  28
ATOM     28  O   UNL A   1      47.915 -21.987 -42.593  0.00  0.00    -0.358 OA
ATOM     29  H   UNL A   1      46.951 -21.957 -42.698  0.00  0.00    +0.000 HD
ENDBRANCH  23  28
BRANCH  23  30
ATOM     30  O   UNL A   1      48.585 -20.871 -41.401  0.00  0.00    -0.358 OA
ATOM     31  H   UNL A   1      48.451 -20.231 -40.683  0.00  0.00    +0.000 HD
ENDBRANCH  23  30
ENDBRANCH  22  23
ENDBRANCH  21  22
ENDBRANCH  20  21
ENDBRANCH  19  20
ENDBRANCH  18  19
ENDBRANCH   1  18
TORSDOF 10
ENDMDL
MODEL 14
REMARK VINA RESULT:    -7.219     17.730     20.063
REMARK INTER + INTRA:          -9.113
REMARK INTER:                 -10.179
REMARK INTRA:                   1.067
REMARK UNBOUND:                 1.271
REMARK  Name = cpd72.pdb
REMARK  10 active torsions:
REMARK  status: ('A' for Active; 'I' for Inactive)
REMARK    1  A    between atoms: O_1  and  C_2
REMARK    2  A    between atoms: C_2  and  O_3
REMARK    3  A    between atoms: C_2  and  C_4
REMARK    4  A    between atoms: C_2  and  C_25
REMARK    5  A    between atoms: C_4  and  C_5
REMARK    6  A    between atoms: C_5  and  C_6
REMARK    7  A    between atoms: C_6  and  C_7
REMARK    8  A    between atoms: C_7  and  C_8
REMARK    9  A    between atoms: C_8  and  N_9
REMARK   10  A    between atoms: N_9  and  C_10
REMARK                            x       y       z     vdW  Elec       q    Type
REMARK                         _______ _______ _______ _____ _____    ______ ____
ROOT
ATOM      1  N   UNL A   1      43.235 -20.799 -37.553  0.00  0.00    -0.343 N 
ATOM      2  H   UNL A   1      43.574 -21.702 -37.748  0.00  0.00    +0.000 HD
ENDROOT
BRANCH   1   3
ATOM      3  C   UNL A   1      43.473 -20.099 -36.329  0.00  0.00    +0.041 A 
ATOM      4  C   UNL A   1      44.623 -19.283 -36.226  0.00  0.00    -0.005 A 
ATOM      5  C   UNL A   1      44.884 -18.683 -34.993  0.00  0.00    +0.047 A 
ATOM      6  N   UNL A   1      44.094 -18.857 -33.905  0.00  0.00    -0.251 NA
ATOM      7  C   UNL A   1      43.004 -19.625 -34.005  0.00  0.00    +0.073 A 
ATOM      8  C   UNL A   1      42.218 -19.775 -32.870  0.00  0.00    -0.036 A 
ATOM      9  C   UNL A   1      41.062 -20.555 -32.867  0.00  0.00    -0.060 A 
ATOM     10  C   UNL A   1      40.675 -21.205 -34.029  0.00  0.00    -0.061 A 
ATOM     11  C   UNL A   1      41.449 -21.069 -35.181  0.00  0.00    -0.051 A 
ATOM     12  C   UNL A   1      42.630 -20.281 -35.195  0.00  0.00    +0.021 A 
ATOM     13  C   UNL A   1      46.079 -17.790 -34.774  0.00  0.00    -0.010 C 
ATOM     14  C   UNL A   1      47.410 -18.526 -34.917  0.00  0.00    -0.048 C 
ATOM     15  C   UNL A   1      47.855 -18.712 -36.366  0.00  0.00    -0.052 C 
ATOM     16  C   UNL A   1      46.937 -19.593 -37.211  0.00  0.00    -0.049 C 
ATOM     17  C   UNL A   1      45.532 -19.019 -37.402  0.00  0.00    -0.024 C 
ENDBRANCH   1   3
BRANCH   1  18
ATOM     18  C   UNL A   1      42.420 -20.004 -38.486  0.00  0.00    +0.009 C 
BRANCH  18  19
ATOM     19  C   UNL A   1      42.983 -20.107 -39.910  0.00  0.00    -0.037 C 
BRANCH  19  20
ATOM     20  C   UNL A   1      44.120 -21.128 -39.987  0.00  0.00    -0.051 C 
BRANCH  20  21
ATOM     21  C   UNL A   1      45.268 -20.702 -40.912  0.00  0.00    -0.048 C 
BRANCH  21  22
ATOM     22  C   UNL A   1      45.969 -21.887 -41.649  0.00  0.00    +0.010 C 
BRANCH  22  23
ATOM     23  C   UNL A   1      47.710 -21.866 -41.617  0.00  0.00    +0.263 C 
BRANCH  23  24
ATOM     24  C   UNL A   1      47.779 -22.601 -40.944  0.00  0.00    +0.444 C 
ATOM     25  F   UNL A   1      46.946 -23.683 -40.916  0.00  0.00    -0.165 F 
ATOM     26  F   UNL A   1      49.036 -23.196 -41.019  0.00  0.00    -0.165 F 
ATOM     27  F   UNL A   1      47.792 -22.149 -39.643  0.00  0.00    -0.165 F 
ENDBRANCH  23  24
BRANCH  23  28
ATOM     28  O   UNL A   1      48.192 -22.724 -42.814  0.00  0.00    -0.358 OA
ATOM     29  H   UNL A   1      47.745 -23.585 -42.796  0.00  0.00    +0.000 HD
ENDBRANCH  23  28
BRANCH  23  30
ATOM     30  O   UNL A   1      47.641 -21.130 -42.292  0.00  0.00    -0.358 OA
ATOM     31  H   UNL A   1      48.522 -20.756 -42.453  0.00  0.00    +0.000 HD
ENDBRANCH  23  30
ENDBRANCH  22  23
ENDBRANCH  21  22
ENDBRANCH  20  21
ENDBRANCH  19  20
ENDBRANCH  18  19
ENDBRANCH   1  18
TORSDOF 10
ENDMDL
MODEL 15
REMARK VINA RESULT:    -7.200     17.920     19.940
REMARK INTER + INTRA:          -9.086
REMARK INTER:                  -9.327
REMARK INTRA:                   0.241
REMARK UNBOUND:                 1.271
REMARK  Name = cpd72.pdb
REMARK  10 active torsions:
REMARK  status: ('A' for Active; 'I' for Inactive)
REMARK    1  A    between atoms: O_1  and  C_2
REMARK    2  A    between atoms: C_2  and  O_3
REMARK    3  A    between atoms: C_2  and  C_4
REMARK    4  A    between atoms: C_2  and  C_25
REMARK    5  A    between atoms: C_4  and  C_5
REMARK    6  A    between atoms: C_5  and  C_6
REMARK    7  A    between atoms: C_6  and  C_7
REMARK    8  A    between atoms: C_7  and  C_8
REMARK    9  A    between atoms: C_8  and  N_9
REMARK   10  A    between atoms: N_9  and  C_10
REMARK                            x       y       z     vdW  Elec       q    Type
REMARK                         _______ _______ _______ _____ _____    ______ ____
ROOT
ATOM      1  N   UNL A   1      45.404 -17.873 -40.758  0.00  0.00    -0.343 N 
ATOM      2  H   UNL A   1      44.918 -17.265 -41.361  0.00  0.00    +0.000 HD
ENDROOT
BRANCH   1   3
ATOM      3  C   UNL A   1      45.101 -19.262 -40.606  0.00  0.00    +0.041 A 
ATOM      4  C   UNL A   1      43.880 -19.629 -39.996  0.00  0.00    -0.005 A 
ATOM      5  C   UNL A   1      43.647 -20.988 -39.775  0.00  0.00    +0.047 A 
ATOM      6  N   UNL A   1      44.537 -21.953 -40.111  0.00  0.00    -0.251 NA
ATOM      7  C   UNL A   1      45.689 -21.606 -40.693  0.00  0.00    +0.073 A 
ATOM      8  C   UNL A   1      46.572 -22.624 -41.026  0.00  0.00    -0.036 A 
ATOM      9  C   UNL A   1      47.801 -22.369 -41.635  0.00  0.00    -0.060 A 
ATOM     10  C   UNL A   1      48.163 -21.062 -41.922  0.00  0.00    -0.061 A 
ATOM     11  C   UNL A   1      47.291 -20.023 -41.596  0.00  0.00    -0.051 A 
ATOM     12  C   UNL A   1      46.040 -20.270 -40.973  0.00  0.00    +0.021 A 
ATOM     13  C   UNL A   1      42.376 -21.488 -39.136  0.00  0.00    -0.010 C 
ATOM     14  C   UNL A   1      42.212 -21.026 -37.690  0.00  0.00    -0.048 C 
ATOM     15  C   UNL A   1      41.678 -19.601 -37.558  0.00  0.00    -0.052 C 
ATOM     16  C   UNL A   1      42.600 -18.517 -38.113  0.00  0.00    -0.049 C 
ATOM     17  C   UNL A   1      42.829 -18.612 -39.621  0.00  0.00    -0.024 C 
ENDBRANCH   1   3
BRANCH   1  18
ATOM     18  C   UNL A   1      46.530 -17.463 -39.904  0.00  0.00    +0.009 C 
BRANCH  18  19
ATOM     19  C   UNL A   1      46.163 -17.621 -38.422  0.00  0.00    -0.037 C 
BRANCH  19  20
ATOM     20  C   UNL A   1      47.201 -18.463 -37.678  0.00  0.00    -0.051 C 
BRANCH  20  21
ATOM     21  C   UNL A   1      46.751 -19.908 -37.423  0.00  0.00    -0.048 C 
BRANCH  21  22
ATOM     22  C   UNL A   1      45.537 -20.038 -36.448  0.00  0.00    +0.010 C 
BRANCH  22  23
ATOM     23  C   UNL A   1      45.926 -19.973 -34.752  0.00  0.00    +0.263 C 
BRANCH  23  24
ATOM     24  C   UNL A   1      45.402 -19.138 -34.590  0.00  0.00    +0.444 C 
ATOM     25  F   UNL A   1      44.346 -18.745 -35.362  0.00  0.00    -0.165 F 
ATOM     26  F   UNL A   1      44.842 -19.170 -33.315  0.00  0.00    -0.165 F 
ATOM     27  F   UNL A   1      46.188 -18.011 -34.490  0.00  0.00    -0.165 F 
ENDBRANCH  23  24
BRANCH  23  28
ATOM     28  O   UNL A   1      44.930 -20.910 -34.026  0.00  0.00    -0.358 OA
ATOM     29  H   UNL A   1      45.421 -21.579 -33.523  0.00  0.00    +0.000 HD
ENDBRANCH  23  28
BRANCH  23  30
ATOM     30  O   UNL A   1      46.451 -20.810 -34.914  0.00  0.00    -0.358 OA
ATOM     31  H   UNL A   1      46.575 -20.934 -35.869  0.00  0.00    +0.000 HD
ENDBRANCH  23  30
ENDBRANCH  22  23
ENDBRANCH  21  22
ENDBRANCH  20  21
ENDBRANCH  19  20
ENDBRANCH  18  19
ENDBRANCH   1  18
TORSDOF 10
ENDMDL
MODEL 16
REMARK VINA RESULT:    -7.169     17.680     19.714
REMARK INTER + INTRA:          -9.041
REMARK INTER:                 -10.079
REMARK INTRA:                   1.038
REMARK UNBOUND:                 1.271
REMARK  Name = cpd72.pdb
REMARK  10 active torsions:
REMARK  status: ('A' for Active; 'I' for Inactive)
REMARK    1  A    between atoms: O_1  and  C_2
REMARK    2  A    between atoms: C_2  and  O_3
REMARK    3  A    between atoms: C_2  and  C_4
REMARK    4  A    between atoms: C_2  and  C_25
REMARK    5  A    between atoms: C_4  and  C_5
REMARK    6  A    between atoms: C_5  and  C_6
REMARK    7  A    between atoms: C_6  and  C_7
REMARK    8  A    between atoms: C_7  and  C_8
REMARK    9  A    between atoms: C_8  and  N_9
REMARK   10  A    between atoms: N_9  and  C_10
REMARK                            x       y       z     vdW  Elec       q    Type
REMARK                         _______ _______ _______ _____ _____    ______ ____
ROOT
ATOM      1  N   UNL A   1      43.284 -20.851 -37.613  0.00  0.00    -0.343 N 
ATOM      2  H   UNL A   1      43.343 -21.808 -37.836  0.00  0.00    +0.000 HD
ENDROOT
BRANCH   1   3
ATOM      3  C   UNL A   1      43.760 -20.282 -36.391  0.00  0.00    +0.041 A 
ATOM      4  C   UNL A   1      42.885 -20.223 -35.282  0.00  0.00    -0.005 A 
ATOM      5  C   UNL A   1      43.340 -19.580 -34.130  0.00  0.00    +0.047 A 
ATOM      6  N   UNL A   1      44.566 -19.012 -34.037  0.00  0.00    -0.251 NA
ATOM      7  C   UNL A   1      45.396 -19.072 -35.085  0.00  0.00    +0.073 A 
ATOM      8  C   UNL A   1      46.645 -18.482 -34.949  0.00  0.00    -0.036 A 
ATOM      9  C   UNL A   1      47.583 -18.487 -35.981  0.00  0.00    -0.060 A 
ATOM     10  C   UNL A   1      47.269 -19.099 -37.185  0.00  0.00    -0.061 A 
ATOM     11  C   UNL A   1      46.020 -19.699 -37.344  0.00  0.00    -0.051 A 
ATOM     12  C   UNL A   1      45.056 -19.695 -36.302  0.00  0.00    +0.021 A 
ATOM     13  C   UNL A   1      42.491 -19.466 -32.889  0.00  0.00    -0.010 C 
ATOM     14  C   UNL A   1      41.236 -18.621 -33.099  0.00  0.00    -0.048 C 
ATOM     15  C   UNL A   1      40.093 -19.378 -33.772  0.00  0.00    -0.052 C 
ATOM     16  C   UNL A   1      40.381 -19.840 -35.199  0.00  0.00    -0.049 C 
ATOM     17  C   UNL A   1      41.516 -20.859 -35.302  0.00  0.00    -0.024 C 
ENDBRANCH   1   3
BRANCH   1  18
ATOM     18  C   UNL A   1      42.695 -19.833 -38.497  0.00  0.00    +0.009 C 
BRANCH  18  19
ATOM     19  C   UNL A   1      43.001 -20.157 -39.966  0.00  0.00    -0.037 C 
BRANCH  19  20
ATOM     20  C   UNL A   1      44.162 -21.146 -40.087  0.00  0.00    -0.051 C 
BRANCH  20  21
ATOM     21  C   UNL A   1      45.209 -20.740 -41.133  0.00  0.00    -0.048 C 
BRANCH  21  22
ATOM     22  C   UNL A   1      45.942 -21.946 -41.804  0.00  0.00    +0.010 C 
BRANCH  22  23
ATOM     23  C   UNL A   1      47.674 -21.966 -41.622  0.00  0.00    +0.263 C 
BRANCH  23  24
ATOM     24  C   UNL A   1      47.666 -22.689 -40.933  0.00  0.00    +0.444 C 
ATOM     25  F   UNL A   1      46.748 -23.701 -40.909  0.00  0.00    -0.165 F 
ATOM     26  F   UNL A   1      48.873 -23.384 -40.960  0.00  0.00    -0.165 F 
ATOM     27  F   UNL A   1      47.679 -22.213 -39.641  0.00  0.00    -0.165 F 
ENDBRANCH  23  24
BRANCH  23  28
ATOM     28  O   UNL A   1      48.235 -22.857 -42.758  0.00  0.00    -0.358 OA
ATOM     29  H   UNL A   1      49.128 -22.559 -42.993  0.00  0.00    +0.000 HD
ENDBRANCH  23  28
BRANCH  23  30
ATOM     30  O   UNL A   1      47.683 -21.242 -42.313  0.00  0.00    -0.358 OA
ATOM     31  H   UNL A   1      48.564 -21.191 -42.717  0.00  0.00    +0.000 HD
ENDBRANCH  23  30
ENDBRANCH  22  23
ENDBRANCH  21  22
ENDBRANCH  20  21
ENDBRANCH  19  20
ENDBRANCH  18  19
ENDBRANCH   1  18
TORSDOF 10
ENDMDL
MODEL 17
REMARK VINA RESULT:    -7.087      1.819      2.374
REMARK INTER + INTRA:          -8.923
REMARK INTER:                  -9.761
REMARK INTRA:                   0.838
REMARK UNBOUND:                 1.271
REMARK  Name = cpd72.pdb
REMARK  10 active torsions:
REMARK  status: ('A' for Active; 'I' for Inactive)
REMARK    1  A    between atoms: O_1  and  C_2
REMARK    2  A    between atoms: C_2  and  O_3
REMARK    3  A    between atoms: C_2  and  C_4
REMARK    4  A    between atoms: C_2  and  C_25
REMARK    5  A    between atoms: C_4  and  C_5
REMARK    6  A    between atoms: C_5  and  C_6
REMARK    7  A    between atoms: C_6  and  C_7
REMARK    8  A    between atoms: C_7  and  C_8
REMARK    9  A    between atoms: C_8  and  N_9
REMARK   10  A    between atoms: N_9  and  C_10
REMARK                            x       y       z     vdW  Elec       q    Type
REMARK                         _______ _______ _______ _____ _____    ______ ____
ROOT
ATOM      1  N   UNL A   1      34.904 -35.248 -31.522  0.00  0.00    -0.343 N 
ATOM      2  H   UNL A   1      34.853 -34.267 -31.459  0.00  0.00    +0.000 HD
ENDROOT
BRANCH   1   3
ATOM      3  C   UNL A   1      35.694 -36.067 -30.656  0.00  0.00    +0.041 A 
ATOM      4  C   UNL A   1      35.062 -36.714 -29.570  0.00  0.00    -0.005 A 
ATOM      5  C   UNL A   1      35.868 -37.434 -28.686  0.00  0.00    +0.047 A 
ATOM      6  N   UNL A   1      37.213 -37.527 -28.822  0.00  0.00    -0.251 NA
ATOM      7  C   UNL A   1      37.809 -36.919 -29.854  0.00  0.00    +0.073 A 
ATOM      8  C   UNL A   1      39.188 -37.042 -29.961  0.00  0.00    -0.036 A 
ATOM      9  C   UNL A   1      39.906 -36.446 -30.998  0.00  0.00    -0.060 A 
ATOM     10  C   UNL A   1      39.232 -35.706 -31.957  0.00  0.00    -0.061 A 
ATOM     11  C   UNL A   1      37.847 -35.568 -31.868  0.00  0.00    -0.051 A 
ATOM     12  C   UNL A   1      37.106 -36.167 -30.815  0.00  0.00    +0.021 A 
ATOM     13  C   UNL A   1      35.297 -38.166 -27.497  0.00  0.00    -0.010 C 
ATOM     14  C   UNL A   1      34.665 -37.232 -26.467  0.00  0.00    -0.048 C 
ATOM     15  C   UNL A   1      33.250 -36.785 -26.831  0.00  0.00    -0.052 C 
ATOM     16  C   UNL A   1      33.150 -35.939 -28.098  0.00  0.00    -0.049 C 
ATOM     17  C   UNL A   1      33.566 -36.679 -29.370  0.00  0.00    -0.024 C 
ENDBRANCH   1   3
BRANCH   1  18
ATOM     18  C   UNL A   1      34.175 -36.050 -32.518  0.00  0.00    +0.009 C 
BRANCH  18  19
ATOM     19  C   UNL A   1      33.176 -35.173 -33.285  0.00  0.00    -0.037 C 
BRANCH  19  20
ATOM     20  C   UNL A   1      31.748 -35.385 -32.780  0.00  0.00    -0.051 C 
BRANCH  20  21
ATOM     21  C   UNL A   1      31.377 -34.489 -31.591  0.00  0.00    -0.048 C 
BRANCH  21  22
ATOM     22  C   UNL A   1      31.674 -32.971 -31.817  0.00  0.00    +0.010 C 
BRANCH  22  23
ATOM     23  C   UNL A   1      32.028 -32.054 -30.380  0.00  0.00    +0.263 C 
BRANCH  23  24
ATOM     24  C   UNL A   1      33.018 -32.098 -30.508  0.00  0.00    +0.444 C 
ATOM     25  F   UNL A   1      33.619 -32.197 -31.730  0.00  0.00    -0.165 F 
ATOM     26  F   UNL A   1      33.616 -30.959 -29.974  0.00  0.00    -0.165 F 
ATOM     27  F   UNL A   1      33.623 -33.078 -29.752  0.00  0.00    -0.165 F 
ENDBRANCH  23  24
BRANCH  23  28
ATOM     28  O   UNL A   1      31.901 -30.557 -30.758  0.00  0.00    -0.358 OA
ATOM     29  H   UNL A   1      32.677 -30.074 -30.434  0.00  0.00    +0.000 HD
ENDBRANCH  23  28
BRANCH  23  30
ATOM     30  O   UNL A   1      31.036 -32.009 -30.251  0.00  0.00    -0.358 OA
ATOM     31  H   UNL A   1      30.628 -31.593 -31.026  0.00  0.00    +0.000 HD
ENDBRANCH  23  30
ENDBRANCH  22  23
ENDBRANCH  21  22
ENDBRANCH  20  21
ENDBRANCH  19  20
ENDBRANCH  18  19
ENDBRANCH   1  18
TORSDOF 10
ENDMDL
MODEL 18
REMARK VINA RESULT:    -7.081     18.254     20.397
REMARK INTER + INTRA:          -8.914
REMARK INTER:                  -8.910
REMARK INTRA:                  -0.004
REMARK UNBOUND:                 1.271
REMARK  Name = cpd72.pdb
REMARK  10 active torsions:
REMARK  status: ('A' for Active; 'I' for Inactive)
REMARK    1  A    between atoms: O_1  and  C_2
REMARK    2  A    between atoms: C_2  and  O_3
REMARK    3  A    between atoms: C_2  and  C_4
REMARK    4  A    between atoms: C_2  and  C_25
REMARK    5  A    between atoms: C_4  and  C_5
REMARK    6  A    between atoms: C_5  and  C_6
REMARK    7  A    between atoms: C_6  and  C_7
REMARK    8  A    between atoms: C_7  and  C_8
REMARK    9  A    between atoms: C_8  and  N_9
REMARK   10  A    between atoms: N_9  and  C_10
REMARK                            x       y       z     vdW  Elec       q    Type
REMARK                         _______ _______ _______ _____ _____    ______ ____
ROOT
ATOM      1  N   UNL A   1      47.278 -19.031 -38.891  0.00  0.00    -0.343 N 
ATOM      2  H   UNL A   1      48.081 -18.463 -38.847  0.00  0.00    +0.000 HD
ENDROOT
BRANCH   1   3
ATOM      3  C   UNL A   1      46.372 -19.055 -39.997  0.00  0.00    +0.041 A 
ATOM      4  C   UNL A   1      45.543 -17.932 -40.221  0.00  0.00    -0.005 A 
ATOM      5  C   UNL A   1      44.603 -18.014 -41.249  0.00  0.00    +0.047 A 
ATOM      6  N   UNL A   1      44.452 -19.115 -42.024  0.00  0.00    -0.251 NA
ATOM      7  C   UNL A   1      45.240 -20.175 -41.815  0.00  0.00    +0.073 A 
ATOM      8  C   UNL A   1      45.056 -21.282 -42.633  0.00  0.00    -0.036 A 
ATOM      9  C   UNL A   1      45.824 -22.439 -42.497  0.00  0.00    -0.060 A 
ATOM     10  C   UNL A   1      46.805 -22.496 -41.519  0.00  0.00    -0.061 A 
ATOM     11  C   UNL A   1      47.006 -21.396 -40.686  0.00  0.00    -0.051 A 
ATOM     12  C   UNL A   1      46.228 -20.215 -40.812  0.00  0.00    +0.021 A 
ATOM     13  C   UNL A   1      43.673 -16.873 -41.577  0.00  0.00    -0.010 C 
ATOM     14  C   UNL A   1      42.697 -16.554 -40.447  0.00  0.00    -0.048 C 
ATOM     15  C   UNL A   1      43.302 -15.699 -39.336  0.00  0.00    -0.052 C 
ATOM     16  C   UNL A   1      44.442 -16.362 -38.564  0.00  0.00    -0.049 C 
ATOM     17  C   UNL A   1      45.675 -16.660 -39.417  0.00  0.00    -0.024 C 
ENDBRANCH   1   3
BRANCH   1  18
ATOM     18  C   UNL A   1      46.864 -19.960 -37.826  0.00  0.00    +0.009 C 
BRANCH  18  19
ATOM     19  C   UNL A   1      46.029 -19.224 -36.769  0.00  0.00    -0.037 C 
BRANCH  19  20
ATOM     20  C   UNL A   1      44.704 -19.943 -36.508  0.00  0.00    -0.051 C 
BRANCH  20  21
ATOM     21  C   UNL A   1      43.660 -19.726 -37.612  0.00  0.00    -0.048 C 
BRANCH  21  22
ATOM     22  C   UNL A   1      43.385 -20.989 -38.489  0.00  0.00    +0.010 C 
BRANCH  22  23
ATOM     23  C   UNL A   1      41.707 -21.359 -38.768  0.00  0.00    +0.263 C 
BRANCH  23  24
ATOM     24  C   UNL A   1      41.764 -21.215 -39.755  0.00  0.00    +0.444 C 
ATOM     25  F   UNL A   1      42.694 -21.817 -40.554  0.00  0.00    -0.165 F 
ATOM     26  F   UNL A   1      40.567 -21.589 -40.359  0.00  0.00    -0.165 F 
ATOM     27  F   UNL A   1      41.820 -19.885 -40.111  0.00  0.00    -0.165 F 
ENDBRANCH  23  24
BRANCH  23  28
ATOM     28  O   UNL A   1      41.594 -22.901 -38.855  0.00  0.00    -0.358 OA
ATOM     29  H   UNL A   1      42.471 -23.282 -39.018  0.00  0.00    +0.000 HD
ENDBRANCH  23  28
BRANCH  23  30
ATOM     30  O   UNL A   1      41.648 -21.503 -37.779  0.00  0.00    -0.358 OA
ATOM     31  H   UNL A   1      41.954 -20.706 -37.317  0.00  0.00    +0.000 HD
ENDBRANCH  23  30
ENDBRANCH  22  23
ENDBRANCH  21  22
ENDBRANCH  20  21
ENDBRANCH  19  20
ENDBRANCH  18  19
ENDBRANCH   1  18
TORSDOF 10
ENDMDL
MODEL 19
REMARK VINA RESULT:    -7.004     17.729     19.983
REMARK INTER + INTRA:          -8.803
REMARK INTER:                  -9.782
REMARK INTRA:                   0.979
REMARK UNBOUND:                 1.271
REMARK  Name = cpd72.pdb
REMARK  10 active torsions:
REMARK  status: ('A' for Active; 'I' for Inactive)
REMARK    1  A    between atoms: O_1  and  C_2
REMARK    2  A    between atoms: C_2  and  O_3
REMARK    3  A    between atoms: C_2  and  C_4
REMARK    4  A    between atoms: C_2  and  C_25
REMARK    5  A    between atoms: C_4  and  C_5
REMARK    6  A    between atoms: C_5  and  C_6
REMARK    7  A    between atoms: C_6  and  C_7
REMARK    8  A    between atoms: C_7  and  C_8
REMARK    9  A    between atoms: C_8  and  N_9
REMARK   10  A    between atoms: N_9  and  C_10
REMARK                            x       y       z     vdW  Elec       q    Type
REMARK                         _______ _______ _______ _____ _____    ______ ____
ROOT
ATOM      1  N   UNL A   1      43.812 -20.695 -39.343  0.00  0.00    -0.343 N 
ATOM      2  H   UNL A   1      44.358 -21.445 -39.673  0.00  0.00    +0.000 HD
ENDROOT
BRANCH   1   3
ATOM      3  C   UNL A   1      43.495 -20.480 -37.966  0.00  0.00    +0.041 A 
ATOM      4  C   UNL A   1      44.359 -19.677 -37.187  0.00  0.00    -0.005 A 
ATOM      5  C   UNL A   1      44.081 -19.556 -35.824  0.00  0.00    +0.047 A 
ATOM      6  N   UNL A   1      43.034 -20.175 -35.228  0.00  0.00    -0.251 NA
ATOM      7  C   UNL A   1      42.213 -20.930 -35.966  0.00  0.00    +0.073 A 
ATOM      8  C   UNL A   1      41.150 -21.545 -35.318  0.00  0.00    -0.036 A 
ATOM      9  C   UNL A   1      40.238 -22.354 -35.995  0.00  0.00    -0.060 A 
ATOM     10  C   UNL A   1      40.387 -22.557 -37.359  0.00  0.00    -0.061 A 
ATOM     11  C   UNL A   1      41.448 -21.950 -38.030  0.00  0.00    -0.051 A 
ATOM     12  C   UNL A   1      42.385 -21.128 -37.350  0.00  0.00    +0.021 A 
ATOM     13  C   UNL A   1      44.934 -18.720 -34.904  0.00  0.00    -0.010 C 
ATOM     14  C   UNL A   1      46.359 -19.252 -34.763  0.00  0.00    -0.048 C 
ATOM     15  C   UNL A   1      47.277 -18.858 -35.919  0.00  0.00    -0.052 C 
ATOM     16  C   UNL A   1      46.880 -19.431 -37.278  0.00  0.00    -0.049 C 
ATOM     17  C   UNL A   1      45.528 -18.933 -37.788  0.00  0.00    -0.024 C 
ENDBRANCH   1   3
BRANCH   1  18
ATOM     18  C   UNL A   1      43.224 -19.659 -40.207  0.00  0.00    +0.009 C 
BRANCH  18  19
ATOM     19  C   UNL A   1      44.260 -19.155 -41.221  0.00  0.00    -0.037 C 
BRANCH  19  20
ATOM     20  C   UNL A   1      44.243 -19.995 -42.499  0.00  0.00    -0.051 C 
BRANCH  20  21
ATOM     21  C   UNL A   1      45.282 -21.124 -42.506  0.00  0.00    -0.048 C 
BRANCH  21  22
ATOM     22  C   UNL A   1      46.580 -20.804 -41.697  0.00  0.00    +0.010 C 
BRANCH  22  23
ATOM     23  C   UNL A   1      47.155 -22.084 -40.665  0.00  0.00    +0.263 C 
BRANCH  23  24
ATOM     24  C   UNL A   1      47.841 -22.401 -41.319  0.00  0.00    +0.444 C 
ATOM     25  F   UNL A   1      48.369 -21.615 -42.303  0.00  0.00    -0.165 F 
ATOM     26  F   UNL A   1      48.978 -22.832 -40.641  0.00  0.00    -0.165 F 
ATOM     27  F   UNL A   1      47.481 -23.561 -41.968  0.00  0.00    -0.165 F 
ENDBRANCH  23  24
BRANCH  23  28
ATOM     28  O   UNL A   1      48.174 -21.449 -39.686  0.00  0.00    -0.358 OA
ATOM     29  H   UNL A   1      47.705 -20.885 -39.051  0.00  0.00    +0.000 HD
ENDBRANCH  23  28
BRANCH  23  30
ATOM     30  O   UNL A   1      46.468 -21.766 -40.010  0.00  0.00    -0.358 OA
ATOM     31  H   UNL A   1      46.858 -21.739 -39.121  0.00  0.00    +0.000 HD
ENDBRANCH  23  30
ENDBRANCH  22  23
ENDBRANCH  21  22
ENDBRANCH  20  21
ENDBRANCH  19  20
ENDBRANCH  18  19
ENDBRANCH   1  18
TORSDOF 10
ENDMDL
MODEL 20
REMARK VINA RESULT:    -6.720     18.006     20.235
REMARK INTER + INTRA:          -8.395
REMARK INTER:                  -9.001
REMARK INTRA:                   0.605
REMARK UNBOUND:                 1.271
REMARK  Name = cpd72.pdb
REMARK  10 active torsions:
REMARK  status: ('A' for Active; 'I' for Inactive)
REMARK    1  A    between atoms: O_1  and  C_2
REMARK    2  A    between atoms: C_2  and  O_3
REMARK    3  A    between atoms: C_2  and  C_4
REMARK    4  A    between atoms: C_2  and  C_25
REMARK    5  A    between atoms: C_4  and  C_5
REMARK    6  A    between atoms: C_5  and  C_6
REMARK    7  A    between atoms: C_6  and  C_7
REMARK    8  A    between atoms: C_7  and  C_8
REMARK    9  A    between atoms: C_8  and  N_9
REMARK   10  A    between atoms: N_9  and  C_10
REMARK                            x       y       z     vdW  Elec       q    Type
REMARK                         _______ _______ _______ _____ _____    ______ ____
ROOT
ATOM      1  N   UNL A   1      47.244 -18.873 -38.737  0.00  0.00    -0.343 N 
ATOM      2  H   UNL A   1      48.015 -18.279 -38.885  0.00  0.00    +0.000 HD
ENDROOT
BRANCH   1   3
ATOM      3  C   UNL A   1      46.227 -19.126 -39.710  0.00  0.00    +0.041 A 
ATOM      4  C   UNL A   1      46.137 -20.416 -40.279  0.00  0.00    -0.005 A 
ATOM      5  C   UNL A   1      45.197 -20.614 -41.292  0.00  0.00    +0.047 A 
ATOM      6  N   UNL A   1      44.387 -19.629 -41.750  0.00  0.00    -0.251 NA
ATOM      7  C   UNL A   1      44.469 -18.410 -41.207  0.00  0.00    +0.073 A 
ATOM      8  C   UNL A   1      43.618 -17.429 -41.699  0.00  0.00    -0.036 A 
ATOM      9  C   UNL A   1      43.625 -16.126 -41.204  0.00  0.00    -0.060 A 
ATOM     10  C   UNL A   1      44.504 -15.787 -40.187  0.00  0.00    -0.061 A 
ATOM     11  C   UNL A   1      45.368 -16.756 -39.677  0.00  0.00    -0.051 A 
ATOM     12  C   UNL A   1      45.373 -18.085 -40.176  0.00  0.00    +0.021 A 
ATOM     13  C   UNL A   1      45.014 -21.952 -41.964  0.00  0.00    -0.010 C 
ATOM     14  C   UNL A   1      46.244 -22.399 -42.751  0.00  0.00    -0.048 C 
ATOM     15  C   UNL A   1      47.335 -23.022 -41.882  0.00  0.00    -0.052 C 
ATOM     16  C   UNL A   1      47.964 -22.073 -40.863  0.00  0.00    -0.049 C 
ATOM     17  C   UNL A   1      46.986 -21.569 -39.801  0.00  0.00    -0.024 C 
ENDBRANCH   1   3
BRANCH   1  18
ATOM     18  C   UNL A   1      46.999 -19.611 -37.487  0.00  0.00    +0.009 C 
BRANCH  18  19
ATOM     19  C   UNL A   1      45.862 -18.954 -36.692  0.00  0.00    -0.037 C 
BRANCH  19  20
ATOM     20  C   UNL A   1      44.735 -19.949 -36.409  0.00  0.00    -0.051 C 
BRANCH  20  21
ATOM     21  C   UNL A   1      43.494 -19.739 -37.288  0.00  0.00    -0.048 C 
BRANCH  21  22
ATOM     22  C   UNL A   1      43.141 -20.958 -38.198  0.00  0.00    +0.010 C 
BRANCH  22  23
ATOM     23  C   UNL A   1      41.441 -21.287 -38.386  0.00  0.00    +0.263 C 
BRANCH  23  24
ATOM     24  C   UNL A   1      41.451 -21.156 -39.376  0.00  0.00    +0.444 C 
ATOM     25  F   UNL A   1      42.154 -21.949 -40.238  0.00  0.00    -0.165 F 
ATOM     26  F   UNL A   1      40.156 -21.248 -39.879  0.00  0.00    -0.165 F 
ATOM     27  F   UNL A   1      41.777 -19.872 -39.753  0.00  0.00    -0.165 F 
ENDBRANCH  23  24
BRANCH  23  28
ATOM     28  O   UNL A   1      41.285 -22.827 -38.448  0.00  0.00    -0.358 OA
ATOM     29  H   UNL A   1      40.777 -23.070 -39.237  0.00  0.00    +0.000 HD
ENDBRANCH  23  28
BRANCH  23  30
ATOM     30  O   UNL A   1      41.431 -21.419 -37.394  0.00  0.00    -0.358 OA
ATOM     31  H   UNL A   1      41.780 -20.626 -36.958  0.00  0.00    +0.000 HD
ENDBRANCH  23  30
ENDBRANCH  22  23
ENDBRANCH  21  22
ENDBRANCH  20  21
ENDBRANCH  19  20
ENDBRANCH  18  19
ENDBRANCH   1  18
TORSDOF 10
ENDMDL
