@<TRIPOS>MOLECULE
*****
 30 33 0 0 0
SMALL
GASTEIGER

@<TRIPOS>ATOM
      1 C          -0.4000   -2.6508    0.0000 C.3     1  UNL1        0.0301
      2 C           0.6000   -2.6508    0.0000 C.2     1  UNL1       -0.0319
      3 C           1.1000   -1.7848    0.0000 C.2     1  UNL1       -0.0204
      4 C           2.1000   -1.7848    0.0000 C.3     1  UNL1        0.0473
      5 C           1.5757   -2.3498    0.0000 C.2     1  UNL1       -0.0303
      6 C           0.8070   -2.2922    0.0000 C.2     1  UNL1       -0.0453
      7 C           0.3070   -3.1582    0.0000 C.3     1  UNL1        0.0261
      8 C           0.3727   -1.6553    0.0000 C.3     1  UNL1        0.0523
      9 C           0.6000   -0.9187    0.0000 C.3     1  UNL1        0.1231
     10 N          -0.4861    0.8420    0.0000 N.2     1  UNL1       -0.2643
     11 C           0.0000    1.6839    0.0000 C.2     1  UNL1        0.0968
     12 C           0.9722    1.6839    0.0000 C.ar    1  UNL1        0.0555
     13 C           1.4583    2.5259    0.0000 C.ar    1  UNL1        0.0047
     14 C           2.4306    2.5259    0.0000 C.ar    1  UNL1        0.0003
     15 C           2.9167    1.6839    0.0000 C.ar    1  UNL1        0.0032
     16 C           2.4306    0.8420    0.0000 C.ar    1  UNL1        0.0398
     17 C           1.4583    0.8420    0.0000 C.ar    1  UNL1        0.1729
     18 O           0.9722   -0.0000    0.0000 O.3     1  UNL1       -0.3592
     19 S           0.0000   -0.0000    0.0000 S.3     1  UNL1        0.0425
     20 O           0.2741    0.9328    0.0000 O.2     1  UNL1       -0.3360
     21 O          -0.9328    0.2741    0.0000 O.2     1  UNL1       -0.3360
     22 O          -0.2741   -0.9328    0.0000 O.co2   1  UNL1       -0.2589
     23 C           1.1000   -0.0527    0.0000 C.ar    1  UNL1        0.0154
     24 C           0.6000    0.8133    0.0000 C.ar    1  UNL1        0.0040
     25 C           1.1000    1.6793    0.0000 C.ar    1  UNL1        0.0623
     26 C           2.1000    1.6793    0.0000 C.ar    1  UNL1        0.2790
     27 O           2.6000    2.5454    0.0000 O.2     1  UNL1       -0.2652
     28 N           2.6000    0.8133    0.0000 N.ar    1  UNL1       -0.2125
     29 C           2.1000   -0.0527    0.0000 C.ar    1  UNL1        0.0609
     30 C           2.6000   -0.9187    0.0000 C.3     1  UNL1        0.0541
@<TRIPOS>UNITY_ATOM_ATTR
22 1
charge -1
@<TRIPOS>BOND
     1     1     2    1
     2     2     3    2
     3     3     4    1
     4     4     5    1
     5     5     6    2
     6     6     7    1
     7     6     8    1
     8     8     9    1
     9     3     9    1
    10     9    10    1
    11    10    11    2
    12    11    12    1
    13    12    13   ar
    14    13    14   ar
    15    14    15   ar
    16    15    16   ar
    17    16    17   ar
    18    12    17   ar
    19    17    18    1
    20    18    19    1
    21    19    20    2
    22    19    21    2
    23    19    22    1
    24     9    23    1
    25    23    24   ar
    26    24    25   ar
    27    25    26   ar
    28    26    27    2
    29    26    28   ar
    30    28    29   ar
    31    23    29   ar
    32    29    30    1
    33     4    30    1
