MODEL 1
REMARK VINA RESULT:    -8.052      0.000      0.000
REMARK INTER + INTRA:          -9.718
REMARK INTER:                  -9.934
REMARK INTRA:                   0.216
REMARK UNBOUND:                 0.216
REMARK  Name = cpd118.pdb
REMARK  6 active torsions:
REMARK  status: ('A' for Active; 'I' for Inactive)
REMARK    1  A    between atoms: C_1  and  C_2
REMARK    2  A    between atoms: C_6  and  C_7
REMARK    3  A    between atoms: C_9  and  N_10
REMARK    4  A    between atoms: C_11  and  C_12
REMARK    5  A    between atoms: C_17  and  O_18
REMARK    6  A    between atoms: O_18  and  S_19
REMARK                            x       y       z     vdW  Elec       q    Type
REMARK                         _______ _______ _______ _____ _____    ______ ____
ROOT
ATOM      1  C   UNL     1      43.629 -16.394 -40.936  0.00  0.00    -0.046 C 
ATOM      2  C   UNL     1      43.906 -17.571 -41.818  0.00  0.00    -0.085 C 
ATOM      3  C   UNL     1      44.437 -18.778 -41.520  0.00  0.00    -0.035 C 
ATOM      4  C   UNL     1      44.236 -19.920 -42.503  0.00  0.00    +0.006 C 
ATOM      5  C   UNL     1      43.307 -20.961 -41.885  0.00  0.00    -0.077 C 
ATOM      6  C   UNL     1      43.024 -21.000 -40.564  0.00  0.00    -0.073 C 
ATOM      7  C   UNL     1      42.064 -21.980 -39.964  0.00  0.00    -0.044 C 
ATOM      8  C   UNL     1      43.698 -20.024 -39.592  0.00  0.00    +0.001 C 
ATOM      9  C   UNL     1      44.974 -19.332 -40.200  0.00  0.00    +0.113 C 
ATOM     10  C   UNL     1      46.033 -20.432 -40.347  0.00  0.00    -0.000 C 
ATOM     11  C   UNL     1      46.625 -21.064 -39.318  0.00  0.00    -0.068 C 
ATOM     12  C   UNL     1      47.626 -22.152 -39.494  0.00  0.00    +0.045 C 
ATOM     13  C   UNL     1      48.147 -22.254 -40.920  0.00  0.00    +0.240 C 
ATOM     14  O   UNL     1      49.224 -22.811 -41.134  0.00  0.00    -0.273 OA
ATOM     15  N   UNL     1      47.354 -21.798 -41.945  0.00  0.00    -0.185 NA
ATOM     16  C   UNL     1      46.394 -20.963 -41.695  0.00  0.00    +0.040 C 
ATOM     17  C   UNL     1      45.587 -20.500 -42.892  0.00  0.00    -0.002 C 
ENDROOT
BRANCH   9  18
ATOM     18  N   UNL     1      45.432 -18.308 -39.253  0.00  0.00    -0.275 NA
ATOM     19  C   UNL     1      44.991 -18.146 -38.048  0.00  0.00    +0.034 C 
BRANCH  19  20
ATOM     20  C   UNL     1      43.888 -18.829 -37.344  0.00  0.00    +0.037 A 
ATOM     21  C   UNL     1      42.593 -18.309 -37.440  0.00  0.00    -0.050 A 
ATOM     22  C   UNL     1      41.532 -18.929 -36.778  0.00  0.00    -0.061 A 
ATOM     23  C   UNL     1      41.770 -20.042 -35.975  0.00  0.00    -0.058 A 
ATOM     24  C   UNL     1      43.072 -20.513 -35.809  0.00  0.00    -0.016 A 
ATOM     25  C   UNL     1      44.133 -19.883 -36.465  0.00  0.00    +0.167 A 
BRANCH  25  26
ATOM     26  O   UNL     1      45.405 -20.336 -36.247  0.00  0.00    -0.323 OA
BRANCH  26  27
ATOM     27  S   UNL     1      46.157 -19.911 -34.849  0.00  0.00    +0.282 S 
ATOM     28  O   UNL     1      45.809 -20.977 -33.911  0.00  0.00    -0.105 OA
ATOM     29  O   UNL     1      45.604 -18.599 -34.515  0.00  0.00    -0.105 OA
ATOM     30  O   UNL     1      47.570 -19.884 -35.223  0.00  0.00    -0.012 OA
ENDBRANCH  26  27
ENDBRANCH  25  26
ENDBRANCH  19  20
ENDBRANCH   9  18
TORSDOF 4
ENDMDL
MODEL 2
REMARK VINA RESULT:    -7.786      2.262      3.571
REMARK INTER + INTRA:          -9.391
REMARK INTER:                  -8.285
REMARK INTRA:                  -1.106
REMARK UNBOUND:                 0.216
REMARK  Name = cpd118.pdb
REMARK  6 active torsions:
REMARK  status: ('A' for Active; 'I' for Inactive)
REMARK    1  A    between atoms: C_1  and  C_2
REMARK    2  A    between atoms: C_6  and  C_7
REMARK    3  A    between atoms: C_9  and  N_10
REMARK    4  A    between atoms: C_11  and  C_12
REMARK    5  A    between atoms: C_17  and  O_18
REMARK    6  A    between atoms: O_18  and  S_19
REMARK                            x       y       z     vdW  Elec       q    Type
REMARK                         _______ _______ _______ _____ _____    ______ ____
ROOT
ATOM      1  C   UNL     1      41.409 -22.232 -39.889  0.00  0.00    -0.046 C 
ATOM      2  C   UNL     1      42.093 -21.412 -40.938  0.00  0.00    -0.085 C 
ATOM      3  C   UNL     1      43.317 -20.837 -40.934  0.00  0.00    -0.035 C 
ATOM      4  C   UNL     1      43.920 -20.410 -42.262  0.00  0.00    +0.006 C 
ATOM      5  C   UNL     1      45.115 -21.303 -42.585  0.00  0.00    -0.077 C 
ATOM      6  C   UNL     1      45.717 -22.086 -41.661  0.00  0.00    -0.073 C 
ATOM      7  C   UNL     1      46.848 -23.011 -41.988  0.00  0.00    -0.044 C 
ATOM      8  C   UNL     1      45.263 -22.054 -40.196  0.00  0.00    +0.001 C 
ATOM      9  C   UNL     1      44.392 -20.790 -39.848  0.00  0.00    +0.113 C 
ATOM     10  C   UNL     1      45.334 -19.582 -39.927  0.00  0.00    -0.000 C 
ATOM     11  C   UNL     1      46.355 -19.354 -39.082  0.00  0.00    -0.068 C 
ATOM     12  C   UNL     1      47.273 -18.187 -39.205  0.00  0.00    +0.045 C 
ATOM     13  C   UNL     1      46.756 -17.125 -40.162  0.00  0.00    +0.240 C 
ATOM     14  O   UNL     1      47.179 -15.972 -40.074  0.00  0.00    -0.273 OA
ATOM     15  N   UNL     1      45.893 -17.502 -41.163  0.00  0.00    -0.185 NA
ATOM     16  C   UNL     1      45.236 -18.615 -41.060  0.00  0.00    +0.040 C 
ATOM     17  C   UNL     1      44.292 -18.937 -42.202  0.00  0.00    -0.002 C 
ENDROOT
BRANCH   9  18
ATOM     18  N   UNL     1      43.883 -20.951 -38.481  0.00  0.00    -0.275 NA
ATOM     19  C   UNL     1      43.272 -20.042 -37.794  0.00  0.00    +0.034 C 
BRANCH  19  20
ATOM     20  C   UNL     1      43.013 -18.625 -38.117  0.00  0.00    +0.037 A 
ATOM     21  C   UNL     1      42.078 -18.313 -39.109  0.00  0.00    -0.050 A 
ATOM     22  C   UNL     1      41.819 -16.982 -39.442  0.00  0.00    -0.061 A 
ATOM     23  C   UNL     1      42.531 -15.959 -38.820  0.00  0.00    -0.058 A 
ATOM     24  C   UNL     1      43.524 -16.271 -37.891  0.00  0.00    -0.016 A 
ATOM     25  C   UNL     1      43.788 -17.605 -37.568  0.00  0.00    +0.167 A 
BRANCH  25  26
ATOM     26  O   UNL     1      44.799 -17.883 -36.691  0.00  0.00    -0.323 OA
BRANCH  26  27
ATOM     27  S   UNL     1      44.534 -17.638 -35.088  0.00  0.00    +0.282 S 
ATOM     28  O   UNL     1      43.094 -17.834 -34.924  0.00  0.00    -0.105 OA
ATOM     29  O   UNL     1      44.997 -16.274 -34.840  0.00  0.00    -0.105 OA
ATOM     30  O   UNL     1      45.352 -18.670 -34.452  0.00  0.00    -0.012 OA
ENDBRANCH  26  27
ENDBRANCH  25  26
ENDBRANCH  19  20
ENDBRANCH   9  18
TORSDOF 4
ENDMDL
MODEL 3
REMARK VINA RESULT:    -7.756      3.420      4.699
REMARK INTER + INTRA:          -9.354
REMARK INTER:                  -8.417
REMARK INTRA:                  -0.937
REMARK UNBOUND:                 0.216
REMARK  Name = cpd118.pdb
REMARK  6 active torsions:
REMARK  status: ('A' for Active; 'I' for Inactive)
REMARK    1  A    between atoms: C_1  and  C_2
REMARK    2  A    between atoms: C_6  and  C_7
REMARK    3  A    between atoms: C_9  and  N_10
REMARK    4  A    between atoms: C_11  and  C_12
REMARK    5  A    between atoms: C_17  and  O_18
REMARK    6  A    between atoms: O_18  and  S_19
REMARK                            x       y       z     vdW  Elec       q    Type
REMARK                         _______ _______ _______ _____ _____    ______ ____
ROOT
ATOM      1  C   UNL     1      41.449 -22.321 -39.814  0.00  0.00    -0.046 C 
ATOM      2  C   UNL     1      42.108 -21.555 -40.917  0.00  0.00    -0.085 C 
ATOM      3  C   UNL     1      43.298 -20.914 -40.944  0.00  0.00    -0.035 C 
ATOM      4  C   UNL     1      43.903 -20.567 -42.295  0.00  0.00    +0.006 C 
ATOM      5  C   UNL     1      45.151 -21.416 -42.521  0.00  0.00    -0.077 C 
ATOM      6  C   UNL     1      45.777 -22.082 -41.525  0.00  0.00    -0.073 C 
ATOM      7  C   UNL     1      46.963 -22.966 -41.754  0.00  0.00    -0.044 C 
ATOM      8  C   UNL     1      45.293 -21.952 -40.075  0.00  0.00    +0.001 C 
ATOM      9  C   UNL     1      44.347 -20.715 -39.850  0.00  0.00    +0.113 C 
ATOM     10  C   UNL     1      45.222 -19.466 -40.018  0.00  0.00    -0.000 C 
ATOM     11  C   UNL     1      46.212 -19.110 -39.179  0.00  0.00    -0.068 C 
ATOM     12  C   UNL     1      47.066 -17.908 -39.388  0.00  0.00    +0.045 C 
ATOM     13  C   UNL     1      46.511 -16.961 -40.440  0.00  0.00    +0.240 C 
ATOM     14  O   UNL     1      46.868 -15.783 -40.444  0.00  0.00    -0.273 OA
ATOM     15  N   UNL     1      45.690 -17.469 -41.418  0.00  0.00    -0.185 NA
ATOM     16  C   UNL     1      45.094 -18.605 -41.231  0.00  0.00    +0.040 C 
ATOM     17  C   UNL     1      44.192 -19.076 -42.355  0.00  0.00    -0.002 C 
ENDROOT
BRANCH   9  18
ATOM     18  N   UNL     1      43.820 -20.788 -38.482  0.00  0.00    -0.275 NA
ATOM     19  C   UNL     1      43.059 -19.906 -37.920  0.00  0.00    +0.034 C 
BRANCH  19  20
ATOM     20  C   UNL     1      42.608 -18.591 -38.417  0.00  0.00    +0.037 A 
ATOM     21  C   UNL     1      43.445 -17.481 -38.261  0.00  0.00    -0.050 A 
ATOM     22  C   UNL     1      43.041 -16.223 -38.713  0.00  0.00    -0.061 A 
ATOM     23  C   UNL     1      41.778 -16.060 -39.277  0.00  0.00    -0.058 A 
ATOM     24  C   UNL     1      40.908 -17.147 -39.356  0.00  0.00    -0.016 A 
ATOM     25  C   UNL     1      41.312 -18.403 -38.893  0.00  0.00    +0.167 A 
BRANCH  25  26
ATOM     26  O   UNL     1      40.422 -19.440 -38.939  0.00  0.00    -0.323 OA
BRANCH  26  27
ATOM     27  S   UNL     1      39.267 -19.533 -37.774  0.00  0.00    +0.282 S 
ATOM     28  O   UNL     1      39.888 -18.924 -36.598  0.00  0.00    -0.105 OA
ATOM     29  O   UNL     1      38.987 -20.962 -37.644  0.00  0.00    -0.105 OA
ATOM     30  O   UNL     1      38.162 -18.758 -38.334  0.00  0.00    -0.012 OA
ENDBRANCH  26  27
ENDBRANCH  25  26
ENDBRANCH  19  20
ENDBRANCH   9  18
TORSDOF 4
ENDMDL
MODEL 4
REMARK VINA RESULT:    -7.680     21.276     23.539
REMARK INTER + INTRA:          -9.261
REMARK INTER:                  -8.303
REMARK INTRA:                  -0.957
REMARK UNBOUND:                 0.216
REMARK  Name = cpd118.pdb
REMARK  6 active torsions:
REMARK  status: ('A' for Active; 'I' for Inactive)
REMARK    1  A    between atoms: C_1  and  C_2
REMARK    2  A    between atoms: C_6  and  C_7
REMARK    3  A    between atoms: C_9  and  N_10
REMARK    4  A    between atoms: C_11  and  C_12
REMARK    5  A    between atoms: C_17  and  O_18
REMARK    6  A    between atoms: O_18  and  S_19
REMARK                            x       y       z     vdW  Elec       q    Type
REMARK                         _______ _______ _______ _____ _____    ______ ____
ROOT
ATOM      1  C   UNL     1      31.332 -37.566 -31.116  0.00  0.00    -0.046 C 
ATOM      2  C   UNL     1      32.056 -37.193 -29.860  0.00  0.00    -0.085 C 
ATOM      3  C   UNL     1      33.360 -36.903 -29.659  0.00  0.00    -0.035 C 
ATOM      4  C   UNL     1      33.751 -36.172 -28.385  0.00  0.00    +0.006 C 
ATOM      5  C   UNL     1      34.219 -34.762 -28.736  0.00  0.00    -0.077 C 
ATOM      6  C   UNL     1      34.553 -34.390 -29.992  0.00  0.00    -0.073 C 
ATOM      7  C   UNL     1      34.951 -32.993 -30.351  0.00  0.00    -0.044 C 
ATOM      8  C   UNL     1      34.549 -35.413 -31.135  0.00  0.00    +0.001 C 
ATOM      9  C   UNL     1      34.542 -36.904 -30.629  0.00  0.00    +0.113 C 
ATOM     10  C   UNL     1      35.910 -37.144 -29.976  0.00  0.00    -0.000 C 
ATOM     11  C   UNL     1      37.079 -37.170 -30.642  0.00  0.00    -0.068 C 
ATOM     12  C   UNL     1      38.394 -37.374 -29.974  0.00  0.00    +0.045 C 
ATOM     13  C   UNL     1      38.262 -37.866 -28.541  0.00  0.00    +0.240 C 
ATOM     14  O   UNL     1      39.212 -38.440 -28.008  0.00  0.00    -0.273 OA
ATOM     15  N   UNL     1      37.113 -37.576 -27.847  0.00  0.00    -0.185 NA
ATOM     16  C   UNL     1      36.036 -37.253 -28.493  0.00  0.00    +0.040 C 
ATOM     17  C   UNL     1      34.811 -36.971 -27.644  0.00  0.00    -0.002 C 
ENDROOT
BRANCH   9  18
ATOM     18  N   UNL     1      34.373 -37.780 -31.794  0.00  0.00    -0.275 NA
ATOM     19  C   UNL     1      34.412 -39.072 -31.776  0.00  0.00    +0.034 C 
BRANCH  19  20
ATOM     20  C   UNL     1      34.728 -39.994 -30.668  0.00  0.00    +0.037 A 
ATOM     21  C   UNL     1      36.066 -40.302 -30.398  0.00  0.00    -0.050 A 
ATOM     22  C   UNL     1      36.395 -41.177 -29.362  0.00  0.00    -0.061 A 
ATOM     23  C   UNL     1      35.384 -41.789 -28.623  0.00  0.00    -0.058 A 
ATOM     24  C   UNL     1      34.049 -41.551 -28.944  0.00  0.00    -0.016 A 
ATOM     25  C   UNL     1      33.723 -40.682 -29.989  0.00  0.00    +0.167 A 
BRANCH  25  26
ATOM     26  O   UNL     1      32.407 -40.504 -30.314  0.00  0.00    -0.323 OA
BRANCH  26  27
ATOM     27  S   UNL     1      31.667 -41.644 -31.236  0.00  0.00    +0.282 S 
ATOM     28  O   UNL     1      31.059 -42.556 -30.267  0.00  0.00    -0.105 OA
ATOM     29  O   UNL     1      32.743 -42.230 -32.034  0.00  0.00    -0.105 OA
ATOM     30  O   UNL     1      30.701 -40.871 -32.015  0.00  0.00    -0.012 OA
ENDBRANCH  26  27
ENDBRANCH  25  26
ENDBRANCH  19  20
ENDBRANCH   9  18
TORSDOF 4
ENDMDL
MODEL 5
REMARK VINA RESULT:    -7.671     20.520     22.778
REMARK INTER + INTRA:          -9.249
REMARK INTER:                  -8.318
REMARK INTRA:                  -0.931
REMARK UNBOUND:                 0.216
REMARK  Name = cpd118.pdb
REMARK  6 active torsions:
REMARK  status: ('A' for Active; 'I' for Inactive)
REMARK    1  A    between atoms: C_1  and  C_2
REMARK    2  A    between atoms: C_6  and  C_7
REMARK    3  A    between atoms: C_9  and  N_10
REMARK    4  A    between atoms: C_11  and  C_12
REMARK    5  A    between atoms: C_17  and  O_18
REMARK    6  A    between atoms: O_18  and  S_19
REMARK                            x       y       z     vdW  Elec       q    Type
REMARK                         _______ _______ _______ _____ _____    ______ ____
ROOT
ATOM      1  C   UNL     1      34.900 -33.935 -29.881  0.00  0.00    -0.046 C 
ATOM      2  C   UNL     1      34.924 -35.083 -28.922  0.00  0.00    -0.085 C 
ATOM      3  C   UNL     1      35.247 -36.380 -29.123  0.00  0.00    -0.035 C 
ATOM      4  C   UNL     1      35.578 -37.240 -27.914  0.00  0.00    +0.006 C 
ATOM      5  C   UNL     1      37.061 -37.597 -27.938  0.00  0.00    -0.077 C 
ATOM      6  C   UNL     1      37.832 -37.458 -29.040  0.00  0.00    -0.073 C 
ATOM      7  C   UNL     1      39.301 -37.746 -29.050  0.00  0.00    -0.044 C 
ATOM      8  C   UNL     1      37.219 -36.995 -30.368  0.00  0.00    +0.001 C 
ATOM      9  C   UNL     1      35.650 -37.120 -30.399  0.00  0.00    +0.113 C 
ATOM     10  C   UNL     1      35.337 -38.622 -30.398  0.00  0.00    -0.000 C 
ATOM     11  C   UNL     1      35.620 -39.462 -31.410  0.00  0.00    -0.068 C 
ATOM     12  C   UNL     1      35.332 -40.922 -31.365  0.00  0.00    +0.045 C 
ATOM     13  C   UNL     1      34.409 -41.310 -30.220  0.00  0.00    +0.240 C 
ATOM     14  O   UNL     1      33.781 -42.367 -30.279  0.00  0.00    -0.273 OA
ATOM     15  N   UNL     1      34.370 -40.509 -29.105  0.00  0.00    -0.185 NA
ATOM     16  C   UNL     1      34.784 -39.282 -29.178  0.00  0.00    +0.040 C 
ATOM     17  C   UNL     1      34.682 -38.469 -27.903  0.00  0.00    -0.002 C 
ENDROOT
BRANCH   9  18
ATOM     18  N   UNL     1      35.169 -36.501 -31.639  0.00  0.00    -0.275 NA
ATOM     19  C   UNL     1      33.935 -36.444 -32.023  0.00  0.00    +0.034 C 
BRANCH  19  20
ATOM     20  C   UNL     1      32.728 -37.042 -31.419  0.00  0.00    +0.037 A 
ATOM     21  C   UNL     1      32.423 -38.379 -31.691  0.00  0.00    -0.050 A 
ATOM     22  C   UNL     1      31.283 -38.970 -31.141  0.00  0.00    -0.061 A 
ATOM     23  C   UNL     1      30.416 -38.209 -30.359  0.00  0.00    -0.058 A 
ATOM     24  C   UNL     1      30.672 -36.854 -30.157  0.00  0.00    -0.016 A 
ATOM     25  C   UNL     1      31.809 -36.264 -30.717  0.00  0.00    +0.167 A 
BRANCH  25  26
ATOM     26  O   UNL     1      32.010 -34.923 -30.542  0.00  0.00    -0.323 OA
BRANCH  26  27
ATOM     27  S   UNL     1      31.174 -33.876 -31.494  0.00  0.00    +0.282 S 
ATOM     28  O   UNL     1      30.179 -33.286 -30.599  0.00  0.00    -0.105 OA
ATOM     29  O   UNL     1      30.619 -34.708 -32.561  0.00  0.00    -0.105 OA
ATOM     30  O   UNL     1      32.202 -32.938 -31.943  0.00  0.00    -0.012 OA
ENDBRANCH  26  27
ENDBRANCH  25  26
ENDBRANCH  19  20
ENDBRANCH   9  18
TORSDOF 4
ENDMDL
MODEL 6
REMARK VINA RESULT:    -7.664     20.269     22.726
REMARK INTER + INTRA:          -9.240
REMARK INTER:                  -8.609
REMARK INTRA:                  -0.631
REMARK UNBOUND:                 0.216
REMARK  Name = cpd118.pdb
REMARK  6 active torsions:
REMARK  status: ('A' for Active; 'I' for Inactive)
REMARK    1  A    between atoms: C_1  and  C_2
REMARK    2  A    between atoms: C_6  and  C_7
REMARK    3  A    between atoms: C_9  and  N_10
REMARK    4  A    between atoms: C_11  and  C_12
REMARK    5  A    between atoms: C_17  and  O_18
REMARK    6  A    between atoms: O_18  and  S_19
REMARK                            x       y       z     vdW  Elec       q    Type
REMARK                         _______ _______ _______ _____ _____    ______ ____
ROOT
ATOM      1  C   UNL     1      36.525 -35.401 -31.277  0.00  0.00    -0.046 C 
ATOM      2  C   UNL     1      36.467 -35.845 -29.849  0.00  0.00    -0.085 C 
ATOM      3  C   UNL     1      35.713 -36.803 -29.264  0.00  0.00    -0.035 C 
ATOM      4  C   UNL     1      36.134 -37.321 -27.899  0.00  0.00    +0.006 C 
ATOM      5  C   UNL     1      36.609 -38.766 -28.032  0.00  0.00    -0.077 C 
ATOM      6  C   UNL     1      36.348 -39.527 -29.118  0.00  0.00    -0.073 C 
ATOM      7  C   UNL     1      36.866 -40.923 -29.280  0.00  0.00    -0.044 C 
ATOM      8  C   UNL     1      35.478 -38.986 -30.260  0.00  0.00    +0.001 C 
ATOM      9  C   UNL     1      34.638 -37.720 -29.848  0.00  0.00    +0.113 C 
ATOM     10  C   UNL     1      33.590 -38.207 -28.839  0.00  0.00    -0.000 C 
ATOM     11  C   UNL     1      32.569 -39.030 -29.137  0.00  0.00    -0.068 C 
ATOM     12  C   UNL     1      31.586 -39.511 -28.127  0.00  0.00    +0.045 C 
ATOM     13  C   UNL     1      31.654 -38.738 -26.819  0.00  0.00    +0.240 C 
ATOM     14  O   UNL     1      30.684 -38.744 -26.061  0.00  0.00    -0.273 OA
ATOM     15  N   UNL     1      32.834 -38.125 -26.476  0.00  0.00    -0.185 NA
ATOM     16  C   UNL     1      33.718 -37.873 -27.390  0.00  0.00    +0.040 C 
ATOM     17  C   UNL     1      34.979 -37.174 -26.921  0.00  0.00    -0.002 C 
ENDROOT
BRANCH   9  18
ATOM     18  N   UNL     1      33.982 -37.198 -31.053  0.00  0.00    -0.275 NA
ATOM     19  C   UNL     1      33.156 -36.204 -31.089  0.00  0.00    +0.034 C 
BRANCH  19  20
ATOM     20  C   UNL     1      32.577 -35.414 -29.985  0.00  0.00    +0.037 A 
ATOM     21  C   UNL     1      31.445 -35.898 -29.321  0.00  0.00    -0.050 A 
ATOM     22  C   UNL     1      30.870 -35.169 -28.279  0.00  0.00    -0.061 A 
ATOM     23  C   UNL     1      31.395 -33.926 -27.929  0.00  0.00    -0.058 A 
ATOM     24  C   UNL     1      32.471 -33.402 -28.644  0.00  0.00    -0.016 A 
ATOM     25  C   UNL     1      33.037 -34.131 -29.694  0.00  0.00    +0.167 A 
BRANCH  25  26
ATOM     26  O   UNL     1      34.060 -33.572 -30.409  0.00  0.00    -0.323 OA
BRANCH  26  27
ATOM     27  S   UNL     1      33.689 -32.520 -31.615  0.00  0.00    +0.282 S 
ATOM     28  O   UNL     1      32.646 -31.668 -31.046  0.00  0.00    -0.105 OA
ATOM     29  O   UNL     1      33.248 -33.368 -32.722  0.00  0.00    -0.105 OA
ATOM     30  O   UNL     1      34.955 -31.831 -31.861  0.00  0.00    -0.012 OA
ENDBRANCH  26  27
ENDBRANCH  25  26
ENDBRANCH  19  20
ENDBRANCH   9  18
TORSDOF 4
ENDMDL
MODEL 7
REMARK VINA RESULT:    -7.640      4.765      7.058
REMARK INTER + INTRA:          -9.211
REMARK INTER:                  -8.131
REMARK INTRA:                  -1.081
REMARK UNBOUND:                 0.216
REMARK  Name = cpd118.pdb
REMARK  6 active torsions:
REMARK  status: ('A' for Active; 'I' for Inactive)
REMARK    1  A    between atoms: C_1  and  C_2
REMARK    2  A    between atoms: C_6  and  C_7
REMARK    3  A    between atoms: C_9  and  N_10
REMARK    4  A    between atoms: C_11  and  C_12
REMARK    5  A    between atoms: C_17  and  O_18
REMARK    6  A    between atoms: O_18  and  S_19
REMARK                            x       y       z     vdW  Elec       q    Type
REMARK                         _______ _______ _______ _____ _____    ______ ____
ROOT
ATOM      1  C   UNL     1      42.319 -20.891 -39.678  0.00  0.00    -0.046 C 
ATOM      2  C   UNL     1      42.244 -19.574 -38.971  0.00  0.00    -0.085 C 
ATOM      3  C   UNL     1      42.434 -19.272 -37.667  0.00  0.00    -0.035 C 
ATOM      4  C   UNL     1      42.695 -17.823 -37.290  0.00  0.00    +0.006 C 
ATOM      5  C   UNL     1      44.136 -17.678 -36.807  0.00  0.00    -0.077 C 
ATOM      6  C   UNL     1      44.901 -18.735 -36.452  0.00  0.00    -0.073 C 
ATOM      7  C   UNL     1      46.334 -18.603 -36.040  0.00  0.00    -0.044 C 
ATOM      8  C   UNL     1      44.318 -20.153 -36.446  0.00  0.00    +0.001 C 
ATOM      9  C   UNL     1      42.744 -20.173 -36.471  0.00  0.00    +0.113 C 
ATOM     10  C   UNL     1      42.284 -19.623 -35.115  0.00  0.00    -0.000 C 
ATOM     11  C   UNL     1      42.469 -20.245 -33.936  0.00  0.00    -0.068 C 
ATOM     12  C   UNL     1      42.039 -19.669 -32.632  0.00  0.00    +0.045 C 
ATOM     13  C   UNL     1      41.098 -18.483 -32.789  0.00  0.00    +0.240 C 
ATOM     14  O   UNL     1      40.368 -18.161 -31.851  0.00  0.00    -0.273 OA
ATOM     15  N   UNL     1      41.154 -17.746 -33.946  0.00  0.00    -0.185 NA
ATOM     16  C   UNL     1      41.686 -18.259 -35.012  0.00  0.00    +0.040 C 
ATOM     17  C   UNL     1      41.683 -17.379 -36.246  0.00  0.00    -0.002 C 
ENDROOT
BRANCH   9  18
ATOM     18  N   UNL     1      42.309 -21.566 -36.630  0.00  0.00    -0.275 NA
ATOM     19  C   UNL     1      41.084 -21.980 -36.596  0.00  0.00    +0.034 C 
BRANCH  19  20
ATOM     20  C   UNL     1      39.842 -21.240 -36.298  0.00  0.00    +0.037 A 
ATOM     21  C   UNL     1      39.355 -20.324 -37.236  0.00  0.00    -0.050 A 
ATOM     22  C   UNL     1      38.187 -19.603 -36.979  0.00  0.00    -0.061 A 
ATOM     23  C   UNL     1      37.530 -19.758 -35.760  0.00  0.00    -0.058 A 
ATOM     24  C   UNL     1      38.060 -20.606 -34.789  0.00  0.00    -0.016 A 
ATOM     25  C   UNL     1      39.235 -21.318 -35.046  0.00  0.00    +0.167 A 
BRANCH  25  26
ATOM     26  O   UNL     1      39.759 -22.106 -34.058  0.00  0.00    -0.323 OA
BRANCH  26  27
ATOM     27  S   UNL     1      38.998 -23.516 -33.696  0.00  0.00    +0.282 S 
ATOM     28  O   UNL     1      38.667 -24.095 -34.997  0.00  0.00    -0.105 OA
ATOM     29  O   UNL     1      37.842 -23.117 -32.894  0.00  0.00    -0.105 OA
ATOM     30  O   UNL     1      40.010 -24.262 -32.951  0.00  0.00    -0.012 OA
ENDBRANCH  26  27
ENDBRANCH  25  26
ENDBRANCH  19  20
ENDBRANCH   9  18
TORSDOF 4
ENDMDL
MODEL 8
REMARK VINA RESULT:    -7.614      3.976      6.229
REMARK INTER + INTRA:          -9.179
REMARK INTER:                  -8.759
REMARK INTRA:                  -0.419
REMARK UNBOUND:                 0.216
REMARK  Name = cpd118.pdb
REMARK  6 active torsions:
REMARK  status: ('A' for Active; 'I' for Inactive)
REMARK    1  A    between atoms: C_1  and  C_2
REMARK    2  A    between atoms: C_6  and  C_7
REMARK    3  A    between atoms: C_9  and  N_10
REMARK    4  A    between atoms: C_11  and  C_12
REMARK    5  A    between atoms: C_17  and  O_18
REMARK    6  A    between atoms: O_18  and  S_19
REMARK                            x       y       z     vdW  Elec       q    Type
REMARK                         _______ _______ _______ _____ _____    ______ ____
ROOT
ATOM      1  C   UNL     1      39.126 -21.308 -37.805  0.00  0.00    -0.046 C 
ATOM      2  C   UNL     1      39.751 -19.960 -37.626  0.00  0.00    -0.085 C 
ATOM      3  C   UNL     1      41.042 -19.617 -37.421  0.00  0.00    -0.035 C 
ATOM      4  C   UNL     1      41.459 -18.178 -37.675  0.00  0.00    +0.006 C 
ATOM      5  C   UNL     1      42.373 -18.125 -38.897  0.00  0.00    -0.077 C 
ATOM      6  C   UNL     1      42.970 -19.222 -39.415  0.00  0.00    -0.073 C 
ATOM      7  C   UNL     1      43.815 -19.184 -40.650  0.00  0.00    -0.044 C 
ATOM      8  C   UNL     1      42.814 -20.589 -38.737  0.00  0.00    +0.001 C 
ATOM      9  C   UNL     1      42.289 -20.487 -37.257  0.00  0.00    +0.113 C 
ATOM     10  C   UNL     1      43.419 -19.843 -36.442  0.00  0.00    -0.000 C 
ATOM     11  C   UNL     1      44.605 -20.427 -36.189  0.00  0.00    -0.068 C 
ATOM     12  C   UNL     1      45.694 -19.762 -35.422  0.00  0.00    +0.045 C 
ATOM     13  C   UNL     1      45.227 -18.515 -34.687  0.00  0.00    +0.240 C 
ATOM     14  O   UNL     1      45.878 -18.096 -33.730  0.00  0.00    -0.273 OA
ATOM     15  N   UNL     1      44.136 -17.835 -35.170  0.00  0.00    -0.185 NA
ATOM     16  C   UNL     1      43.304 -18.434 -35.964  0.00  0.00    +0.040 C 
ATOM     17  C   UNL     1      42.118 -17.611 -36.428  0.00  0.00    -0.002 C 
ENDROOT
BRANCH   9  18
ATOM     18  N   UNL     1      42.023 -21.847 -36.773  0.00  0.00    -0.275 NA
ATOM     19  C   UNL     1      41.489 -22.150 -35.635  0.00  0.00    +0.034 C 
BRANCH  19  20
ATOM     20  C   UNL     1      41.110 -21.279 -34.505  0.00  0.00    +0.037 A 
ATOM     21  C   UNL     1      42.102 -20.540 -33.853  0.00  0.00    -0.050 A 
ATOM     22  C   UNL     1      41.775 -19.714 -32.776  0.00  0.00    -0.061 A 
ATOM     23  C   UNL     1      40.461 -19.663 -32.314  0.00  0.00    -0.058 A 
ATOM     24  C   UNL     1      39.486 -20.463 -32.908  0.00  0.00    -0.016 A 
ATOM     25  C   UNL     1      39.819 -21.296 -33.979  0.00  0.00    +0.167 A 
BRANCH  25  26
ATOM     26  O   UNL     1      38.854 -22.106 -34.511  0.00  0.00    -0.323 OA
BRANCH  26  27
ATOM     27  S   UNL     1      38.464 -23.488 -33.713  0.00  0.00    +0.282 S 
ATOM     28  O   UNL     1      37.236 -23.157 -32.992  0.00  0.00    -0.105 OA
ATOM     29  O   UNL     1      39.619 -23.760 -32.859  0.00  0.00    -0.105 OA
ATOM     30  O   UNL     1      38.279 -24.457 -34.792  0.00  0.00    -0.012 OA
ENDBRANCH  26  27
ENDBRANCH  25  26
ENDBRANCH  19  20
ENDBRANCH   9  18
TORSDOF 4
ENDMDL
MODEL 9
REMARK VINA RESULT:    -7.611      2.464      3.775
REMARK INTER + INTRA:          -9.175
REMARK INTER:                  -8.028
REMARK INTRA:                  -1.147
REMARK UNBOUND:                 0.216
REMARK  Name = cpd118.pdb
REMARK  6 active torsions:
REMARK  status: ('A' for Active; 'I' for Inactive)
REMARK    1  A    between atoms: C_1  and  C_2
REMARK    2  A    between atoms: C_6  and  C_7
REMARK    3  A    between atoms: C_9  and  N_10
REMARK    4  A    between atoms: C_11  and  C_12
REMARK    5  A    between atoms: C_17  and  O_18
REMARK    6  A    between atoms: O_18  and  S_19
REMARK                            x       y       z     vdW  Elec       q    Type
REMARK                         _______ _______ _______ _____ _____    ______ ____
ROOT
ATOM      1  C   UNL     1      42.384 -21.833 -41.544  0.00  0.00    -0.046 C 
ATOM      2  C   UNL     1      43.450 -20.833 -41.870  0.00  0.00    -0.085 C 
ATOM      3  C   UNL     1      44.527 -20.443 -41.153  0.00  0.00    -0.035 C 
ATOM      4  C   UNL     1      45.655 -19.723 -41.875  0.00  0.00    +0.006 C 
ATOM      5  C   UNL     1      46.886 -20.625 -41.913  0.00  0.00    -0.077 C 
ATOM      6  C   UNL     1      47.024 -21.713 -41.123  0.00  0.00    -0.073 C 
ATOM      7  C   UNL     1      48.201 -22.635 -41.202  0.00  0.00    -0.044 C 
ATOM      8  C   UNL     1      45.958 -22.057 -40.075  0.00  0.00    +0.001 C 
ATOM      9  C   UNL     1      44.996 -20.852 -39.756  0.00  0.00    +0.113 C 
ATOM     10  C   UNL     1      45.846 -19.801 -39.029  0.00  0.00    -0.000 C 
ATOM     11  C   UNL     1      46.371 -19.962 -37.801  0.00  0.00    -0.068 C 
ATOM     12  C   UNL     1      47.219 -18.935 -37.136  0.00  0.00    +0.045 C 
ATOM     13  C   UNL     1      47.166 -17.582 -37.828  0.00  0.00    +0.240 C 
ATOM     14  O   UNL     1      47.479 -16.568 -37.203  0.00  0.00    -0.273 OA
ATOM     15  N   UNL     1      46.855 -17.537 -39.166  0.00  0.00    -0.185 NA
ATOM     16  C   UNL     1      46.248 -18.540 -39.719  0.00  0.00    +0.040 C 
ATOM     17  C   UNL     1      45.927 -18.392 -41.193  0.00  0.00    -0.002 C 
ENDROOT
BRANCH   9  18
ATOM     18  N   UNL     1      43.929 -21.342 -38.876  0.00  0.00    -0.275 NA
ATOM     19  C   UNL     1      43.030 -20.610 -38.303  0.00  0.00    +0.034 C 
BRANCH  19  20
ATOM     20  C   UNL     1      42.880 -19.142 -38.277  0.00  0.00    +0.037 A 
ATOM     21  C   UNL     1      42.491 -18.477 -39.445  0.00  0.00    -0.050 A 
ATOM     22  C   UNL     1      42.350 -17.088 -39.453  0.00  0.00    -0.061 A 
ATOM     23  C   UNL     1      42.647 -16.353 -38.307  0.00  0.00    -0.058 A 
ATOM     24  C   UNL     1      43.117 -17.005 -37.168  0.00  0.00    -0.016 A 
ATOM     25  C   UNL     1      43.267 -18.394 -37.166  0.00  0.00    +0.167 A 
BRANCH  25  26
ATOM     26  O   UNL     1      43.775 -19.002 -36.052  0.00  0.00    -0.323 OA
BRANCH  26  27
ATOM     27  S   UNL     1      42.789 -19.205 -34.753  0.00  0.00    +0.282 S 
ATOM     28  O   UNL     1      43.230 -20.466 -34.156  0.00  0.00    -0.105 OA
ATOM     29  O   UNL     1      41.439 -19.235 -35.315  0.00  0.00    -0.105 OA
ATOM     30  O   UNL     1      43.067 -18.027 -33.933  0.00  0.00    -0.012 OA
ENDBRANCH  26  27
ENDBRANCH  25  26
ENDBRANCH  19  20
ENDBRANCH   9  18
TORSDOF 4
ENDMDL
MODEL 10
REMARK VINA RESULT:    -7.592     21.387     23.706
REMARK INTER + INTRA:          -9.152
REMARK INTER:                  -8.006
REMARK INTRA:                  -1.146
REMARK UNBOUND:                 0.216
REMARK  Name = cpd118.pdb
REMARK  6 active torsions:
REMARK  status: ('A' for Active; 'I' for Inactive)
REMARK    1  A    between atoms: C_1  and  C_2
REMARK    2  A    between atoms: C_6  and  C_7
REMARK    3  A    between atoms: C_9  and  N_10
REMARK    4  A    between atoms: C_11  and  C_12
REMARK    5  A    between atoms: C_17  and  O_18
REMARK    6  A    between atoms: O_18  and  S_19
REMARK                            x       y       z     vdW  Elec       q    Type
REMARK                         _______ _______ _______ _____ _____    ______ ____
ROOT
ATOM      1  C   UNL     1      38.429 -36.911 -29.933  0.00  0.00    -0.046 C 
ATOM      2  C   UNL     1      37.306 -36.666 -30.891  0.00  0.00    -0.085 C 
ATOM      3  C   UNL     1      35.973 -36.600 -30.674  0.00  0.00    -0.035 C 
ATOM      4  C   UNL     1      35.099 -35.945 -31.730  0.00  0.00    +0.006 C 
ATOM      5  C   UNL     1      34.542 -34.634 -31.183  0.00  0.00    -0.077 C 
ATOM      6  C   UNL     1      34.554 -34.323 -29.867  0.00  0.00    -0.073 C 
ATOM      7  C   UNL     1      34.067 -33.012 -29.334  0.00  0.00    -0.044 C 
ATOM      8  C   UNL     1      35.072 -35.330 -28.833  0.00  0.00    +0.001 C 
ATOM      9  C   UNL     1      35.162 -36.798 -29.393  0.00  0.00    +0.113 C 
ATOM     10  C   UNL     1      33.717 -37.266 -29.613  0.00  0.00    -0.000 C 
ATOM     11  C   UNL     1      32.829 -37.488 -28.628  0.00  0.00    -0.068 C 
ATOM     12  C   UNL     1      31.422 -37.910 -28.876  0.00  0.00    +0.045 C 
ATOM     13  C   UNL     1      31.186 -38.374 -30.305  0.00  0.00    +0.240 C 
ATOM     14  O   UNL     1      30.223 -39.100 -30.555  0.00  0.00    -0.273 OA
ATOM     15  N   UNL     1      32.005 -37.894 -31.298  0.00  0.00    -0.185 NA
ATOM     16  C   UNL     1      33.162 -37.395 -30.993  0.00  0.00    +0.040 C 
ATOM     17  C   UNL     1      34.005 -36.911 -32.156  0.00  0.00    -0.002 C 
ENDROOT
BRANCH   9  18
ATOM     18  N   UNL     1      35.819 -37.633 -28.380  0.00  0.00    -0.275 NA
ATOM     19  C   UNL     1      35.954 -38.918 -28.436  0.00  0.00    +0.034 C 
BRANCH  19  20
ATOM     20  C   UNL     1      35.428 -39.883 -29.420  0.00  0.00    +0.037 A 
ATOM     21  C   UNL     1      35.933 -39.869 -30.725  0.00  0.00    -0.050 A 
ATOM     22  C   UNL     1      35.449 -40.765 -31.680  0.00  0.00    -0.061 A 
ATOM     23  C   UNL     1      34.421 -41.644 -31.348  0.00  0.00    -0.058 A 
ATOM     24  C   UNL     1      33.857 -41.603 -30.074  0.00  0.00    -0.016 A 
ATOM     25  C   UNL     1      34.337 -40.698 -29.124  0.00  0.00    +0.167 A 
BRANCH  25  26
ATOM     26  O   UNL     1      33.734 -40.647 -27.898  0.00  0.00    -0.323 OA
BRANCH  26  27
ATOM     27  S   UNL     1      34.145 -41.773 -26.775  0.00  0.00    +0.282 S 
ATOM     28  O   UNL     1      34.207 -41.028 -25.518  0.00  0.00    -0.105 OA
ATOM     29  O   UNL     1      35.429 -42.302 -27.235  0.00  0.00    -0.105 OA
ATOM     30  O   UNL     1      33.045 -42.734 -26.845  0.00  0.00    -0.012 OA
ENDBRANCH  26  27
ENDBRANCH  25  26
ENDBRANCH  19  20
ENDBRANCH   9  18
TORSDOF 4
ENDMDL
MODEL 11
REMARK VINA RESULT:    -7.544      2.982      5.147
REMARK INTER + INTRA:          -9.093
REMARK INTER:                  -8.158
REMARK INTRA:                  -0.934
REMARK UNBOUND:                 0.216
REMARK  Name = cpd118.pdb
REMARK  6 active torsions:
REMARK  status: ('A' for Active; 'I' for Inactive)
REMARK    1  A    between atoms: C_1  and  C_2
REMARK    2  A    between atoms: C_6  and  C_7
REMARK    3  A    between atoms: C_9  and  N_10
REMARK    4  A    between atoms: C_11  and  C_12
REMARK    5  A    between atoms: C_17  and  O_18
REMARK    6  A    between atoms: O_18  and  S_19
REMARK                            x       y       z     vdW  Elec       q    Type
REMARK                         _______ _______ _______ _____ _____    ______ ____
ROOT
ATOM      1  C   UNL     1      43.586 -19.304 -33.928  0.00  0.00    -0.046 C 
ATOM      2  C   UNL     1      44.605 -19.837 -34.885  0.00  0.00    -0.085 C 
ATOM      3  C   UNL     1      44.913 -19.441 -36.141  0.00  0.00    -0.035 C 
ATOM      4  C   UNL     1      46.244 -19.879 -36.732  0.00  0.00    +0.006 C 
ATOM      5  C   UNL     1      47.155 -18.663 -36.880  0.00  0.00    -0.077 C 
ATOM      6  C   UNL     1      46.698 -17.392 -36.822  0.00  0.00    -0.073 C 
ATOM      7  C   UNL     1      47.597 -16.198 -36.903  0.00  0.00    -0.044 C 
ATOM      8  C   UNL     1      45.198 -17.108 -36.678  0.00  0.00    +0.001 C 
ATOM      9  C   UNL     1      44.299 -18.353 -37.021  0.00  0.00    +0.113 C 
ATOM     10  C   UNL     1      44.445 -18.588 -38.530  0.00  0.00    -0.000 C 
ATOM     11  C   UNL     1      43.990 -17.750 -39.480  0.00  0.00    -0.068 C 
ATOM     12  C   UNL     1      44.177 -17.991 -40.938  0.00  0.00    +0.045 C 
ATOM     13  C   UNL     1      44.634 -19.407 -41.252  0.00  0.00    +0.240 C 
ATOM     14  O   UNL     1      44.455 -19.866 -42.381  0.00  0.00    -0.273 OA
ATOM     15  N   UNL     1      45.318 -20.108 -40.288  0.00  0.00    -0.185 NA
ATOM     16  C   UNL     1      45.232 -19.746 -39.047  0.00  0.00    +0.040 C 
ATOM     17  C   UNL     1      46.003 -20.593 -38.053  0.00  0.00    -0.002 C 
ENDROOT
BRANCH   9  18
ATOM     18  N   UNL     1      42.909 -18.016 -36.690  0.00  0.00    -0.275 NA
ATOM     19  C   UNL     1      41.872 -18.736 -36.972  0.00  0.00    +0.034 C 
BRANCH  19  20
ATOM     20  C   UNL     1      41.770 -19.982 -37.756  0.00  0.00    +0.037 A 
ATOM     21  C   UNL     1      41.568 -19.903 -39.138  0.00  0.00    -0.050 A 
ATOM     22  C   UNL     1      41.459 -21.064 -39.905  0.00  0.00    -0.061 A 
ATOM     23  C   UNL     1      41.500 -22.311 -39.284  0.00  0.00    -0.058 A 
ATOM     24  C   UNL     1      41.616 -22.393 -37.898  0.00  0.00    -0.016 A 
ATOM     25  C   UNL     1      41.715 -21.228 -37.132  0.00  0.00    +0.167 A 
BRANCH  25  26
ATOM     26  O   UNL     1      41.779 -21.336 -35.771  0.00  0.00    -0.323 OA
BRANCH  26  27
ATOM     27  S   UNL     1      40.423 -21.781 -34.957  0.00  0.00    +0.282 S 
ATOM     28  O   UNL     1      40.505 -23.240 -34.886  0.00  0.00    -0.105 OA
ATOM     29  O   UNL     1      39.319 -21.270 -35.768  0.00  0.00    -0.105 OA
ATOM     30  O   UNL     1      40.572 -21.112 -33.665  0.00  0.00    -0.012 OA
ENDBRANCH  26  27
ENDBRANCH  25  26
ENDBRANCH  19  20
ENDBRANCH   9  18
TORSDOF 4
ENDMDL
MODEL 12
REMARK VINA RESULT:    -7.530     19.344     21.678
REMARK INTER + INTRA:          -9.075
REMARK INTER:                  -8.110
REMARK INTRA:                  -0.965
REMARK UNBOUND:                 0.216
REMARK  Name = cpd118.pdb
REMARK  6 active torsions:
REMARK  status: ('A' for Active; 'I' for Inactive)
REMARK    1  A    between atoms: C_1  and  C_2
REMARK    2  A    between atoms: C_6  and  C_7
REMARK    3  A    between atoms: C_9  and  N_10
REMARK    4  A    between atoms: C_11  and  C_12
REMARK    5  A    between atoms: C_17  and  O_18
REMARK    6  A    between atoms: O_18  and  S_19
REMARK                            x       y       z     vdW  Elec       q    Type
REMARK                         _______ _______ _______ _____ _____    ______ ____
ROOT
ATOM      1  C   UNL     1      34.209 -32.028 -30.069  0.00  0.00    -0.046 C 
ATOM      2  C   UNL     1      34.154 -33.308 -29.295  0.00  0.00    -0.085 C 
ATOM      3  C   UNL     1      34.237 -34.588 -29.721  0.00  0.00    -0.035 C 
ATOM      4  C   UNL     1      34.556 -35.670 -28.702  0.00  0.00    +0.006 C 
ATOM      5  C   UNL     1      35.950 -36.228 -28.978  0.00  0.00    -0.077 C 
ATOM      6  C   UNL     1      36.605 -36.025 -30.143  0.00  0.00    -0.073 C 
ATOM      7  C   UNL     1      37.997 -36.516 -30.393  0.00  0.00    -0.044 C 
ATOM      8  C   UNL     1      35.930 -35.271 -31.296  0.00  0.00    +0.001 C 
ATOM      9  C   UNL     1      34.369 -35.163 -31.132  0.00  0.00    +0.113 C 
ATOM     10  C   UNL     1      33.817 -36.584 -31.301  0.00  0.00    -0.000 C 
ATOM     11  C   UNL     1      33.845 -37.281 -32.452  0.00  0.00    -0.068 C 
ATOM     12  C   UNL     1      33.330 -38.673 -32.576  0.00  0.00    +0.045 C 
ATOM     13  C   UNL     1      32.491 -39.104 -31.384  0.00  0.00    +0.240 C 
ATOM     14  O   UNL     1      31.697 -40.036 -31.507  0.00  0.00    -0.273 OA
ATOM     15  N   UNL     1      32.707 -38.496 -30.171  0.00  0.00    -0.185 NA
ATOM     16  C   UNL     1      33.304 -37.346 -30.125  0.00  0.00    +0.040 C 
ATOM     17  C   UNL     1      33.480 -36.743 -28.745  0.00  0.00    -0.002 C 
ENDROOT
BRANCH   9  18
ATOM     18  N   UNL     1      33.858 -34.288 -32.194  0.00  0.00    -0.275 NA
ATOM     19  C   UNL     1      32.611 -34.067 -32.453  0.00  0.00    +0.034 C 
BRANCH  19  20
ATOM     20  C   UNL     1      31.401 -34.672 -31.864  0.00  0.00    +0.037 A 
ATOM     21  C   UNL     1      30.885 -35.845 -32.425  0.00  0.00    -0.050 A 
ATOM     22  C   UNL     1      29.736 -36.437 -31.896  0.00  0.00    -0.061 A 
ATOM     23  C   UNL     1      29.069 -35.828 -30.835  0.00  0.00    -0.058 A 
ATOM     24  C   UNL     1      29.532 -34.614 -30.328  0.00  0.00    -0.016 A 
ATOM     25  C   UNL     1      30.676 -34.021 -30.868  0.00  0.00    +0.167 A 
BRANCH  25  26
ATOM     26  O   UNL     1      31.080 -32.807 -30.385  0.00  0.00    -0.323 OA
BRANCH  26  27
ATOM     27  S   UNL     1      30.231 -31.469 -30.820  0.00  0.00    +0.282 S 
ATOM     28  O   UNL     1      29.200 -31.342 -29.791  0.00  0.00    -0.105 OA
ATOM     29  O   UNL     1      29.724 -31.772 -32.158  0.00  0.00    -0.105 OA
ATOM     30  O   UNL     1      31.237 -30.409 -30.790  0.00  0.00    -0.012 OA
ENDBRANCH  26  27
ENDBRANCH  25  26
ENDBRANCH  19  20
ENDBRANCH   9  18
TORSDOF 4
ENDMDL
MODEL 13
REMARK VINA RESULT:    -7.527      3.466      6.576
REMARK INTER + INTRA:          -9.071
REMARK INTER:                  -7.985
REMARK INTRA:                  -1.086
REMARK UNBOUND:                 0.216
REMARK  Name = cpd118.pdb
REMARK  6 active torsions:
REMARK  status: ('A' for Active; 'I' for Inactive)
REMARK    1  A    between atoms: C_1  and  C_2
REMARK    2  A    between atoms: C_6  and  C_7
REMARK    3  A    between atoms: C_9  and  N_10
REMARK    4  A    between atoms: C_11  and  C_12
REMARK    5  A    between atoms: C_17  and  O_18
REMARK    6  A    between atoms: O_18  and  S_19
REMARK                            x       y       z     vdW  Elec       q    Type
REMARK                         _______ _______ _______ _____ _____    ______ ____
ROOT
ATOM      1  C   UNL     1      48.293 -19.061 -34.807  0.00  0.00    -0.046 C 
ATOM      2  C   UNL     1      47.264 -17.975 -34.868  0.00  0.00    -0.085 C 
ATOM      3  C   UNL     1      46.003 -17.995 -35.355  0.00  0.00    -0.035 C 
ATOM      4  C   UNL     1      45.047 -16.892 -34.933  0.00  0.00    +0.006 C 
ATOM      5  C   UNL     1      43.959 -17.482 -34.039  0.00  0.00    -0.077 C 
ATOM      6  C   UNL     1      43.718 -18.809 -33.956  0.00  0.00    -0.073 C 
ATOM      7  C   UNL     1      42.695 -19.396 -33.033  0.00  0.00    -0.044 C 
ATOM      8  C   UNL     1      44.493 -19.800 -34.833  0.00  0.00    +0.001 C 
ATOM      9  C   UNL     1      45.220 -19.111 -36.047  0.00  0.00    +0.113 C 
ATOM     10  C   UNL     1      44.114 -18.629 -36.995  0.00  0.00    -0.000 C 
ATOM     11  C   UNL     1      43.299 -19.441 -37.691  0.00  0.00    -0.068 C 
ATOM     12  C   UNL     1      42.212 -18.942 -38.579  0.00  0.00    +0.045 C 
ATOM     13  C   UNL     1      42.322 -17.453 -38.871  0.00  0.00    +0.240 C 
ATOM     14  O   UNL     1      41.762 -16.987 -39.863  0.00  0.00    -0.273 OA
ATOM     15  N   UNL     1      42.972 -16.650 -37.965  0.00  0.00    -0.185 NA
ATOM     16  C   UNL     1      43.794 -17.176 -37.113  0.00  0.00    +0.040 C 
ATOM     17  C   UNL     1      44.481 -16.209 -36.168  0.00  0.00    -0.002 C 
ENDROOT
BRANCH   9  18
ATOM     18  N   UNL     1      46.055 -20.120 -36.710  0.00  0.00    -0.275 NA
ATOM     19  C   UNL     1      46.693 -19.956 -37.822  0.00  0.00    +0.034 C 
BRANCH  19  20
ATOM     20  C   UNL     1      46.686 -18.814 -38.758  0.00  0.00    +0.037 A 
ATOM     21  C   UNL     1      47.230 -17.593 -38.345  0.00  0.00    -0.050 A 
ATOM     22  C   UNL     1      47.230 -16.492 -39.204  0.00  0.00    -0.061 A 
ATOM     23  C   UNL     1      46.640 -16.595 -40.463  0.00  0.00    -0.058 A 
ATOM     24  C   UNL     1      46.022 -17.785 -40.845  0.00  0.00    -0.016 A 
ATOM     25  C   UNL     1      46.015 -18.881 -39.977  0.00  0.00    +0.167 A 
BRANCH  25  26
ATOM     26  O   UNL     1      45.360 -20.019 -40.359  0.00  0.00    -0.323 OA
BRANCH  26  27
ATOM     27  S   UNL     1      46.001 -20.920 -41.574  0.00  0.00    +0.282 S 
ATOM     28  O   UNL     1      47.433 -20.626 -41.529  0.00  0.00    -0.105 OA
ATOM     29  O   UNL     1      45.319 -20.453 -42.780  0.00  0.00    -0.105 OA
ATOM     30  O   UNL     1      45.661 -22.290 -41.191  0.00  0.00    -0.012 OA
ENDBRANCH  26  27
ENDBRANCH  25  26
ENDBRANCH  19  20
ENDBRANCH   9  18
TORSDOF 4
ENDMDL
MODEL 14
REMARK VINA RESULT:    -7.483      3.009      5.330
REMARK INTER + INTRA:          -9.016
REMARK INTER:                  -8.426
REMARK INTRA:                  -0.590
REMARK UNBOUND:                 0.216
REMARK  Name = cpd118.pdb
REMARK  6 active torsions:
REMARK  status: ('A' for Active; 'I' for Inactive)
REMARK    1  A    between atoms: C_1  and  C_2
REMARK    2  A    between atoms: C_6  and  C_7
REMARK    3  A    between atoms: C_9  and  N_10
REMARK    4  A    between atoms: C_11  and  C_12
REMARK    5  A    between atoms: C_17  and  O_18
REMARK    6  A    between atoms: O_18  and  S_19
REMARK                            x       y       z     vdW  Elec       q    Type
REMARK                         _______ _______ _______ _____ _____    ______ ____
ROOT
ATOM      1  C   UNL     1      44.414 -19.612 -42.533  0.00  0.00    -0.046 C 
ATOM      2  C   UNL     1      44.100 -18.349 -41.795  0.00  0.00    -0.085 C 
ATOM      3  C   UNL     1      44.756 -17.748 -40.777  0.00  0.00    -0.035 C 
ATOM      4  C   UNL     1      44.457 -16.286 -40.486  0.00  0.00    +0.006 C 
ATOM      5  C   UNL     1      45.678 -15.441 -40.840  0.00  0.00    -0.077 C 
ATOM      6  C   UNL     1      46.906 -15.970 -41.035  0.00  0.00    -0.073 C 
ATOM      7  C   UNL     1      48.091 -15.153 -41.445  0.00  0.00    -0.044 C 
ATOM      8  C   UNL     1      47.151 -17.470 -40.829  0.00  0.00    +0.001 C 
ATOM      9  C   UNL     1      46.007 -18.175 -40.008  0.00  0.00    +0.113 C 
ATOM     10  C   UNL     1      46.102 -17.627 -38.578  0.00  0.00    -0.000 C 
ATOM     11  C   UNL     1      47.122 -17.866 -37.736  0.00  0.00    -0.068 C 
ATOM     12  C   UNL     1      47.200 -17.292 -36.364  0.00  0.00    +0.045 C 
ATOM     13  C   UNL     1      45.885 -16.687 -35.898  0.00  0.00    +0.240 C 
ATOM     14  O   UNL     1      45.679 -16.538 -34.693  0.00  0.00    -0.273 OA
ATOM     15  N   UNL     1      44.994 -16.238 -36.843  0.00  0.00    -0.185 NA
ATOM     16  C   UNL     1      45.082 -16.666 -38.064  0.00  0.00    +0.040 C 
ATOM     17  C   UNL     1      44.043 -16.132 -39.031  0.00  0.00    -0.002 C 
ENDROOT
BRANCH   9  18
ATOM     18  N   UNL     1      46.263 -19.620 -40.018  0.00  0.00    -0.275 NA
ATOM     19  C   UNL     1      45.705 -20.488 -39.240  0.00  0.00    +0.034 C 
BRANCH  19  20
ATOM     20  C   UNL     1      44.781 -20.288 -38.106  0.00  0.00    +0.037 A 
ATOM     21  C   UNL     1      45.285 -20.328 -36.802  0.00  0.00    -0.050 A 
ATOM     22  C   UNL     1      44.433 -20.150 -35.710  0.00  0.00    -0.061 A 
ATOM     23  C   UNL     1      43.066 -19.983 -35.916  0.00  0.00    -0.058 A 
ATOM     24  C   UNL     1      42.548 -20.028 -37.210  0.00  0.00    -0.016 A 
ATOM     25  C   UNL     1      43.403 -20.216 -38.300  0.00  0.00    +0.167 A 
BRANCH  25  26
ATOM     26  O   UNL     1      42.863 -20.304 -39.554  0.00  0.00    -0.323 OA
BRANCH  26  27
ATOM     27  S   UNL     1      41.707 -21.438 -39.830  0.00  0.00    +0.282 S 
ATOM     28  O   UNL     1      40.448 -20.749 -39.550  0.00  0.00    -0.105 OA
ATOM     29  O   UNL     1      42.026 -22.525 -38.906  0.00  0.00    -0.105 OA
ATOM     30  O   UNL     1      41.901 -21.778 -41.239  0.00  0.00    -0.012 OA
ENDBRANCH  26  27
ENDBRANCH  25  26
ENDBRANCH  19  20
ENDBRANCH   9  18
TORSDOF 4
ENDMDL
MODEL 15
REMARK VINA RESULT:    -7.413      2.867      5.566
REMARK INTER + INTRA:          -8.931
REMARK INTER:                  -7.801
REMARK INTRA:                  -1.130
REMARK UNBOUND:                 0.216
REMARK  Name = cpd118.pdb
REMARK  6 active torsions:
REMARK  status: ('A' for Active; 'I' for Inactive)
REMARK    1  A    between atoms: C_1  and  C_2
REMARK    2  A    between atoms: C_6  and  C_7
REMARK    3  A    between atoms: C_9  and  N_10
REMARK    4  A    between atoms: C_11  and  C_12
REMARK    5  A    between atoms: C_17  and  O_18
REMARK    6  A    between atoms: O_18  and  S_19
REMARK                            x       y       z     vdW  Elec       q    Type
REMARK                         _______ _______ _______ _____ _____    ______ ____
ROOT
ATOM      1  C   UNL     1      43.906 -14.915 -41.741  0.00  0.00    -0.046 C 
ATOM      2  C   UNL     1      43.761 -15.006 -40.254  0.00  0.00    -0.085 C 
ATOM      3  C   UNL     1      44.558 -15.595 -39.335  0.00  0.00    -0.035 C 
ATOM      4  C   UNL     1      44.397 -15.198 -37.876  0.00  0.00    +0.006 C 
ATOM      5  C   UNL     1      45.634 -14.427 -37.424  0.00  0.00    -0.077 C 
ATOM      6  C   UNL     1      46.795 -14.429 -38.117  0.00  0.00    -0.073 C 
ATOM      7  C   UNL     1      47.990 -13.624 -37.710  0.00  0.00    -0.044 C 
ATOM      8  C   UNL     1      46.950 -15.288 -39.378  0.00  0.00    +0.001 C 
ATOM      9  C   UNL     1      45.845 -16.403 -39.503  0.00  0.00    +0.113 C 
ATOM     10  C   UNL     1      46.122 -17.413 -38.382  0.00  0.00    -0.000 C 
ATOM     11  C   UNL     1      47.202 -18.213 -38.326  0.00  0.00    -0.068 C 
ATOM     12  C   UNL     1      47.459 -19.161 -37.206  0.00  0.00    +0.045 C 
ATOM     13  C   UNL     1      46.245 -19.368 -36.314  0.00  0.00    +0.240 C 
ATOM     14  O   UNL     1      46.172 -20.379 -35.615  0.00  0.00    -0.273 OA
ATOM     15  N   UNL     1      45.299 -18.374 -36.246  0.00  0.00    -0.185 NA
ATOM     16  C   UNL     1      45.232 -17.484 -37.186  0.00  0.00    +0.040 C 
ATOM     17  C   UNL     1      44.144 -16.439 -37.036  0.00  0.00    -0.002 C 
ENDROOT
BRANCH   9  18
ATOM     18  N   UNL     1      45.993 -17.045 -40.815  0.00  0.00    -0.275 NA
ATOM     19  C   UNL     1      45.362 -18.101 -41.212  0.00  0.00    +0.034 C 
BRANCH  19  20
ATOM     20  C   UNL     1      44.441 -18.986 -40.473  0.00  0.00    +0.037 A 
ATOM     21  C   UNL     1      43.194 -18.492 -40.074  0.00  0.00    -0.050 A 
ATOM     22  C   UNL     1      42.305 -19.303 -39.366  0.00  0.00    -0.061 A 
ATOM     23  C   UNL     1      42.680 -20.597 -39.010  0.00  0.00    -0.058 A 
ATOM     24  C   UNL     1      43.954 -21.064 -39.331  0.00  0.00    -0.016 A 
ATOM     25  C   UNL     1      44.845 -20.245 -40.031  0.00  0.00    +0.167 A 
BRANCH  25  26
ATOM     26  O   UNL     1      46.104 -20.711 -40.291  0.00  0.00    -0.323 OA
BRANCH  26  27
ATOM     27  S   UNL     1      46.297 -21.814 -41.493  0.00  0.00    +0.282 S 
ATOM     28  O   UNL     1      45.182 -21.558 -42.403  0.00  0.00    -0.105 OA
ATOM     29  O   UNL     1      46.249 -23.110 -40.817  0.00  0.00    -0.105 OA
ATOM     30  O   UNL     1      47.608 -21.480 -42.047  0.00  0.00    -0.012 OA
ENDBRANCH  26  27
ENDBRANCH  25  26
ENDBRANCH  19  20
ENDBRANCH   9  18
TORSDOF 4
ENDMDL
MODEL 16
REMARK VINA RESULT:    -7.294      2.956      5.880
REMARK INTER + INTRA:          -8.784
REMARK INTER:                  -7.736
REMARK INTRA:                  -1.048
REMARK UNBOUND:                 0.216
REMARK  Name = cpd118.pdb
REMARK  6 active torsions:
REMARK  status: ('A' for Active; 'I' for Inactive)
REMARK    1  A    between atoms: C_1  and  C_2
REMARK    2  A    between atoms: C_6  and  C_7
REMARK    3  A    between atoms: C_9  and  N_10
REMARK    4  A    between atoms: C_11  and  C_12
REMARK    5  A    between atoms: C_17  and  O_18
REMARK    6  A    between atoms: O_18  and  S_19
REMARK                            x       y       z     vdW  Elec       q    Type
REMARK                         _______ _______ _______ _____ _____    ______ ____
ROOT
ATOM      1  C   UNL     1      47.880 -15.210 -38.092  0.00  0.00    -0.046 C 
ATOM      2  C   UNL     1      46.393 -15.209 -37.925  0.00  0.00    -0.085 C 
ATOM      3  C   UNL     1      45.561 -16.194 -37.519  0.00  0.00    -0.035 C 
ATOM      4  C   UNL     1      44.164 -15.815 -37.054  0.00  0.00    +0.006 C 
ATOM      5  C   UNL     1      44.048 -16.061 -35.552  0.00  0.00    -0.077 C 
ATOM      6  C   UNL     1      44.931 -16.816 -34.861  0.00  0.00    -0.073 C 
ATOM      7  C   UNL     1      44.857 -17.007 -33.378  0.00  0.00    -0.044 C 
ATOM      8  C   UNL     1      46.073 -17.541 -35.586  0.00  0.00    +0.001 C 
ATOM      9  C   UNL     1      45.847 -17.647 -37.140  0.00  0.00    +0.113 C 
ATOM     10  C   UNL     1      44.668 -18.608 -37.340  0.00  0.00    -0.000 C 
ATOM     11  C   UNL     1      44.700 -19.923 -37.057  0.00  0.00    -0.068 C 
ATOM     12  C   UNL     1      43.527 -20.824 -37.232  0.00  0.00    +0.045 C 
ATOM     13  C   UNL     1      42.412 -20.195 -38.054  0.00  0.00    +0.240 C 
ATOM     14  O   UNL     1      41.582 -20.918 -38.604  0.00  0.00    -0.273 OA
ATOM     15  N   UNL     1      42.310 -18.825 -38.085  0.00  0.00    -0.185 NA
ATOM     16  C   UNL     1      43.334 -18.096 -37.769  0.00  0.00    +0.040 C 
ATOM     17  C   UNL     1      43.133 -16.595 -37.854  0.00  0.00    -0.002 C 
ENDROOT
BRANCH   9  18
ATOM     18  N   UNL     1      47.066 -18.203 -37.740  0.00  0.00    -0.275 NA
ATOM     19  C   UNL     1      47.192 -18.589 -38.967  0.00  0.00    +0.034 C 
BRANCH  19  20
ATOM     20  C   UNL     1      46.181 -18.682 -40.039  0.00  0.00    +0.037 A 
ATOM     21  C   UNL     1      45.591 -17.510 -40.522  0.00  0.00    -0.050 A 
ATOM     22  C   UNL     1      44.626 -17.567 -41.529  0.00  0.00    -0.061 A 
ATOM     23  C   UNL     1      44.209 -18.802 -42.022  0.00  0.00    -0.058 A 
ATOM     24  C   UNL     1      44.733 -19.976 -41.483  0.00  0.00    -0.016 A 
ATOM     25  C   UNL     1      45.692 -19.915 -40.468  0.00  0.00    +0.167 A 
BRANCH  25  26
ATOM     26  O   UNL     1      46.153 -21.082 -39.925  0.00  0.00    -0.323 OA
BRANCH  26  27
ATOM     27  S   UNL     1      47.163 -22.017 -40.821  0.00  0.00    +0.282 S 
ATOM     28  O   UNL     1      48.103 -22.572 -39.848  0.00  0.00    -0.105 OA
ATOM     29  O   UNL     1      47.759 -21.096 -41.788  0.00  0.00    -0.105 OA
ATOM     30  O   UNL     1      46.266 -23.007 -41.416  0.00  0.00    -0.012 OA
ENDBRANCH  26  27
ENDBRANCH  25  26
ENDBRANCH  19  20
ENDBRANCH   9  18
TORSDOF 4
ENDMDL
MODEL 17
REMARK VINA RESULT:    -7.271      2.727      5.990
REMARK INTER + INTRA:          -8.755
REMARK INTER:                  -7.858
REMARK INTRA:                  -0.898
REMARK UNBOUND:                 0.216
REMARK  Name = cpd118.pdb
REMARK  6 active torsions:
REMARK  status: ('A' for Active; 'I' for Inactive)
REMARK    1  A    between atoms: C_1  and  C_2
REMARK    2  A    between atoms: C_6  and  C_7
REMARK    3  A    between atoms: C_9  and  N_10
REMARK    4  A    between atoms: C_11  and  C_12
REMARK    5  A    between atoms: C_17  and  O_18
REMARK    6  A    between atoms: O_18  and  S_19
REMARK                            x       y       z     vdW  Elec       q    Type
REMARK                         _______ _______ _______ _____ _____    ______ ____
ROOT
ATOM      1  C   UNL     1      41.720 -21.856 -40.688  0.00  0.00    -0.046 C 
ATOM      2  C   UNL     1      41.868 -21.961 -39.202  0.00  0.00    -0.085 C 
ATOM      3  C   UNL     1      41.934 -20.993 -38.262  0.00  0.00    -0.035 C 
ATOM      4  C   UNL     1      41.679 -21.372 -36.813  0.00  0.00    +0.006 C 
ATOM      5  C   UNL     1      40.362 -20.752 -36.352  0.00  0.00    -0.077 C 
ATOM      6  C   UNL     1      39.745 -19.756 -37.027  0.00  0.00    -0.073 C 
ATOM      7  C   UNL     1      38.422 -19.189 -36.614  0.00  0.00    -0.044 C 
ATOM      8  C   UNL     1      40.392 -19.139 -38.272  0.00  0.00    +0.001 C 
ATOM      9  C   UNL     1      41.926 -19.470 -38.398  0.00  0.00    +0.113 C 
ATOM     10  C   UNL     1      42.625 -18.718 -37.258  0.00  0.00    -0.000 C 
ATOM     11  C   UNL     1      42.720 -17.379 -37.173  0.00  0.00    -0.068 C 
ATOM     12  C   UNL     1      43.377 -16.678 -36.035  0.00  0.00    +0.045 C 
ATOM     13  C   UNL     1      44.200 -17.610 -35.159  0.00  0.00    +0.240 C 
ATOM     14  O   UNL     1      45.089 -17.145 -34.446  0.00  0.00    -0.273 OA
ATOM     15  N   UNL     1      43.868 -18.943 -35.120  0.00  0.00    -0.185 NA
ATOM     16  C   UNL     1      43.157 -19.457 -36.075  0.00  0.00    +0.040 C 
ATOM     17  C   UNL     1      42.859 -20.939 -35.957  0.00  0.00    -0.002 C 
ENDROOT
BRANCH   9  18
ATOM     18  N   UNL     1      42.394 -18.973 -39.698  0.00  0.00    -0.275 NA
ATOM     19  C   UNL     1      43.627 -18.917 -40.082  0.00  0.00    +0.034 C 
BRANCH  19  20
ATOM     20  C   UNL     1      44.866 -19.217 -39.338  0.00  0.00    +0.037 A 
ATOM     21  C   UNL     1      45.512 -18.186 -38.648  0.00  0.00    -0.050 A 
ATOM     22  C   UNL     1      46.690 -18.437 -37.942  0.00  0.00    -0.061 A 
ATOM     23  C   UNL     1      47.254 -19.711 -37.964  0.00  0.00    -0.058 A 
ATOM     24  C   UNL     1      46.659 -20.720 -38.720  0.00  0.00    -0.016 A 
ATOM     25  C   UNL     1      45.485 -20.462 -39.434  0.00  0.00    +0.167 A 
BRANCH  25  26
ATOM     26  O   UNL     1      44.949 -21.457 -40.204  0.00  0.00    -0.323 OA
BRANCH  26  27
ATOM     27  S   UNL     1      45.723 -21.874 -41.592  0.00  0.00    +0.282 S 
ATOM     28  O   UNL     1      46.385 -23.138 -41.273  0.00  0.00    -0.105 OA
ATOM     29  O   UNL     1      46.631 -20.759 -41.859  0.00  0.00    -0.105 OA
ATOM     30  O   UNL     1      44.633 -21.999 -42.559  0.00  0.00    -0.012 OA
ENDBRANCH  26  27
ENDBRANCH  25  26
ENDBRANCH  19  20
ENDBRANCH   9  18
TORSDOF 4
ENDMDL
MODEL 18
REMARK VINA RESULT:    -7.229      3.502      6.131
REMARK INTER + INTRA:          -8.704
REMARK INTER:                  -7.653
REMARK INTRA:                  -1.051
REMARK UNBOUND:                 0.216
REMARK  Name = cpd118.pdb
REMARK  6 active torsions:
REMARK  status: ('A' for Active; 'I' for Inactive)
REMARK    1  A    between atoms: C_1  and  C_2
REMARK    2  A    between atoms: C_6  and  C_7
REMARK    3  A    between atoms: C_9  and  N_10
REMARK    4  A    between atoms: C_11  and  C_12
REMARK    5  A    between atoms: C_17  and  O_18
REMARK    6  A    between atoms: O_18  and  S_19
REMARK                            x       y       z     vdW  Elec       q    Type
REMARK                         _______ _______ _______ _____ _____    ______ ____
ROOT
ATOM      1  C   UNL     1      46.900 -18.535 -40.380  0.00  0.00    -0.046 C 
ATOM      2  C   UNL     1      46.585 -17.604 -39.252  0.00  0.00    -0.085 C 
ATOM      3  C   UNL     1      46.099 -17.863 -38.017  0.00  0.00    -0.035 C 
ATOM      4  C   UNL     1      46.251 -16.801 -36.941  0.00  0.00    +0.006 C 
ATOM      5  C   UNL     1      47.241 -17.289 -35.886  0.00  0.00    -0.077 C 
ATOM      6  C   UNL     1      47.617 -18.583 -35.776  0.00  0.00    -0.073 C 
ATOM      7  C   UNL     1      48.635 -19.054 -34.785  0.00  0.00    -0.044 C 
ATOM      8  C   UNL     1      46.995 -19.657 -36.677  0.00  0.00    +0.001 C 
ATOM      9  C   UNL     1      45.666 -19.181 -37.374  0.00  0.00    +0.113 C 
ATOM     10  C   UNL     1      44.620 -19.040 -36.260  0.00  0.00    -0.000 C 
ATOM     11  C   UNL     1      44.114 -20.068 -35.554  0.00  0.00    -0.068 C 
ATOM     12  C   UNL     1      43.124 -19.894 -34.455  0.00  0.00    +0.045 C 
ATOM     13  C   UNL     1      42.507 -18.504 -34.427  0.00  0.00    +0.240 C 
ATOM     14  O   UNL     1      41.428 -18.331 -33.859  0.00  0.00    -0.273 OA
ATOM     15  N   UNL     1      43.217 -17.456 -34.961  0.00  0.00    -0.185 NA
ATOM     16  C   UNL     1      44.176 -17.691 -35.801  0.00  0.00    +0.040 C 
ATOM     17  C   UNL     1      44.888 -16.472 -36.354  0.00  0.00    -0.002 C 
ENDROOT
BRANCH   9  18
ATOM     18  N   UNL     1      45.256 -20.218 -38.328  0.00  0.00    -0.275 NA
ATOM     19  C   UNL     1      44.189 -20.191 -39.058  0.00  0.00    +0.034 C 
BRANCH  19  20
ATOM     20  C   UNL     1      43.076 -19.221 -39.071  0.00  0.00    +0.037 A 
ATOM     21  C   UNL     1      43.272 -17.969 -39.662  0.00  0.00    -0.050 A 
ATOM     22  C   UNL     1      42.241 -17.028 -39.683  0.00  0.00    -0.061 A 
ATOM     23  C   UNL     1      41.025 -17.317 -39.066  0.00  0.00    -0.058 A 
ATOM     24  C   UNL     1      40.856 -18.531 -38.402  0.00  0.00    -0.016 A 
ATOM     25  C   UNL     1      41.894 -19.466 -38.375  0.00  0.00    +0.167 A 
BRANCH  25  26
ATOM     26  O   UNL     1      41.717 -20.628 -37.676  0.00  0.00    -0.323 OA
BRANCH  26  27
ATOM     27  S   UNL     1      40.791 -21.809 -38.343  0.00  0.00    +0.282 S 
ATOM     28  O   UNL     1      39.427 -21.476 -37.934  0.00  0.00    -0.105 OA
ATOM     29  O   UNL     1      41.311 -23.052 -37.775  0.00  0.00    -0.105 OA
ATOM     30  O   UNL     1      41.037 -21.660 -39.776  0.00  0.00    -0.012 OA
ENDBRANCH  26  27
ENDBRANCH  25  26
ENDBRANCH  19  20
ENDBRANCH   9  18
TORSDOF 4
ENDMDL
MODEL 19
REMARK VINA RESULT:    -6.758     19.970     22.075
REMARK INTER + INTRA:          -8.123
REMARK INTER:                  -7.034
REMARK INTRA:                  -1.089
REMARK UNBOUND:                 0.216
REMARK  Name = cpd118.pdb
REMARK  6 active torsions:
REMARK  status: ('A' for Active; 'I' for Inactive)
REMARK    1  A    between atoms: C_1  and  C_2
REMARK    2  A    between atoms: C_6  and  C_7
REMARK    3  A    between atoms: C_9  and  N_10
REMARK    4  A    between atoms: C_11  and  C_12
REMARK    5  A    between atoms: C_17  and  O_18
REMARK    6  A    between atoms: O_18  and  S_19
REMARK                            x       y       z     vdW  Elec       q    Type
REMARK                         _______ _______ _______ _____ _____    ______ ____
ROOT
ATOM      1  C   UNL     1      34.237 -36.974 -26.465  0.00  0.00    -0.046 C 
ATOM      2  C   UNL     1      34.277 -37.848 -27.679  0.00  0.00    -0.085 C 
ATOM      3  C   UNL     1      34.448 -37.526 -28.981  0.00  0.00    -0.035 C 
ATOM      4  C   UNL     1      34.848 -38.625 -29.952  0.00  0.00    +0.006 C 
ATOM      5  C   UNL     1      36.276 -38.379 -30.431  0.00  0.00    -0.077 C 
ATOM      6  C   UNL     1      36.909 -37.195 -30.277  0.00  0.00    -0.073 C 
ATOM      7  C   UNL     1      38.331 -36.970 -30.688  0.00  0.00    -0.044 C 
ATOM      8  C   UNL     1      36.177 -35.992 -29.668  0.00  0.00    +0.001 C 
ATOM      9  C   UNL     1      34.613 -36.164 -29.656  0.00  0.00    +0.113 C 
ATOM     10  C   UNL     1      34.162 -36.115 -31.122  0.00  0.00    -0.000 C 
ATOM     11  C   UNL     1      34.233 -35.024 -31.906  0.00  0.00    -0.068 C 
ATOM     12  C   UNL     1      33.818 -35.017 -33.336  0.00  0.00    +0.045 C 
ATOM     13  C   UNL     1      33.017 -36.250 -33.727  0.00  0.00    +0.240 C 
ATOM     14  O   UNL     1      32.290 -36.211 -34.720  0.00  0.00    -0.273 OA
ATOM     15  N   UNL     1      33.196 -37.408 -33.009  0.00  0.00    -0.185 NA
ATOM     16  C   UNL     1      33.710 -37.355 -31.820  0.00  0.00    +0.040 C 
ATOM     17  C   UNL     1      33.850 -38.680 -31.097  0.00  0.00    -0.002 C 
ENDROOT
BRANCH   9  18
ATOM     18  N   UNL     1      34.036 -35.040 -28.909  0.00  0.00    -0.275 NA
ATOM     19  C   UNL     1      32.776 -34.773 -28.805  0.00  0.00    +0.034 C 
BRANCH  19  20
ATOM     20  C   UNL     1      31.615 -35.413 -29.454  0.00  0.00    +0.037 A 
ATOM     21  C   UNL     1      31.252 -36.709 -29.074  0.00  0.00    -0.050 A 
ATOM     22  C   UNL     1      30.164 -37.344 -29.677  0.00  0.00    -0.061 A 
ATOM     23  C   UNL     1      29.467 -36.705 -30.699  0.00  0.00    -0.058 A 
ATOM     24  C   UNL     1      29.879 -35.448 -31.140  0.00  0.00    -0.016 A 
ATOM     25  C   UNL     1      30.975 -34.820 -30.540  0.00  0.00    +0.167 A 
BRANCH  25  26
ATOM     26  O   UNL     1      31.387 -33.609 -31.024  0.00  0.00    -0.323 OA
BRANCH  26  27
ATOM     27  S   UNL     1      30.642 -32.252 -30.473  0.00  0.00    +0.282 S 
ATOM     28  O   UNL     1      31.705 -31.499 -29.808  0.00  0.00    -0.105 OA
ATOM     29  O   UNL     1      29.592 -32.742 -29.582  0.00  0.00    -0.105 OA
ATOM     30  O   UNL     1      30.141 -31.624 -31.695  0.00  0.00    -0.012 OA
ENDBRANCH  26  27
ENDBRANCH  25  26
ENDBRANCH  19  20
ENDBRANCH   9  18
TORSDOF 4
ENDMDL
MODEL 20
REMARK VINA RESULT:    -6.722      3.633      6.755
REMARK INTER + INTRA:          -8.079
REMARK INTER:                  -7.124
REMARK INTRA:                  -0.954
REMARK UNBOUND:                 0.216
REMARK  Name = cpd118.pdb
REMARK  6 active torsions:
REMARK  status: ('A' for Active; 'I' for Inactive)
REMARK    1  A    between atoms: C_1  and  C_2
REMARK    2  A    between atoms: C_6  and  C_7
REMARK    3  A    between atoms: C_9  and  N_10
REMARK    4  A    between atoms: C_11  and  C_12
REMARK    5  A    between atoms: C_17  and  O_18
REMARK    6  A    between atoms: O_18  and  S_19
REMARK                            x       y       z     vdW  Elec       q    Type
REMARK                         _______ _______ _______ _____ _____    ______ ____
ROOT
ATOM      1  C   UNL     1      41.461 -21.404 -38.753  0.00  0.00    -0.046 C 
ATOM      2  C   UNL     1      41.586 -21.660 -37.284  0.00  0.00    -0.085 C 
ATOM      3  C   UNL     1      41.536 -20.801 -36.242  0.00  0.00    -0.035 C 
ATOM      4  C   UNL     1      41.286 -21.362 -34.852  0.00  0.00    +0.006 C 
ATOM      5  C   UNL     1      39.906 -20.923 -34.370  0.00  0.00    -0.077 C 
ATOM      6  C   UNL     1      39.210 -19.920 -34.952  0.00  0.00    -0.073 C 
ATOM      7  C   UNL     1      37.830 -19.529 -34.524  0.00  0.00    -0.044 C 
ATOM      8  C   UNL     1      39.823 -19.110 -36.101  0.00  0.00    +0.001 C 
ATOM      9  C   UNL     1      41.384 -19.280 -36.212  0.00  0.00    +0.113 C 
ATOM     10  C   UNL     1      41.981 -18.598 -34.974  0.00  0.00    -0.000 C 
ATOM     11  C   UNL     1      41.945 -17.274 -34.740  0.00  0.00    -0.068 C 
ATOM     12  C   UNL     1      42.505 -16.646 -33.512  0.00  0.00    +0.045 C 
ATOM     13  C   UNL     1      43.395 -17.589 -32.716  0.00  0.00    +0.240 C 
ATOM     14  O   UNL     1      44.218 -17.124 -31.927  0.00  0.00    -0.273 OA
ATOM     15  N   UNL     1      43.192 -18.942 -32.834  0.00  0.00    -0.185 NA
ATOM     16  C   UNL     1      42.556 -19.411 -33.862  0.00  0.00    +0.040 C 
ATOM     17  C   UNL     1      42.399 -20.918 -33.916  0.00  0.00    -0.002 C 
ENDROOT
BRANCH   9  18
ATOM     18  N   UNL     1      41.831 -18.599 -37.433  0.00  0.00    -0.275 NA
ATOM     19  C   UNL     1      43.061 -18.441 -37.799  0.00  0.00    +0.034 C 
BRANCH  19  20
ATOM     20  C   UNL     1      44.310 -18.780 -37.091  0.00  0.00    +0.037 A 
ATOM     21  C   UNL     1      44.865 -17.849 -36.206  0.00  0.00    -0.050 A 
ATOM     22  C   UNL     1      46.051 -18.138 -35.528  0.00  0.00    -0.061 A 
ATOM     23  C   UNL     1      46.715 -19.339 -35.772  0.00  0.00    -0.058 A 
ATOM     24  C   UNL     1      46.210 -20.231 -36.717  0.00  0.00    -0.016 A 
ATOM     25  C   UNL     1      45.028 -19.933 -37.401  0.00  0.00    +0.167 A 
BRANCH  25  26
ATOM     26  O   UNL     1      44.582 -20.804 -38.357  0.00  0.00    -0.323 OA
BRANCH  26  27
ATOM     27  S   UNL     1      45.362 -20.846 -39.802  0.00  0.00    +0.282 S 
ATOM     28  O   UNL     1      46.224 -22.024 -39.716  0.00  0.00    -0.105 OA
ATOM     29  O   UNL     1      46.075 -19.571 -39.875  0.00  0.00    -0.105 OA
ATOM     30  O   UNL     1      44.271 -20.975 -40.768  0.00  0.00    -0.012 OA
ENDBRANCH  26  27
ENDBRANCH  25  26
ENDBRANCH  19  20
ENDBRANCH   9  18
TORSDOF 4
ENDMDL
