REMARK  Name = cpd118.pdb
REMARK  6 active torsions:
REMARK  status: ('A' for Active; 'I' for Inactive)
REMARK    1  A    between atoms: C_1  and  C_2
REMARK    2  A    between atoms: C_6  and  C_7
REMARK    3  A    between atoms: C_9  and  N_10
REMARK    4  A    between atoms: C_11  and  C_12
REMARK    5  A    between atoms: C_17  and  O_18
REMARK    6  A    between atoms: O_18  and  S_19
REMARK                            x       y       z     vdW  Elec       q    Type
REMARK                         _______ _______ _______ _____ _____    ______ ____
ROOT
ATOM      1  C   UNL     1      -1.131  -2.228  -1.717  0.00  0.00    -0.046 C 
ATOM      2  C   UNL     1       0.335  -2.302  -1.425  0.00  0.00    -0.085 C 
ATOM      3  C   UNL     1       1.041  -1.820  -0.378  0.00  0.00    -0.035 C 
ATOM      4  C   UNL     1       2.433  -2.376  -0.126  0.00  0.00    +0.006 C 
ATOM      5  C   UNL     1       2.424  -3.195   1.162  0.00  0.00    -0.077 C 
ATOM      6  C   UNL     1       1.429  -3.118   2.074  0.00  0.00    -0.073 C 
ATOM      7  C   UNL     1       1.385  -3.966   3.307  0.00  0.00    -0.044 C 
ATOM      8  C   UNL     1       0.275  -2.125   1.888  0.00  0.00    +0.001 C 
ATOM      9  C   UNL     1       0.593  -1.001   0.833  0.00  0.00    +0.113 C 
ATOM     10  C   UNL     1       1.686  -0.122   1.455  0.00  0.00    -0.000 C 
ATOM     11  C   UNL     1       1.511   0.665   2.532  0.00  0.00    -0.068 C 
ATOM     12  C   UNL     1       2.602   1.482   3.132  0.00  0.00    +0.045 C 
ATOM     13  C   UNL     1       3.824   1.592   2.233  0.00  0.00    +0.240 C 
ATOM     14  O   UNL     1       4.617   2.519   2.399  0.00  0.00    -0.273 OA
ATOM     15  N   UNL     1       4.058   0.598   1.314  0.00  0.00    -0.185 NA
ATOM     16  C   UNL     1       3.089  -0.182   0.949  0.00  0.00    +0.040 C 
ATOM     17  C   UNL     1       3.437  -1.235  -0.085  0.00  0.00    -0.002 C 
ENDROOT
BRANCH   9  18
ATOM     18  N   UNL     1      -0.630  -0.218   0.619  0.00  0.00    -0.275 NA
ATOM     19  C   UNL     1      -0.753   0.778  -0.196  0.00  0.00    +0.034 C 
BRANCH  19  20
ATOM     20  C   UNL     1       0.264   1.454  -1.025  0.00  0.00    +0.037 A 
ATOM     21  C   UNL     1       1.142   2.360  -0.421  0.00  0.00    -0.050 A 
ATOM     22  C   UNL     1       2.109   3.021  -1.181  0.00  0.00    -0.061 A 
ATOM     23  C   UNL     1       2.168   2.817  -2.558  0.00  0.00    -0.058 A 
ATOM     24  C   UNL     1       1.240   1.980  -3.176  0.00  0.00    -0.016 A 
ATOM     25  C   UNL     1       0.267   1.328  -2.413  0.00  0.00    +0.167 A 
BRANCH  25  26
ATOM     26  O   UNL     1      -0.660   0.551  -3.051  0.00  0.00    -0.323 OA
BRANCH  26  27
ATOM     27  S   UNL     1      -1.957   1.287  -3.740  0.00  0.00    +0.282 S 
ATOM     28  O   UNL     1      -1.407   1.974  -4.908  0.00  0.00    -0.105 OA
ATOM     29  O   UNL     1      -2.476   2.173  -2.699  0.00  0.00    -0.105 OA
ATOM     30  O   UNL     1      -2.842   0.170  -4.067  0.00  0.00    -0.012 OA
ENDBRANCH  26  27
ENDBRANCH  25  26
ENDBRANCH  19  20
ENDBRANCH   9  18
TORSDOF 4
