MODEL 1
REMARK VINA RESULT:    -7.472      0.000      0.000
REMARK INTER + INTRA:         -19.942
REMARK INTER:                 -14.898
REMARK INTRA:                  -5.044
REMARK UNBOUND:                -5.044
REMARK  Name = cpd183.pdb
REMARK  19 active torsions:
REMARK  status: ('A' for Active; 'I' for Inactive)
REMARK    1  A    between atoms: C_1  and  C_2
REMARK    2  A    between atoms: C_6  and  N_7
REMARK    3  A    between atoms: N_7  and  C_8
REMARK    4  A    between atoms: C_13  and  C_14
REMARK    5  A    between atoms: N_16  and  C_17
REMARK    6  A    between atoms: C_17  and  C_18
REMARK    7  A    between atoms: C_18  and  C_19
REMARK    8  A    between atoms: C_19  and  C_20
REMARK    9  A    between atoms: C_20  and  C_21
REMARK   10  A    between atoms: C_21  and  C_22
REMARK   11  A    between atoms: N_24  and  C_25
REMARK   12  A    between atoms: C_25  and  C_26
REMARK   13  A    between atoms: C_26  and  C_27
REMARK   14  A    between atoms: C_27  and  C_28
REMARK   15  A    between atoms: C_28  and  C_29
REMARK   16  A    between atoms: C_29  and  C_30
REMARK   17  A    between atoms: C_30  and  N_31
REMARK   18  A    between atoms: N_31  and  C_32
REMARK   19  A    between atoms: C_46  and  C_47
REMARK                            x       y       z     vdW  Elec       q    Type
REMARK                         _______ _______ _______ _____ _____    ______ ____
ROOT
ATOM      1  C   UNL A   1      41.768 -16.776 -34.276  0.00  0.00    +0.213 C 
ATOM      2  O   UNL A   1      41.290 -16.268 -35.286  0.00  0.00    -0.276 OA
ATOM      3  N   UNL A   1      43.119 -16.980 -34.085  0.00  0.00    -0.315 N 
ATOM      4  H   UNL A   1      43.429 -17.524 -33.326  0.00  0.00    +0.000 HD
ENDROOT
BRANCH   1   5
ATOM      5  C   UNL A   1      40.911 -17.160 -33.090  0.00  0.00    +0.024 C 
BRANCH   5   6
ATOM      6  C   UNL A   1      40.535 -18.636 -33.186  0.00  0.00    -0.045 C 
BRANCH   6   7
ATOM      7  C   UNL A   1      41.634 -19.584 -32.706  0.00  0.00    -0.051 C 
BRANCH   7   8
ATOM      8  C   UNL A   1      41.473 -21.014 -33.227  0.00  0.00    -0.037 C 
BRANCH   8   9
ATOM      9  C   UNL A   1      40.698 -21.902 -32.251  0.00  0.00    +0.012 C 
BRANCH   9  12
ATOM     10  C   UNL A   1      39.219 -22.961 -34.007  0.00  0.00    +0.246 C 
ATOM     11  O   UNL A   1      39.139 -23.904 -34.786  0.00  0.00    -0.270 OA
ATOM     12  N   UNL A   1      40.062 -23.030 -32.921  0.00  0.00    -0.311 N 
ATOM     13  H   UNL A   1      40.253 -23.926 -32.562  0.00  0.00    +0.000 HD
BRANCH  10  19
ATOM     14  C   UNL A   1      38.443 -21.029 -35.439  0.00  0.00    +0.044 A 
ATOM     15  C   UNL A   1      37.623 -19.895 -35.546  0.00  0.00    -0.040 A 
ATOM     16  C   UNL A   1      36.841 -19.458 -34.472  0.00  0.00    -0.060 A 
ATOM     17  C   UNL A   1      36.858 -20.149 -33.264  0.00  0.00    -0.061 A 
ATOM     18  C   UNL A   1      37.643 -21.293 -33.136  0.00  0.00    -0.048 A 
ATOM     19  C   UNL A   1      38.405 -21.745 -34.223  0.00  0.00    +0.058 A 
BRANCH  14  20
ATOM     20  N   UNL A   1      39.238 -21.456 -36.527  0.00  0.00    -0.314 N 
ATOM     21  H   UNL A   1      38.925 -22.280 -36.966  0.00  0.00    +0.000 HD
BRANCH  20  27
ATOM     22  C   UNL A   1      42.878 -21.589 -39.955  0.00  0.00    -0.039 C 
ATOM     23  C   UNL A   1      42.200 -20.974 -38.760  0.00  0.00    -0.046 A 
ATOM     24  C   UNL A   1      42.782 -19.846 -38.167  0.00  0.00    -0.058 A 
ATOM     25  C   UNL A   1      42.201 -19.249 -37.053  0.00  0.00    -0.060 A 
ATOM     26  C   UNL A   1      41.028 -19.774 -36.515  0.00  0.00    -0.040 A 
ATOM     27  C   UNL A   1      40.410 -20.894 -37.088  0.00  0.00    +0.035 A 
ATOM     28  C   UNL A   1      40.988 -21.490 -38.237  0.00  0.00    -0.026 A 
ATOM     29  C   UNL A   1      40.337 -22.699 -38.866  0.00  0.00    -0.038 C 
ENDBRANCH  20  27
ENDBRANCH  14  20
ENDBRANCH  10  19
ENDBRANCH   9  12
ENDBRANCH   8   9
ENDBRANCH   7   8
ENDBRANCH   6   7
ENDBRANCH   5   6
ENDBRANCH   1   5
BRANCH   3  30
ATOM     30  C   UNL A   1      44.085 -16.396 -34.996  0.00  0.00    +0.012 C 
BRANCH  30  31
ATOM     31  C   UNL A   1      45.202 -17.399 -35.290  0.00  0.00    -0.037 C 
BRANCH  31  32
ATOM     32  C   UNL A   1      44.908 -18.825 -34.823  0.00  0.00    -0.052 C 
BRANCH  32  33
ATOM     33  C   UNL A   1      46.149 -19.721 -34.875  0.00  0.00    -0.052 C 
BRANCH  33  34
ATOM     34  C   UNL A   1      47.021 -19.417 -36.094  0.00  0.00    -0.037 C 
BRANCH  34  35
ATOM     35  C   UNL A   1      46.672 -20.338 -37.265  0.00  0.00    +0.009 C 
BRANCH  35  36
ATOM     36  N   UNL A   1      47.444 -19.928 -38.446  0.00  0.00    -0.343 N 
ATOM     37  H   UNL A   1      48.370 -19.594 -38.412  0.00  0.00    +0.000 HD
BRANCH  36  38
ATOM     38  C   UNL A   1      46.689 -20.074 -39.649  0.00  0.00    +0.041 A 
ATOM     39  C   UNL A   1      45.848 -19.029 -40.090  0.00  0.00    -0.005 A 
ATOM     40  C   UNL A   1      45.177 -19.208 -41.302  0.00  0.00    +0.047 A 
ATOM     41  N   UNL A   1      45.343 -20.296 -42.091  0.00  0.00    -0.251 NA
ATOM     42  C   UNL A   1      46.155 -21.280 -41.679  0.00  0.00    +0.073 A 
ATOM     43  C   UNL A   1      46.304 -22.392 -42.499  0.00  0.00    -0.036 A 
ATOM     44  C   UNL A   1      47.116 -23.472 -42.142  0.00  0.00    -0.060 A 
ATOM     45  C   UNL A   1      47.788 -23.450 -40.930  0.00  0.00    -0.061 A 
ATOM     46  C   UNL A   1      47.652 -22.344 -40.094  0.00  0.00    -0.051 A 
ATOM     47  C   UNL A   1      46.853 -21.233 -40.458  0.00  0.00    +0.021 A 
ATOM     48  C   UNL A   1      44.252 -18.157 -41.860  0.00  0.00    -0.010 C 
ATOM     49  C   UNL A   1      43.742 -17.184 -40.804  0.00  0.00    -0.047 C 
ATOM     50  C   UNL A   1      44.913 -16.653 -39.993  0.00  0.00    -0.049 C 
ATOM     51  C   UNL A   1      45.615 -17.792 -39.255  0.00  0.00    -0.024 C 
ENDBRANCH  36  38
ENDBRANCH  35  36
ENDBRANCH  34  35
ENDBRANCH  33  34
ENDBRANCH  32  33
ENDBRANCH  31  32
ENDBRANCH  30  31
ENDBRANCH   3  30
TORSDOF 17
ENDMDL
MODEL 2
REMARK VINA RESULT:    -7.156      2.144      8.273
REMARK INTER + INTRA:         -19.311
REMARK INTER:                 -12.021
REMARK INTRA:                  -7.290
REMARK UNBOUND:                -5.044
REMARK  Name = cpd183.pdb
REMARK  19 active torsions:
REMARK  status: ('A' for Active; 'I' for Inactive)
REMARK    1  A    between atoms: C_1  and  C_2
REMARK    2  A    between atoms: C_6  and  N_7
REMARK    3  A    between atoms: N_7  and  C_8
REMARK    4  A    between atoms: C_13  and  C_14
REMARK    5  A    between atoms: N_16  and  C_17
REMARK    6  A    between atoms: C_17  and  C_18
REMARK    7  A    between atoms: C_18  and  C_19
REMARK    8  A    between atoms: C_19  and  C_20
REMARK    9  A    between atoms: C_20  and  C_21
REMARK   10  A    between atoms: C_21  and  C_22
REMARK   11  A    between atoms: N_24  and  C_25
REMARK   12  A    between atoms: C_25  and  C_26
REMARK   13  A    between atoms: C_26  and  C_27
REMARK   14  A    between atoms: C_27  and  C_28
REMARK   15  A    between atoms: C_28  and  C_29
REMARK   16  A    between atoms: C_29  and  C_30
REMARK   17  A    between atoms: C_30  and  N_31
REMARK   18  A    between atoms: N_31  and  C_32
REMARK   19  A    between atoms: C_46  and  C_47
REMARK                            x       y       z     vdW  Elec       q    Type
REMARK                         _______ _______ _______ _____ _____    ______ ____
ROOT
ATOM      1  C   UNL A   1      43.354 -20.007 -35.276  0.00  0.00    +0.213 C 
ATOM      2  O   UNL A   1      44.143 -20.322 -34.392  0.00  0.00    -0.276 OA
ATOM      3  N   UNL A   1      42.103 -19.476 -35.035  0.00  0.00    -0.315 N 
ATOM      4  H   UNL A   1      41.460 -19.384 -35.775  0.00  0.00    +0.000 HD
ENDROOT
BRANCH   1   5
ATOM      5  C   UNL A   1      43.714 -20.099 -36.742  0.00  0.00    +0.024 C 
BRANCH   5   6
ATOM      6  C   UNL A   1      42.963 -19.023 -37.523  0.00  0.00    -0.045 C 
BRANCH   6   7
ATOM      7  C   UNL A   1      43.220 -19.065 -39.030  0.00  0.00    -0.051 C 
BRANCH   7   8
ATOM      8  C   UNL A   1      43.029 -17.710 -39.716  0.00  0.00    -0.037 C 
BRANCH   8   9
ATOM      9  C   UNL A   1      43.871 -17.582 -40.988  0.00  0.00    +0.012 C 
BRANCH   9  12
ATOM     10  C   UNL A   1      46.346 -17.257 -40.588  0.00  0.00    +0.246 C 
ATOM     11  O   UNL A   1      47.313 -16.577 -40.911  0.00  0.00    -0.270 OA
ATOM     12  N   UNL A   1      45.069 -16.779 -40.775  0.00  0.00    -0.311 N 
ATOM     13  H   UNL A   1      44.954 -15.801 -40.763  0.00  0.00    +0.000 HD
BRANCH  10  19
ATOM     14  C   UNL A   1      46.877 -18.760 -38.628  0.00  0.00    +0.044 A 
ATOM     15  C   UNL A   1      47.032 -20.073 -38.155  0.00  0.00    -0.040 A 
ATOM     16  C   UNL A   1      46.916 -21.173 -39.011  0.00  0.00    -0.060 A 
ATOM     17  C   UNL A   1      46.638 -20.985 -40.362  0.00  0.00    -0.061 A 
ATOM     18  C   UNL A   1      46.454 -19.695 -40.855  0.00  0.00    -0.048 A 
ATOM     19  C   UNL A   1      46.544 -18.595 -39.989  0.00  0.00    +0.058 A 
BRANCH  14  20
ATOM     20  N   UNL A   1      47.007 -17.654 -37.756  0.00  0.00    -0.314 N 
ATOM     21  H   UNL A   1      47.892 -17.224 -37.768  0.00  0.00    +0.000 HD
BRANCH  20  27
ATOM     22  C   UNL A   1      45.108 -17.219 -33.149  0.00  0.00    -0.039 C 
ATOM     23  C   UNL A   1      45.137 -16.870 -34.613  0.00  0.00    -0.046 A 
ATOM     24  C   UNL A   1      44.176 -15.977 -35.108  0.00  0.00    -0.058 A 
ATOM     25  C   UNL A   1      44.153 -15.633 -36.455  0.00  0.00    -0.060 A 
ATOM     26  C   UNL A   1      45.090 -16.179 -37.328  0.00  0.00    -0.040 A 
ATOM     27  C   UNL A   1      46.073 -17.066 -36.869  0.00  0.00    +0.035 A 
ATOM     28  C   UNL A   1      46.113 -17.400 -35.492  0.00  0.00    -0.026 A 
ATOM     29  C   UNL A   1      47.164 -18.356 -34.980  0.00  0.00    -0.038 C 
ENDBRANCH  20  27
ENDBRANCH  14  20
ENDBRANCH  10  19
ENDBRANCH   9  12
ENDBRANCH   8   9
ENDBRANCH   7   8
ENDBRANCH   6   7
ENDBRANCH   5   6
ENDBRANCH   1   5
BRANCH   3  30
ATOM     30  C   UNL A   1      41.732 -19.052 -33.699  0.00  0.00    +0.012 C 
BRANCH  30  31
ATOM     31  C   UNL A   1      41.269 -17.595 -33.720  0.00  0.00    -0.037 C 
BRANCH  31  32
ATOM     32  C   UNL A   1      40.010 -17.345 -34.552  0.00  0.00    -0.052 C 
BRANCH  32  33
ATOM     33  C   UNL A   1      40.334 -16.854 -35.966  0.00  0.00    -0.052 C 
BRANCH  33  34
ATOM     34  C   UNL A   1      39.476 -17.551 -37.022  0.00  0.00    -0.037 C 
BRANCH  34  35
ATOM     35  C   UNL A   1      38.207 -18.139 -36.402  0.00  0.00    +0.009 C 
BRANCH  35  36
ATOM     36  N   UNL A   1      37.911 -19.428 -37.042  0.00  0.00    -0.343 N 
ATOM     37  H   UNL A   1      37.156 -19.580 -37.654  0.00  0.00    +0.000 HD
BRANCH  36  38
ATOM     38  C   UNL A   1      38.852 -20.434 -36.667  0.00  0.00    +0.041 A 
ATOM     39  C   UNL A   1      38.874 -20.929 -35.345  0.00  0.00    -0.005 A 
ATOM     40  C   UNL A   1      39.780 -21.951 -35.052  0.00  0.00    +0.047 A 
ATOM     41  N   UNL A   1      40.583 -22.521 -35.980  0.00  0.00    -0.251 NA
ATOM     42  C   UNL A   1      40.550 -22.062 -37.239  0.00  0.00    +0.073 A 
ATOM     43  C   UNL A   1      41.390 -22.655 -38.175  0.00  0.00    -0.036 A 
ATOM     44  C   UNL A   1      41.434 -22.229 -39.504  0.00  0.00    -0.060 A 
ATOM     45  C   UNL A   1      40.631 -21.176 -39.913  0.00  0.00    -0.061 A 
ATOM     46  C   UNL A   1      39.782 -20.568 -38.990  0.00  0.00    -0.051 A 
ATOM     47  C   UNL A   1      39.710 -21.009 -37.646  0.00  0.00    +0.021 A 
ATOM     48  C   UNL A   1      39.887 -22.546 -33.671  0.00  0.00    -0.010 C 
ATOM     49  C   UNL A   1      39.333 -21.636 -32.581  0.00  0.00    -0.047 C 
ATOM     50  C   UNL A   1      37.945 -21.156 -32.975  0.00  0.00    -0.049 C 
ATOM     51  C   UNL A   1      38.008 -20.332 -34.260  0.00  0.00    -0.024 C 
ENDBRANCH  36  38
ENDBRANCH  35  36
ENDBRANCH  34  35
ENDBRANCH  33  34
ENDBRANCH  32  33
ENDBRANCH  31  32
ENDBRANCH  30  31
ENDBRANCH   3  30
TORSDOF 17
ENDMDL
MODEL 3
REMARK VINA RESULT:    -7.049     16.352     20.770
REMARK INTER + INTRA:         -19.098
REMARK INTER:                 -14.198
REMARK INTRA:                  -4.900
REMARK UNBOUND:                -5.044
REMARK  Name = cpd183.pdb
REMARK  19 active torsions:
REMARK  status: ('A' for Active; 'I' for Inactive)
REMARK    1  A    between atoms: C_1  and  C_2
REMARK    2  A    between atoms: C_6  and  N_7
REMARK    3  A    between atoms: N_7  and  C_8
REMARK    4  A    between atoms: C_13  and  C_14
REMARK    5  A    between atoms: N_16  and  C_17
REMARK    6  A    between atoms: C_17  and  C_18
REMARK    7  A    between atoms: C_18  and  C_19
REMARK    8  A    between atoms: C_19  and  C_20
REMARK    9  A    between atoms: C_20  and  C_21
REMARK   10  A    between atoms: C_21  and  C_22
REMARK   11  A    between atoms: N_24  and  C_25
REMARK   12  A    between atoms: C_25  and  C_26
REMARK   13  A    between atoms: C_26  and  C_27
REMARK   14  A    between atoms: C_27  and  C_28
REMARK   15  A    between atoms: C_28  and  C_29
REMARK   16  A    between atoms: C_29  and  C_30
REMARK   17  A    between atoms: C_30  and  N_31
REMARK   18  A    between atoms: N_31  and  C_32
REMARK   19  A    between atoms: C_46  and  C_47
REMARK                            x       y       z     vdW  Elec       q    Type
REMARK                         _______ _______ _______ _____ _____    ______ ____
ROOT
ATOM      1  C   UNL A   1      29.402 -37.167 -32.305  0.00  0.00    +0.213 C 
ATOM      2  O   UNL A   1      28.520 -37.824 -32.849  0.00  0.00    -0.276 OA
ATOM      3  N   UNL A   1      29.802 -37.353 -30.998  0.00  0.00    -0.315 N 
ATOM      4  H   UNL A   1      30.404 -36.701 -30.573  0.00  0.00    +0.000 HD
ENDROOT
BRANCH   1   5
ATOM      5  C   UNL A   1      30.202 -36.124 -33.054  0.00  0.00    +0.024 C 
BRANCH   5   6
ATOM      6  C   UNL A   1      31.364 -35.649 -32.185  0.00  0.00    -0.045 C 
BRANCH   6   7
ATOM      7  C   UNL A   1      32.563 -35.140 -32.987  0.00  0.00    -0.051 C 
BRANCH   7   8
ATOM      8  C   UNL A   1      33.803 -36.028 -32.852  0.00  0.00    -0.037 C 
BRANCH   8   9
ATOM      9  C   UNL A   1      33.544 -37.255 -31.975  0.00  0.00    +0.012 C 
BRANCH   9  12
ATOM     10  C   UNL A   1      35.115 -39.086 -31.221  0.00  0.00    +0.246 C 
ATOM     11  O   UNL A   1      35.515 -40.212 -31.494  0.00  0.00    -0.270 OA
ATOM     12  N   UNL A   1      34.533 -38.304 -32.192  0.00  0.00    -0.311 N 
ATOM     13  H   UNL A   1      34.810 -38.469 -33.122  0.00  0.00    +0.000 HD
BRANCH  10  19
ATOM     14  C   UNL A   1      36.281 -37.641 -29.507  0.00  0.00    +0.044 A 
ATOM     15  C   UNL A   1      36.327 -37.190 -28.179  0.00  0.00    -0.040 A 
ATOM     16  C   UNL A   1      35.434 -37.671 -27.216  0.00  0.00    -0.060 A 
ATOM     17  C   UNL A   1      34.469 -38.613 -27.561  0.00  0.00    -0.061 A 
ATOM     18  C   UNL A   1      34.384 -39.060 -28.878  0.00  0.00    -0.048 A 
ATOM     19  C   UNL A   1      35.263 -38.556 -29.848  0.00  0.00    +0.058 A 
BRANCH  14  20
ATOM     20  N   UNL A   1      37.196 -37.156 -30.471  0.00  0.00    -0.314 N 
ATOM     21  H   UNL A   1      36.790 -36.894 -31.327  0.00  0.00    +0.000 HD
BRANCH  20  27
ATOM     22  C   UNL A   1      41.347 -34.851 -32.041  0.00  0.00    -0.039 C 
ATOM     23  C   UNL A   1      40.632 -35.866 -31.190  0.00  0.00    -0.046 A 
ATOM     24  C   UNL A   1      41.393 -36.693 -30.352  0.00  0.00    -0.058 A 
ATOM     25  C   UNL A   1      40.780 -37.654 -29.556  0.00  0.00    -0.060 A 
ATOM     26  C   UNL A   1      39.395 -37.804 -29.589  0.00  0.00    -0.040 A 
ATOM     27  C   UNL A   1      38.600 -36.987 -30.404  0.00  0.00    +0.035 A 
ATOM     28  C   UNL A   1      39.221 -35.991 -31.199  0.00  0.00    -0.026 A 
ATOM     29  C   UNL A   1      38.380 -35.104 -32.086  0.00  0.00    -0.038 C 
ENDBRANCH  20  27
ENDBRANCH  14  20
ENDBRANCH  10  19
ENDBRANCH   9  12
ENDBRANCH   8   9
ENDBRANCH   7   8
ENDBRANCH   6   7
ENDBRANCH   5   6
ENDBRANCH   1   5
BRANCH   3  30
ATOM     30  C   UNL A   1      29.341 -38.505 -30.248  0.00  0.00    +0.012 C 
BRANCH  30  31
ATOM     31  C   UNL A   1      29.832 -38.421 -28.802  0.00  0.00    -0.037 C 
BRANCH  31  32
ATOM     32  C   UNL A   1      31.150 -37.665 -28.627  0.00  0.00    -0.052 C 
BRANCH  32  33
ATOM     33  C   UNL A   1      31.108 -36.689 -27.447  0.00  0.00    -0.052 C 
BRANCH  33  34
ATOM     34  C   UNL A   1      29.839 -35.836 -27.457  0.00  0.00    -0.037 C 
BRANCH  34  35
ATOM     35  C   UNL A   1      29.964 -34.673 -28.442  0.00  0.00    +0.009 C 
BRANCH  35  36
ATOM     36  N   UNL A   1      30.892 -33.674 -27.893  0.00  0.00    -0.343 N 
ATOM     37  H   UNL A   1      31.143 -33.618 -26.943  0.00  0.00    +0.000 HD
BRANCH  36  38
ATOM     38  C   UNL A   1      31.385 -32.796 -28.905  0.00  0.00    +0.041 A 
ATOM     39  C   UNL A   1      32.642 -33.035 -29.500  0.00  0.00    -0.005 A 
ATOM     40  C   UNL A   1      33.047 -32.174 -30.523  0.00  0.00    +0.047 A 
ATOM     41  N   UNL A   1      32.271 -31.173 -31.003  0.00  0.00    -0.251 NA
ATOM     42  C   UNL A   1      31.070 -30.958 -30.448  0.00  0.00    +0.073 A 
ATOM     43  C   UNL A   1      30.294 -29.920 -30.949  0.00  0.00    -0.036 A 
ATOM     44  C   UNL A   1      29.038 -29.612 -30.421  0.00  0.00    -0.060 A 
ATOM     45  C   UNL A   1      28.545 -30.350 -29.356  0.00  0.00    -0.061 A 
ATOM     46  C   UNL A   1      29.308 -31.396 -28.839  0.00  0.00    -0.051 A 
ATOM     47  C   UNL A   1      30.571 -31.732 -29.384  0.00  0.00    +0.021 A 
ATOM     48  C   UNL A   1      34.372 -32.337 -31.222  0.00  0.00    -0.010 C 
ATOM     49  C   UNL A   1      35.383 -33.141 -30.411  0.00  0.00    -0.047 C 
ATOM     50  C   UNL A   1      34.739 -34.431 -29.930  0.00  0.00    -0.049 C 
ATOM     51  C   UNL A   1      33.558 -34.131 -29.008  0.00  0.00    -0.024 C 
ENDBRANCH  36  38
ENDBRANCH  35  36
ENDBRANCH  34  35
ENDBRANCH  33  34
ENDBRANCH  32  33
ENDBRANCH  31  32
ENDBRANCH  30  31
ENDBRANCH   3  30
TORSDOF 17
ENDMDL
MODEL 4
REMARK VINA RESULT:    -6.999      2.080      7.745
REMARK INTER + INTRA:         -18.999
REMARK INTER:                 -13.210
REMARK INTRA:                  -5.789
REMARK UNBOUND:                -5.044
REMARK  Name = cpd183.pdb
REMARK  19 active torsions:
REMARK  status: ('A' for Active; 'I' for Inactive)
REMARK    1  A    between atoms: C_1  and  C_2
REMARK    2  A    between atoms: C_6  and  N_7
REMARK    3  A    between atoms: N_7  and  C_8
REMARK    4  A    between atoms: C_13  and  C_14
REMARK    5  A    between atoms: N_16  and  C_17
REMARK    6  A    between atoms: C_17  and  C_18
REMARK    7  A    between atoms: C_18  and  C_19
REMARK    8  A    between atoms: C_19  and  C_20
REMARK    9  A    between atoms: C_20  and  C_21
REMARK   10  A    between atoms: C_21  and  C_22
REMARK   11  A    between atoms: N_24  and  C_25
REMARK   12  A    between atoms: C_25  and  C_26
REMARK   13  A    between atoms: C_26  and  C_27
REMARK   14  A    between atoms: C_27  and  C_28
REMARK   15  A    between atoms: C_28  and  C_29
REMARK   16  A    between atoms: C_29  and  C_30
REMARK   17  A    between atoms: C_30  and  N_31
REMARK   18  A    between atoms: N_31  and  C_32
REMARK   19  A    between atoms: C_46  and  C_47
REMARK                            x       y       z     vdW  Elec       q    Type
REMARK                         _______ _______ _______ _____ _____    ______ ____
ROOT
ATOM      1  C   UNL A   1      42.078 -19.333 -34.926  0.00  0.00    +0.213 C 
ATOM      2  O   UNL A   1      42.302 -20.176 -34.062  0.00  0.00    -0.276 OA
ATOM      3  N   UNL A   1      41.068 -18.397 -34.840  0.00  0.00    -0.315 N 
ATOM      4  H   UNL A   1      40.842 -17.848 -35.626  0.00  0.00    +0.000 HD
ENDROOT
BRANCH   1   5
ATOM      5  C   UNL A   1      42.953 -19.188 -36.150  0.00  0.00    +0.024 C 
BRANCH   5   6
ATOM      6  C   UNL A   1      44.159 -20.117 -36.032  0.00  0.00    -0.045 C 
BRANCH   6   7
ATOM      7  C   UNL A   1      45.490 -19.381 -35.881  0.00  0.00    -0.051 C 
BRANCH   7   8
ATOM      8  C   UNL A   1      45.327 -17.883 -35.607  0.00  0.00    -0.037 C 
BRANCH   8   9
ATOM      9  C   UNL A   1      46.191 -17.028 -36.538  0.00  0.00    +0.012 C 
BRANCH   9  12
ATOM     10  C   UNL A   1      46.359 -17.769 -38.949  0.00  0.00    +0.246 C 
ATOM     11  O   UNL A   1      47.154 -18.035 -39.842  0.00  0.00    -0.270 OA
ATOM     12  N   UNL A   1      46.758 -17.806 -37.632  0.00  0.00    -0.311 N 
ATOM     13  H   UNL A   1      47.496 -18.417 -37.408  0.00  0.00    +0.000 HD
BRANCH  10  19
ATOM     14  C   UNL A   1      43.988 -18.395 -39.560  0.00  0.00    +0.044 A 
ATOM     15  C   UNL A   1      42.688 -17.952 -39.849  0.00  0.00    -0.040 A 
ATOM     16  C   UNL A   1      42.380 -16.589 -39.912  0.00  0.00    -0.060 A 
ATOM     17  C   UNL A   1      43.368 -15.635 -39.681  0.00  0.00    -0.061 A 
ATOM     18  C   UNL A   1      44.661 -16.045 -39.367  0.00  0.00    -0.048 A 
ATOM     19  C   UNL A   1      44.961 -17.413 -39.278  0.00  0.00    +0.058 A 
BRANCH  14  20
ATOM     20  N   UNL A   1      44.291 -19.775 -39.511  0.00  0.00    -0.314 N 
ATOM     21  H   UNL A   1      44.180 -20.189 -38.625  0.00  0.00    +0.000 HD
BRANCH  20  27
ATOM     22  C   UNL A   1      47.554 -23.194 -41.150  0.00  0.00    -0.039 C 
ATOM     23  C   UNL A   1      46.341 -22.321 -41.330  0.00  0.00    -0.046 A 
ATOM     24  C   UNL A   1      45.666 -22.357 -42.559  0.00  0.00    -0.058 A 
ATOM     25  C   UNL A   1      44.548 -21.561 -42.778  0.00  0.00    -0.060 A 
ATOM     26  C   UNL A   1      44.089 -20.714 -41.772  0.00  0.00    -0.040 A 
ATOM     27  C   UNL A   1      44.729 -20.659 -40.527  0.00  0.00    +0.035 A 
ATOM     28  C   UNL A   1      45.856 -21.487 -40.293  0.00  0.00    -0.026 A 
ATOM     29  C   UNL A   1      46.560 -21.440 -38.957  0.00  0.00    -0.038 C 
ENDBRANCH  20  27
ENDBRANCH  14  20
ENDBRANCH  10  19
ENDBRANCH   9  12
ENDBRANCH   8   9
ENDBRANCH   7   8
ENDBRANCH   6   7
ENDBRANCH   5   6
ENDBRANCH   1   5
BRANCH   3  30
ATOM     30  C   UNL A   1      40.338 -18.216 -33.600  0.00  0.00    +0.012 C 
BRANCH  30  31
ATOM     31  C   UNL A   1      39.651 -16.850 -33.590  0.00  0.00    -0.037 C 
BRANCH  31  32
ATOM     32  C   UNL A   1      38.157 -16.893 -33.917  0.00  0.00    -0.052 C 
BRANCH  32  33
ATOM     33  C   UNL A   1      37.847 -16.306 -35.297  0.00  0.00    -0.052 C 
BRANCH  33  34
ATOM     34  C   UNL A   1      37.152 -17.321 -36.205  0.00  0.00    -0.037 C 
BRANCH  34  35
ATOM     35  C   UNL A   1      38.172 -18.126 -37.014  0.00  0.00    +0.009 C 
BRANCH  35  36
ATOM     36  N   UNL A   1      37.682 -19.503 -37.172  0.00  0.00    -0.343 N 
ATOM     37  H   UNL A   1      36.798 -19.735 -37.536  0.00  0.00    +0.000 HD
BRANCH  36  38
ATOM     38  C   UNL A   1      38.645 -20.461 -36.734  0.00  0.00    +0.041 A 
ATOM     39  C   UNL A   1      38.577 -20.988 -35.426  0.00  0.00    -0.005 A 
ATOM     40  C   UNL A   1      39.514 -21.963 -35.074  0.00  0.00    +0.047 A 
ATOM     41  N   UNL A   1      40.431 -22.460 -35.937  0.00  0.00    -0.251 NA
ATOM     42  C   UNL A   1      40.484 -21.971 -37.183  0.00  0.00    +0.073 A 
ATOM     43  C   UNL A   1      41.439 -22.488 -38.051  0.00  0.00    -0.036 A 
ATOM     44  C   UNL A   1      41.577 -22.025 -39.361  0.00  0.00    -0.060 A 
ATOM     45  C   UNL A   1      40.751 -21.011 -39.819  0.00  0.00    -0.061 A 
ATOM     46  C   UNL A   1      39.787 -20.478 -38.965  0.00  0.00    -0.051 A 
ATOM     47  C   UNL A   1      39.621 -20.958 -37.643  0.00  0.00    +0.021 A 
ATOM     48  C   UNL A   1      39.532 -22.587 -33.702  0.00  0.00    -0.010 C 
ATOM     49  C   UNL A   1      38.828 -21.741 -32.648  0.00  0.00    -0.047 C 
ATOM     50  C   UNL A   1      37.455 -21.333 -33.157  0.00  0.00    -0.049 C 
ATOM     51  C   UNL A   1      37.583 -20.473 -34.413  0.00  0.00    -0.024 C 
ENDBRANCH  36  38
ENDBRANCH  35  36
ENDBRANCH  34  35
ENDBRANCH  33  34
ENDBRANCH  32  33
ENDBRANCH  31  32
ENDBRANCH  30  31
ENDBRANCH   3  30
TORSDOF 17
ENDMDL
MODEL 5
REMARK VINA RESULT:    -6.996     16.694     20.748
REMARK INTER + INTRA:         -18.993
REMARK INTER:                 -13.955
REMARK INTRA:                  -5.038
REMARK UNBOUND:                -5.044
REMARK  Name = cpd183.pdb
REMARK  19 active torsions:
REMARK  status: ('A' for Active; 'I' for Inactive)
REMARK    1  A    between atoms: C_1  and  C_2
REMARK    2  A    between atoms: C_6  and  N_7
REMARK    3  A    between atoms: N_7  and  C_8
REMARK    4  A    between atoms: C_13  and  C_14
REMARK    5  A    between atoms: N_16  and  C_17
REMARK    6  A    between atoms: C_17  and  C_18
REMARK    7  A    between atoms: C_18  and  C_19
REMARK    8  A    between atoms: C_19  and  C_20
REMARK    9  A    between atoms: C_20  and  C_21
REMARK   10  A    between atoms: C_21  and  C_22
REMARK   11  A    between atoms: N_24  and  C_25
REMARK   12  A    between atoms: C_25  and  C_26
REMARK   13  A    between atoms: C_26  and  C_27
REMARK   14  A    between atoms: C_27  and  C_28
REMARK   15  A    between atoms: C_28  and  C_29
REMARK   16  A    between atoms: C_29  and  C_30
REMARK   17  A    between atoms: C_30  and  N_31
REMARK   18  A    between atoms: N_31  and  C_32
REMARK   19  A    between atoms: C_46  and  C_47
REMARK                            x       y       z     vdW  Elec       q    Type
REMARK                         _______ _______ _______ _____ _____    ______ ____
ROOT
ATOM      1  C   UNL A   1      29.565 -37.065 -32.359  0.00  0.00    +0.213 C 
ATOM      2  O   UNL A   1      28.682 -37.708 -32.919  0.00  0.00    -0.276 OA
ATOM      3  N   UNL A   1      29.980 -37.299 -31.064  0.00  0.00    -0.315 N 
ATOM      4  H   UNL A   1      30.583 -36.660 -30.621  0.00  0.00    +0.000 HD
ENDROOT
BRANCH   1   5
ATOM      5  C   UNL A   1      30.351 -35.990 -33.076  0.00  0.00    +0.024 C 
BRANCH   5   6
ATOM      6  C   UNL A   1      31.486 -35.502 -32.180  0.00  0.00    -0.045 C 
BRANCH   6   7
ATOM      7  C   UNL A   1      32.746 -35.101 -32.948  0.00  0.00    -0.051 C 
BRANCH   7   8
ATOM      8  C   UNL A   1      34.006 -35.829 -32.469  0.00  0.00    -0.037 C 
BRANCH   8   9
ATOM      9  C   UNL A   1      33.689 -37.198 -31.865  0.00  0.00    +0.012 C 
BRANCH   9  12
ATOM     10  C   UNL A   1      35.260 -39.011 -31.067  0.00  0.00    +0.246 C 
ATOM     11  O   UNL A   1      35.804 -40.057 -31.401  0.00  0.00    -0.270 OA
ATOM     12  N   UNL A   1      34.792 -38.138 -32.023  0.00  0.00    -0.311 N 
ATOM     13  H   UNL A   1      35.246 -38.149 -32.896  0.00  0.00    +0.000 HD
BRANCH  10  19
ATOM     14  C   UNL A   1      35.840 -37.628 -29.033  0.00  0.00    +0.044 A 
ATOM     15  C   UNL A   1      35.614 -37.383 -27.670  0.00  0.00    -0.040 A 
ATOM     16  C   UNL A   1      34.742 -38.180 -26.922  0.00  0.00    -0.060 A 
ATOM     17  C   UNL A   1      34.070 -39.241 -27.523  0.00  0.00    -0.061 A 
ATOM     18  C   UNL A   1      34.255 -39.492 -28.880  0.00  0.00    -0.048 A 
ATOM     19  C   UNL A   1      35.109 -38.675 -29.634  0.00  0.00    +0.058 A 
BRANCH  14  20
ATOM     20  N   UNL A   1      36.732 -36.823 -29.778  0.00  0.00    -0.314 N 
ATOM     21  H   UNL A   1      36.304 -36.099 -30.289  0.00  0.00    +0.000 HD
BRANCH  20  27
ATOM     22  C   UNL A   1      40.891 -35.680 -32.312  0.00  0.00    -0.039 C 
ATOM     23  C   UNL A   1      40.172 -36.339 -31.164  0.00  0.00    -0.046 A 
ATOM     24  C   UNL A   1      40.924 -37.074 -30.237  0.00  0.00    -0.058 A 
ATOM     25  C   UNL A   1      40.305 -37.711 -29.166  0.00  0.00    -0.060 A 
ATOM     26  C   UNL A   1      38.924 -37.623 -29.010  0.00  0.00    -0.040 A 
ATOM     27  C   UNL A   1      38.140 -36.887 -29.909  0.00  0.00    +0.035 A 
ATOM     28  C   UNL A   1      38.772 -36.218 -30.988  0.00  0.00    -0.026 A 
ATOM     29  C   UNL A   1      37.943 -35.423 -31.968  0.00  0.00    -0.038 C 
ENDBRANCH  20  27
ENDBRANCH  14  20
ENDBRANCH  10  19
ENDBRANCH   9  12
ENDBRANCH   8   9
ENDBRANCH   7   8
ENDBRANCH   6   7
ENDBRANCH   5   6
ENDBRANCH   1   5
BRANCH   3  30
ATOM     30  C   UNL A   1      29.534 -38.482 -30.354  0.00  0.00    +0.012 C 
BRANCH  30  31
ATOM     31  C   UNL A   1      29.989 -38.420 -28.895  0.00  0.00    -0.037 C 
BRANCH  31  32
ATOM     32  C   UNL A   1      31.296 -37.658 -28.673  0.00  0.00    -0.052 C 
BRANCH  32  33
ATOM     33  C   UNL A   1      31.169 -36.592 -27.580  0.00  0.00    -0.052 C 
BRANCH  33  34
ATOM     34  C   UNL A   1      29.778 -35.959 -27.560  0.00  0.00    -0.037 C 
BRANCH  34  35
ATOM     35  C   UNL A   1      29.714 -34.737 -28.479  0.00  0.00    +0.009 C 
BRANCH  35  36
ATOM     36  N   UNL A   1      30.516 -33.653 -27.894  0.00  0.00    -0.343 N 
ATOM     37  H   UNL A   1      30.666 -33.536 -26.928  0.00  0.00    +0.000 HD
BRANCH  36  38
ATOM     38  C   UNL A   1      31.051 -32.789 -28.897  0.00  0.00    +0.041 A 
ATOM     39  C   UNL A   1      30.289 -31.704 -29.379  0.00  0.00    -0.005 A 
ATOM     40  C   UNL A   1      30.886 -30.862 -30.321  0.00  0.00    +0.047 A 
ATOM     41  N   UNL A   1      32.166 -31.004 -30.739  0.00  0.00    -0.251 NA
ATOM     42  C   UNL A   1      32.895 -32.025 -30.267  0.00  0.00    +0.073 A 
ATOM     43  C   UNL A   1      34.204 -32.158 -30.716  0.00  0.00    -0.036 A 
ATOM     44  C   UNL A   1      35.030 -33.201 -30.292  0.00  0.00    -0.060 A 
ATOM     45  C   UNL A   1      34.537 -34.147 -29.406  0.00  0.00    -0.061 A 
ATOM     46  C   UNL A   1      33.227 -34.031 -28.944  0.00  0.00    -0.051 A 
ATOM     47  C   UNL A   1      32.390 -32.963 -29.347  0.00  0.00    +0.021 A 
ATOM     48  C   UNL A   1      30.158 -29.678 -30.903  0.00  0.00    -0.010 C 
ATOM     49  C   UNL A   1      28.642 -29.785 -30.779  0.00  0.00    -0.047 C 
ATOM     50  C   UNL A   1      28.272 -30.135 -29.346  0.00  0.00    -0.049 C 
ATOM     51  C   UNL A   1      28.853 -31.493 -28.958  0.00  0.00    -0.024 C 
ENDBRANCH  36  38
ENDBRANCH  35  36
ENDBRANCH  34  35
ENDBRANCH  33  34
ENDBRANCH  32  33
ENDBRANCH  31  32
ENDBRANCH  30  31
ENDBRANCH   3  30
TORSDOF 17
ENDMDL
MODEL 6
REMARK VINA RESULT:    -6.994      2.171      8.501
REMARK INTER + INTRA:         -18.989
REMARK INTER:                 -12.373
REMARK INTRA:                  -6.616
REMARK UNBOUND:                -5.044
REMARK  Name = cpd183.pdb
REMARK  19 active torsions:
REMARK  status: ('A' for Active; 'I' for Inactive)
REMARK    1  A    between atoms: C_1  and  C_2
REMARK    2  A    between atoms: C_6  and  N_7
REMARK    3  A    between atoms: N_7  and  C_8
REMARK    4  A    between atoms: C_13  and  C_14
REMARK    5  A    between atoms: N_16  and  C_17
REMARK    6  A    between atoms: C_17  and  C_18
REMARK    7  A    between atoms: C_18  and  C_19
REMARK    8  A    between atoms: C_19  and  C_20
REMARK    9  A    between atoms: C_20  and  C_21
REMARK   10  A    between atoms: C_21  and  C_22
REMARK   11  A    between atoms: N_24  and  C_25
REMARK   12  A    between atoms: C_25  and  C_26
REMARK   13  A    between atoms: C_26  and  C_27
REMARK   14  A    between atoms: C_27  and  C_28
REMARK   15  A    between atoms: C_28  and  C_29
REMARK   16  A    between atoms: C_29  and  C_30
REMARK   17  A    between atoms: C_30  and  N_31
REMARK   18  A    between atoms: N_31  and  C_32
REMARK   19  A    between atoms: C_46  and  C_47
REMARK                            x       y       z     vdW  Elec       q    Type
REMARK                         _______ _______ _______ _____ _____    ______ ____
ROOT
ATOM      1  C   UNL A   1      43.223 -20.339 -35.585  0.00  0.00    +0.213 C 
ATOM      2  O   UNL A   1      44.163 -20.550 -34.826  0.00  0.00    -0.276 OA
ATOM      3  N   UNL A   1      41.976 -19.923 -35.165  0.00  0.00    -0.315 N 
ATOM      4  H   UNL A   1      41.223 -19.915 -35.799  0.00  0.00    +0.000 HD
ENDROOT
BRANCH   1   5
ATOM      5  C   UNL A   1      43.366 -20.440 -37.087  0.00  0.00    +0.024 C 
BRANCH   5   6
ATOM      6  C   UNL A   1      43.261 -19.049 -37.707  0.00  0.00    -0.045 C 
BRANCH   6   7
ATOM      7  C   UNL A   1      43.166 -19.061 -39.233  0.00  0.00    -0.051 C 
BRANCH   7   8
ATOM      8  C   UNL A   1      43.174 -17.662 -39.853  0.00  0.00    -0.037 C 
BRANCH   8   9
ATOM      9  C   UNL A   1      43.988 -17.607 -41.148  0.00  0.00    +0.012 C 
BRANCH   9  12
ATOM     10  C   UNL A   1      46.492 -17.532 -40.811  0.00  0.00    +0.246 C 
ATOM     11  O   UNL A   1      47.514 -16.951 -41.158  0.00  0.00    -0.270 OA
ATOM     12  N   UNL A   1      45.265 -16.928 -40.966  0.00  0.00    -0.311 N 
ATOM     13  H   UNL A   1      45.248 -15.944 -40.952  0.00  0.00    +0.000 HD
BRANCH  10  19
ATOM     14  C   UNL A   1      46.899 -19.082 -38.857  0.00  0.00    +0.044 A 
ATOM     15  C   UNL A   1      46.935 -20.404 -38.388  0.00  0.00    -0.040 A 
ATOM     16  C   UNL A   1      46.710 -21.487 -39.244  0.00  0.00    -0.060 A 
ATOM     17  C   UNL A   1      46.439 -21.271 -40.592  0.00  0.00    -0.061 A 
ATOM     18  C   UNL A   1      46.371 -19.969 -41.082  0.00  0.00    -0.048 A 
ATOM     19  C   UNL A   1      46.570 -18.883 -40.215  0.00  0.00    +0.058 A 
BRANCH  14  20
ATOM     20  N   UNL A   1      47.138 -17.995 -37.985  0.00  0.00    -0.314 N 
ATOM     21  H   UNL A   1      48.060 -17.651 -38.000  0.00  0.00    +0.000 HD
BRANCH  20  27
ATOM     22  C   UNL A   1      45.150 -17.523 -33.420  0.00  0.00    -0.039 C 
ATOM     23  C   UNL A   1      45.286 -17.105 -34.860  0.00  0.00    -0.046 A 
ATOM     24  C   UNL A   1      44.489 -16.052 -35.330  0.00  0.00    -0.058 A 
ATOM     25  C   UNL A   1      44.569 -15.637 -36.655  0.00  0.00    -0.060 A 
ATOM     26  C   UNL A   1      45.447 -16.272 -37.530  0.00  0.00    -0.040 A 
ATOM     27  C   UNL A   1      46.269 -17.320 -37.094  0.00  0.00    +0.035 A 
ATOM     28  C   UNL A   1      46.205 -17.729 -35.738  0.00  0.00    -0.026 A 
ATOM     29  C   UNL A   1      47.082 -18.858 -35.251  0.00  0.00    -0.038 C 
ENDBRANCH  20  27
ENDBRANCH  14  20
ENDBRANCH  10  19
ENDBRANCH   9  12
ENDBRANCH   8   9
ENDBRANCH   7   8
ENDBRANCH   6   7
ENDBRANCH   5   6
ENDBRANCH   1   5
BRANCH   3  30
ATOM     30  C   UNL A   1      41.769 -19.497 -33.794  0.00  0.00    +0.012 C 
BRANCH  30  31
ATOM     31  C   UNL A   1      41.397 -18.014 -33.756  0.00  0.00    -0.037 C 
BRANCH  31  32
ATOM     32  C   UNL A   1      40.246 -17.628 -34.686  0.00  0.00    -0.052 C 
BRANCH  32  33
ATOM     33  C   UNL A   1      40.742 -17.026 -36.005  0.00  0.00    -0.052 C 
BRANCH  33  34
ATOM     34  C   UNL A   1      39.850 -17.421 -37.183  0.00  0.00    -0.037 C 
BRANCH  34  35
ATOM     35  C   UNL A   1      38.436 -17.768 -36.711  0.00  0.00    +0.009 C 
BRANCH  35  36
ATOM     36  N   UNL A   1      37.952 -18.937 -37.460  0.00  0.00    -0.343 N 
ATOM     37  H   UNL A   1      37.290 -18.892 -38.186  0.00  0.00    +0.000 HD
BRANCH  36  38
ATOM     38  C   UNL A   1      38.561 -20.146 -37.006  0.00  0.00    +0.041 A 
ATOM     39  C   UNL A   1      39.458 -20.846 -37.841  0.00  0.00    -0.005 A 
ATOM     40  C   UNL A   1      40.064 -21.992 -37.321  0.00  0.00    +0.047 A 
ATOM     41  N   UNL A   1      39.879 -22.420 -36.049  0.00  0.00    -0.251 NA
ATOM     42  C   UNL A   1      39.041 -21.744 -35.252  0.00  0.00    +0.073 A 
ATOM     43  C   UNL A   1      38.858 -22.205 -33.953  0.00  0.00    -0.036 A 
ATOM     44  C   UNL A   1      37.990 -21.574 -33.059  0.00  0.00    -0.060 A 
ATOM     45  C   UNL A   1      37.274 -20.461 -33.471  0.00  0.00    -0.061 A 
ATOM     46  C   UNL A   1      37.444 -19.983 -34.769  0.00  0.00    -0.051 A 
ATOM     47  C   UNL A   1      38.340 -20.599 -35.675  0.00  0.00    +0.021 A 
ATOM     48  C   UNL A   1      41.033 -22.816 -38.131  0.00  0.00    -0.010 C 
ATOM     49  C   UNL A   1      40.893 -22.601 -39.633  0.00  0.00    -0.047 C 
ATOM     50  C   UNL A   1      40.896 -21.111 -39.937  0.00  0.00    -0.049 C 
ATOM     51  C   UNL A   1      39.704 -20.426 -39.271  0.00  0.00    -0.024 C 
ENDBRANCH  36  38
ENDBRANCH  35  36
ENDBRANCH  34  35
ENDBRANCH  33  34
ENDBRANCH  32  33
ENDBRANCH  31  32
ENDBRANCH  30  31
ENDBRANCH   3  30
TORSDOF 17
ENDMDL
MODEL 7
REMARK VINA RESULT:    -6.791      1.706      3.810
REMARK INTER + INTRA:         -18.584
REMARK INTER:                 -13.238
REMARK INTRA:                  -5.346
REMARK UNBOUND:                -5.044
REMARK  Name = cpd183.pdb
REMARK  19 active torsions:
REMARK  status: ('A' for Active; 'I' for Inactive)
REMARK    1  A    between atoms: C_1  and  C_2
REMARK    2  A    between atoms: C_6  and  N_7
REMARK    3  A    between atoms: N_7  and  C_8
REMARK    4  A    between atoms: C_13  and  C_14
REMARK    5  A    between atoms: N_16  and  C_17
REMARK    6  A    between atoms: C_17  and  C_18
REMARK    7  A    between atoms: C_18  and  C_19
REMARK    8  A    between atoms: C_19  and  C_20
REMARK    9  A    between atoms: C_20  and  C_21
REMARK   10  A    between atoms: C_21  and  C_22
REMARK   11  A    between atoms: N_24  and  C_25
REMARK   12  A    between atoms: C_25  and  C_26
REMARK   13  A    between atoms: C_26  and  C_27
REMARK   14  A    between atoms: C_27  and  C_28
REMARK   15  A    between atoms: C_28  and  C_29
REMARK   16  A    between atoms: C_29  and  C_30
REMARK   17  A    between atoms: C_30  and  N_31
REMARK   18  A    between atoms: N_31  and  C_32
REMARK   19  A    between atoms: C_46  and  C_47
REMARK                            x       y       z     vdW  Elec       q    Type
REMARK                         _______ _______ _______ _____ _____    ______ ____
ROOT
ATOM      1  C   UNL A   1      40.465 -16.492 -37.232  0.00  0.00    +0.213 C 
ATOM      2  O   UNL A   1      40.383 -15.278 -37.394  0.00  0.00    -0.276 OA
ATOM      3  N   UNL A   1      41.652 -17.157 -37.004  0.00  0.00    -0.315 N 
ATOM      4  H   UNL A   1      41.674 -18.140 -37.032  0.00  0.00    +0.000 HD
ENDROOT
BRANCH   1   5
ATOM      5  C   UNL A   1      39.241 -17.379 -37.187  0.00  0.00    +0.024 C 
BRANCH   5   6
ATOM      6  C   UNL A   1      38.039 -16.570 -36.704  0.00  0.00    -0.045 C 
BRANCH   6   7
ATOM      7  C   UNL A   1      36.933 -17.424 -36.083  0.00  0.00    -0.051 C 
BRANCH   7   8
ATOM      8  C   UNL A   1      37.415 -18.802 -35.624  0.00  0.00    -0.037 C 
BRANCH   8   9
ATOM      9  C   UNL A   1      37.711 -18.842 -34.123  0.00  0.00    +0.012 C 
BRANCH   9  12
ATOM     10  C   UNL A   1      40.224 -19.025 -33.910  0.00  0.00    +0.246 C 
ATOM     11  O   UNL A   1      41.274 -18.428 -34.118  0.00  0.00    -0.270 OA
ATOM     12  N   UNL A   1      39.040 -18.329 -33.811  0.00  0.00    -0.311 N 
ATOM     13  H   UNL A   1      39.096 -17.397 -33.500  0.00  0.00    +0.000 HD
BRANCH  10  19
ATOM     14  C   UNL A   1      40.221 -21.363 -34.869  0.00  0.00    +0.044 A 
ATOM     15  C   UNL A   1      40.231 -22.743 -34.614  0.00  0.00    -0.040 A 
ATOM     16  C   UNL A   1      40.185 -23.242 -33.308  0.00  0.00    -0.060 A 
ATOM     17  C   UNL A   1      40.133 -22.369 -32.224  0.00  0.00    -0.061 A 
ATOM     18  C   UNL A   1      40.148 -20.994 -32.446  0.00  0.00    -0.048 A 
ATOM     19  C   UNL A   1      40.221 -20.496 -33.756  0.00  0.00    +0.058 A 
BRANCH  14  20
ATOM     20  N   UNL A   1      40.256 -20.869 -36.194  0.00  0.00    -0.314 N 
ATOM     21  H   UNL A   1      39.419 -20.451 -36.499  0.00  0.00    +0.000 HD
BRANCH  20  27
ATOM     22  C   UNL A   1      41.793 -21.608 -40.896  0.00  0.00    -0.039 C 
ATOM     23  C   UNL A   1      42.048 -21.258 -39.454  0.00  0.00    -0.046 A 
ATOM     24  C   UNL A   1      43.363 -20.984 -39.054  0.00  0.00    -0.058 A 
ATOM     25  C   UNL A   1      43.651 -20.667 -37.731  0.00  0.00    -0.060 A 
ATOM     26  C   UNL A   1      42.627 -20.621 -36.788  0.00  0.00    -0.040 A 
ATOM     27  C   UNL A   1      41.298 -20.877 -37.152  0.00  0.00    +0.035 A 
ATOM     28  C   UNL A   1      40.999 -21.178 -38.505  0.00  0.00    -0.026 A 
ATOM     29  C   UNL A   1      39.573 -21.459 -38.915  0.00  0.00    -0.038 C 
ENDBRANCH  20  27
ENDBRANCH  14  20
ENDBRANCH  10  19
ENDBRANCH   9  12
ENDBRANCH   8   9
ENDBRANCH   7   8
ENDBRANCH   6   7
ENDBRANCH   5   6
ENDBRANCH   1   5
BRANCH   3  30
ATOM     30  C   UNL A   1      42.866 -16.415 -36.724  0.00  0.00    +0.012 C 
BRANCH  30  31
ATOM     31  C   UNL A   1      43.843 -17.286 -35.932  0.00  0.00    -0.037 C 
BRANCH  31  32
ATOM     32  C   UNL A   1      45.278 -17.264 -36.461  0.00  0.00    -0.052 C 
BRANCH  32  33
ATOM     33  C   UNL A   1      46.130 -18.394 -35.875  0.00  0.00    -0.052 C 
BRANCH  33  34
ATOM     34  C   UNL A   1      47.319 -18.736 -36.774  0.00  0.00    -0.037 C 
BRANCH  34  35
ATOM     35  C   UNL A   1      46.922 -19.746 -37.852  0.00  0.00    +0.009 C 
BRANCH  35  36
ATOM     36  N   UNL A   1      47.521 -19.344 -39.132  0.00  0.00    -0.343 N 
ATOM     37  H   UNL A   1      48.418 -18.949 -39.223  0.00  0.00    +0.000 HD
BRANCH  36  38
ATOM     38  C   UNL A   1      46.643 -19.595 -40.230  0.00  0.00    +0.041 A 
ATOM     39  C   UNL A   1      46.621 -20.865 -40.845  0.00  0.00    -0.005 A 
ATOM     40  C   UNL A   1      45.702 -21.067 -41.878  0.00  0.00    +0.047 A 
ATOM     41  N   UNL A   1      44.803 -20.132 -42.267  0.00  0.00    -0.251 NA
ATOM     42  C   UNL A   1      44.813 -18.932 -41.670  0.00  0.00    +0.073 A 
ATOM     43  C   UNL A   1      43.888 -17.984 -42.090  0.00  0.00    -0.036 A 
ATOM     44  C   UNL A   1      43.837 -16.702 -41.537  0.00  0.00    -0.060 A 
ATOM     45  C   UNL A   1      44.740 -16.349 -40.546  0.00  0.00    -0.061 A 
ATOM     46  C   UNL A   1      45.676 -17.286 -40.111  0.00  0.00    -0.051 A 
ATOM     47  C   UNL A   1      45.718 -18.596 -40.646  0.00  0.00    +0.021 A 
ATOM     48  C   UNL A   1      45.601 -22.383 -42.605  0.00  0.00    -0.010 C 
ATOM     49  C   UNL A   1      46.858 -23.237 -42.479  0.00  0.00    -0.047 C 
ATOM     50  C   UNL A   1      47.264 -23.332 -41.017  0.00  0.00    -0.049 C 
ATOM     51  C   UNL A   1      47.601 -21.949 -40.463  0.00  0.00    -0.024 C 
ENDBRANCH  36  38
ENDBRANCH  35  36
ENDBRANCH  34  35
ENDBRANCH  33  34
ENDBRANCH  32  33
ENDBRANCH  31  32
ENDBRANCH  30  31
ENDBRANCH   3  30
TORSDOF 17
ENDMDL
MODEL 8
REMARK VINA RESULT:    -6.746      2.244      7.665
REMARK INTER + INTRA:         -18.494
REMARK INTER:                 -12.192
REMARK INTRA:                  -6.302
REMARK UNBOUND:                -5.044
REMARK  Name = cpd183.pdb
REMARK  19 active torsions:
REMARK  status: ('A' for Active; 'I' for Inactive)
REMARK    1  A    between atoms: C_1  and  C_2
REMARK    2  A    between atoms: C_6  and  N_7
REMARK    3  A    between atoms: N_7  and  C_8
REMARK    4  A    between atoms: C_13  and  C_14
REMARK    5  A    between atoms: N_16  and  C_17
REMARK    6  A    between atoms: C_17  and  C_18
REMARK    7  A    between atoms: C_18  and  C_19
REMARK    8  A    between atoms: C_19  and  C_20
REMARK    9  A    between atoms: C_20  and  C_21
REMARK   10  A    between atoms: C_21  and  C_22
REMARK   11  A    between atoms: N_24  and  C_25
REMARK   12  A    between atoms: C_25  and  C_26
REMARK   13  A    between atoms: C_26  and  C_27
REMARK   14  A    between atoms: C_27  and  C_28
REMARK   15  A    between atoms: C_28  and  C_29
REMARK   16  A    between atoms: C_29  and  C_30
REMARK   17  A    between atoms: C_30  and  N_31
REMARK   18  A    between atoms: N_31  and  C_32
REMARK   19  A    between atoms: C_46  and  C_47
REMARK                            x       y       z     vdW  Elec       q    Type
REMARK                         _______ _______ _______ _____ _____    ______ ____
ROOT
ATOM      1  C   UNL A   1      45.270 -18.772 -34.185  0.00  0.00    +0.213 C 
ATOM      2  O   UNL A   1      44.114 -19.006 -34.526  0.00  0.00    -0.276 OA
ATOM      3  N   UNL A   1      45.610 -17.889 -33.181  0.00  0.00    -0.315 N 
ATOM      4  H   UNL A   1      46.551 -17.631 -33.054  0.00  0.00    +0.000 HD
ENDROOT
BRANCH   1   5
ATOM      5  C   UNL A   1      46.448 -19.503 -34.790  0.00  0.00    +0.024 C 
BRANCH   5   6
ATOM      6  C   UNL A   1      46.739 -18.944 -36.181  0.00  0.00    -0.045 C 
BRANCH   6   7
ATOM      7  C   UNL A   1      46.221 -19.824 -37.318  0.00  0.00    -0.051 C 
BRANCH   7   8
ATOM      8  C   UNL A   1      47.101 -19.778 -38.570  0.00  0.00    -0.037 C 
BRANCH   8   9
ATOM      9  C   UNL A   1      46.786 -20.917 -39.542  0.00  0.00    +0.012 C 
BRANCH   9  12
ATOM     10  C   UNL A   1      45.260 -19.765 -41.196  0.00  0.00    +0.246 C 
ATOM     11  O   UNL A   1      45.244 -18.978 -42.136  0.00  0.00    -0.270 OA
ATOM     12  N   UNL A   1      46.421 -20.426 -40.865  0.00  0.00    -0.311 N 
ATOM     13  H   UNL A   1      47.066 -20.583 -41.592  0.00  0.00    +0.000 HD
BRANCH  10  19
ATOM     14  C   UNL A   1      43.410 -18.999 -39.655  0.00  0.00    +0.044 A 
ATOM     15  C   UNL A   1      42.239 -19.336 -38.958  0.00  0.00    -0.040 A 
ATOM     16  C   UNL A   1      41.737 -20.641 -38.968  0.00  0.00    -0.060 A 
ATOM     17  C   UNL A   1      42.394 -21.641 -39.681  0.00  0.00    -0.061 A 
ATOM     18  C   UNL A   1      43.543 -21.330 -40.403  0.00  0.00    -0.048 A 
ATOM     19  C   UNL A   1      44.030 -20.014 -40.413  0.00  0.00    +0.058 A 
BRANCH  14  20
ATOM     20  N   UNL A   1      43.915 -17.678 -39.630  0.00  0.00    -0.314 N 
ATOM     21  H   UNL A   1      43.884 -17.210 -40.495  0.00  0.00    +0.000 HD
BRANCH  20  27
ATOM     22  C   UNL A   1      47.672 -14.985 -37.720  0.00  0.00    -0.039 C 
ATOM     23  C   UNL A   1      46.309 -15.616 -37.628  0.00  0.00    -0.046 A 
ATOM     24  C   UNL A   1      45.589 -15.484 -36.432  0.00  0.00    -0.058 A 
ATOM     25  C   UNL A   1      44.330 -16.058 -36.293  0.00  0.00    -0.060 A 
ATOM     26  C   UNL A   1      43.774 -16.776 -37.349  0.00  0.00    -0.040 A 
ATOM     27  C   UNL A   1      44.457 -16.920 -38.564  0.00  0.00    +0.035 A 
ATOM     28  C   UNL A   1      45.730 -16.315 -38.716  0.00  0.00    -0.026 A 
ATOM     29  C   UNL A   1      46.482 -16.461 -40.017  0.00  0.00    -0.038 C 
ENDBRANCH  20  27
ENDBRANCH  14  20
ENDBRANCH  10  19
ENDBRANCH   9  12
ENDBRANCH   8   9
ENDBRANCH   7   8
ENDBRANCH   6   7
ENDBRANCH   5   6
ENDBRANCH   1   5
BRANCH   3  30
ATOM     30  C   UNL A   1      44.587 -17.339 -32.311  0.00  0.00    +0.012 C 
BRANCH  30  31
ATOM     31  C   UNL A   1      44.597 -15.812 -32.389  0.00  0.00    -0.037 C 
BRANCH  31  32
ATOM     32  C   UNL A   1      43.230 -15.187 -32.669  0.00  0.00    -0.052 C 
BRANCH  32  33
ATOM     33  C   UNL A   1      42.279 -16.158 -33.377  0.00  0.00    -0.052 C 
BRANCH  33  34
ATOM     34  C   UNL A   1      40.952 -16.301 -32.631  0.00  0.00    -0.037 C 
BRANCH  34  35
ATOM     35  C   UNL A   1      40.514 -17.766 -32.563  0.00  0.00    +0.009 C 
BRANCH  35  36
ATOM     36  N   UNL A   1      41.336 -18.558 -33.488  0.00  0.00    -0.343 N 
ATOM     37  H   UNL A   1      42.303 -18.428 -33.616  0.00  0.00    +0.000 HD
BRANCH  36  38
ATOM     38  C   UNL A   1      40.561 -19.539 -34.177  0.00  0.00    +0.041 A 
ATOM     39  C   UNL A   1      39.934 -19.217 -35.400  0.00  0.00    -0.005 A 
ATOM     40  C   UNL A   1      39.235 -20.233 -36.055  0.00  0.00    +0.047 A 
ATOM     41  N   UNL A   1      39.185 -21.510 -35.607  0.00  0.00    -0.251 NA
ATOM     42  C   UNL A   1      39.796 -21.819 -34.455  0.00  0.00    +0.073 A 
ATOM     43  C   UNL A   1      39.724 -23.133 -34.007  0.00  0.00    -0.036 A 
ATOM     44  C   UNL A   1      40.315 -23.540 -32.809  0.00  0.00    -0.060 A 
ATOM     45  C   UNL A   1      40.985 -22.613 -32.027  0.00  0.00    -0.061 A 
ATOM     46  C   UNL A   1      41.068 -21.290 -32.458  0.00  0.00    -0.051 A 
ATOM     47  C   UNL A   1      40.495 -20.872 -33.684  0.00  0.00    +0.021 A 
ATOM     48  C   UNL A   1      38.525 -19.994 -37.364  0.00  0.00    -0.010 C 
ATOM     49  C   UNL A   1      38.217 -18.523 -37.619  0.00  0.00    -0.047 C 
ATOM     50  C   UNL A   1      39.472 -17.694 -37.399  0.00  0.00    -0.049 C 
ATOM     51  C   UNL A   1      39.946 -17.811 -35.952  0.00  0.00    -0.024 C 
ENDBRANCH  36  38
ENDBRANCH  35  36
ENDBRANCH  34  35
ENDBRANCH  33  34
ENDBRANCH  32  33
ENDBRANCH  31  32
ENDBRANCH  30  31
ENDBRANCH   3  30
TORSDOF 17
ENDMDL
MODEL 9
REMARK VINA RESULT:    -6.669      2.047      4.840
REMARK INTER + INTRA:         -18.341
REMARK INTER:                 -11.110
REMARK INTRA:                  -7.231
REMARK UNBOUND:                -5.044
REMARK  Name = cpd183.pdb
REMARK  19 active torsions:
REMARK  status: ('A' for Active; 'I' for Inactive)
REMARK    1  A    between atoms: C_1  and  C_2
REMARK    2  A    between atoms: C_6  and  N_7
REMARK    3  A    between atoms: N_7  and  C_8
REMARK    4  A    between atoms: C_13  and  C_14
REMARK    5  A    between atoms: N_16  and  C_17
REMARK    6  A    between atoms: C_17  and  C_18
REMARK    7  A    between atoms: C_18  and  C_19
REMARK    8  A    between atoms: C_19  and  C_20
REMARK    9  A    between atoms: C_20  and  C_21
REMARK   10  A    between atoms: C_21  and  C_22
REMARK   11  A    between atoms: N_24  and  C_25
REMARK   12  A    between atoms: C_25  and  C_26
REMARK   13  A    between atoms: C_26  and  C_27
REMARK   14  A    between atoms: C_27  and  C_28
REMARK   15  A    between atoms: C_28  and  C_29
REMARK   16  A    between atoms: C_29  and  C_30
REMARK   17  A    between atoms: C_30  and  N_31
REMARK   18  A    between atoms: N_31  and  C_32
REMARK   19  A    between atoms: C_46  and  C_47
REMARK                            x       y       z     vdW  Elec       q    Type
REMARK                         _______ _______ _______ _____ _____    ______ ____
ROOT
ATOM      1  C   UNL A   1      42.891 -17.408 -37.535  0.00  0.00    +0.213 C 
ATOM      2  O   UNL A   1      42.314 -16.815 -38.441  0.00  0.00    -0.276 OA
ATOM      3  N   UNL A   1      43.503 -16.777 -36.472  0.00  0.00    -0.315 N 
ATOM      4  H   UNL A   1      44.074 -17.293 -35.859  0.00  0.00    +0.000 HD
ENDROOT
BRANCH   1   5
ATOM      5  C   UNL A   1      42.915 -18.918 -37.454  0.00  0.00    +0.024 C 
BRANCH   5   6
ATOM      6  C   UNL A   1      42.154 -19.508 -38.639  0.00  0.00    -0.045 C 
BRANCH   6   7
ATOM      7  C   UNL A   1      41.971 -21.024 -38.560  0.00  0.00    -0.051 C 
BRANCH   7   8
ATOM      8  C   UNL A   1      42.160 -21.585 -37.148  0.00  0.00    -0.037 C 
BRANCH   8   9
ATOM      9  C   UNL A   1      40.916 -22.321 -36.646  0.00  0.00    +0.012 C 
BRANCH   9  12
ATOM     10  C   UNL A   1      39.792 -21.070 -34.758  0.00  0.00    +0.246 C 
ATOM     11  O   UNL A   1      39.245 -21.216 -33.670  0.00  0.00    -0.270 OA
ATOM     12  N   UNL A   1      40.640 -22.040 -35.242  0.00  0.00    -0.311 N 
ATOM     13  H   UNL A   1      41.104 -22.598 -34.577  0.00  0.00    +0.000 HD
BRANCH  10  19
ATOM     14  C   UNL A   1      39.937 -18.570 -35.095  0.00  0.00    +0.044 A 
ATOM     15  C   UNL A   1      39.674 -17.475 -35.932  0.00  0.00    -0.040 A 
ATOM     16  C   UNL A   1      39.004 -17.635 -37.150  0.00  0.00    -0.060 A 
ATOM     17  C   UNL A   1      38.584 -18.898 -37.560  0.00  0.00    -0.061 A 
ATOM     18  C   UNL A   1      38.855 -20.006 -36.762  0.00  0.00    -0.048 A 
ATOM     19  C   UNL A   1      39.551 -19.847 -35.554  0.00  0.00    +0.058 A 
BRANCH  14  20
ATOM     20  N   UNL A   1      40.606 -18.397 -33.861  0.00  0.00    -0.314 N 
ATOM     21  H   UNL A   1      40.014 -18.347 -33.076  0.00  0.00    +0.000 HD
BRANCH  20  27
ATOM     22  C   UNL A   1      44.473 -15.646 -32.282  0.00  0.00    -0.039 C 
ATOM     23  C   UNL A   1      43.880 -16.924 -32.812  0.00  0.00    -0.046 A 
ATOM     24  C   UNL A   1      44.736 -18.004 -33.066  0.00  0.00    -0.058 A 
ATOM     25  C   UNL A   1      44.238 -19.202 -33.567  0.00  0.00    -0.060 A 
ATOM     26  C   UNL A   1      42.876 -19.336 -33.823  0.00  0.00    -0.040 A 
ATOM     27  C   UNL A   1      41.987 -18.282 -33.570  0.00  0.00    +0.035 A 
ATOM     28  C   UNL A   1      42.489 -17.068 -33.037  0.00  0.00    -0.026 A 
ATOM     29  C   UNL A   1      41.547 -15.921 -32.761  0.00  0.00    -0.038 C 
ENDBRANCH  20  27
ENDBRANCH  14  20
ENDBRANCH  10  19
ENDBRANCH   9  12
ENDBRANCH   8   9
ENDBRANCH   7   8
ENDBRANCH   6   7
ENDBRANCH   5   6
ENDBRANCH   1   5
BRANCH   3  30
ATOM     30  C   UNL A   1      43.309 -15.357 -36.252  0.00  0.00    +0.012 C 
BRANCH  30  31
ATOM     31  C   UNL A   1      44.600 -14.725 -35.731  0.00  0.00    -0.037 C 
BRANCH  31  32
ATOM     32  C   UNL A   1      45.614 -14.372 -36.820  0.00  0.00    -0.052 C 
BRANCH  32  33
ATOM     33  C   UNL A   1      44.955 -14.191 -38.192  0.00  0.00    -0.052 C 
BRANCH  33  34
ATOM     34  C   UNL A   1      45.831 -14.736 -39.321  0.00  0.00    -0.037 C 
BRANCH  34  35
ATOM     35  C   UNL A   1      45.347 -16.113 -39.779  0.00  0.00    +0.009 C 
BRANCH  35  36
ATOM     36  N   UNL A   1      46.505 -17.006 -39.925  0.00  0.00    -0.343 N 
ATOM     37  H   UNL A   1      47.359 -16.740 -40.336  0.00  0.00    +0.000 HD
BRANCH  36  38
ATOM     38  C   UNL A   1      46.241 -18.306 -39.399  0.00  0.00    +0.041 A 
ATOM     39  C   UNL A   1      45.726 -19.320 -40.235  0.00  0.00    -0.005 A 
ATOM     40  C   UNL A   1      45.540 -20.586 -39.677  0.00  0.00    +0.047 A 
ATOM     41  N   UNL A   1      45.884 -20.896 -38.404  0.00  0.00    -0.251 NA
ATOM     42  C   UNL A   1      46.389 -19.937 -37.616  0.00  0.00    +0.073 A 
ATOM     43  C   UNL A   1      46.727 -20.273 -36.310  0.00  0.00    -0.036 A 
ATOM     44  C   UNL A   1      47.242 -19.335 -35.413  0.00  0.00    -0.060 A 
ATOM     45  C   UNL A   1      47.415 -18.022 -35.822  0.00  0.00    -0.061 A 
ATOM     46  C   UNL A   1      47.082 -17.664 -37.127  0.00  0.00    -0.051 A 
ATOM     47  C   UNL A   1      46.584 -18.614 -38.052  0.00  0.00    +0.021 A 
ATOM     48  C   UNL A   1      44.991 -21.737 -40.481  0.00  0.00    -0.010 C 
ATOM     49  C   UNL A   1      44.219 -21.290 -41.717  0.00  0.00    -0.047 C 
ATOM     50  C   UNL A   1      45.049 -20.287 -42.502  0.00  0.00    -0.049 C 
ATOM     51  C   UNL A   1      45.316 -19.039 -41.662  0.00  0.00    -0.024 C 
ENDBRANCH  36  38
ENDBRANCH  35  36
ENDBRANCH  34  35
ENDBRANCH  33  34
ENDBRANCH  32  33
ENDBRANCH  31  32
ENDBRANCH  30  31
ENDBRANCH   3  30
TORSDOF 17
ENDMDL
MODEL 10
REMARK VINA RESULT:    -6.669      2.767      7.581
REMARK INTER + INTRA:         -18.340
REMARK INTER:                 -11.663
REMARK INTRA:                  -6.677
REMARK UNBOUND:                -5.044
REMARK  Name = cpd183.pdb
REMARK  19 active torsions:
REMARK  status: ('A' for Active; 'I' for Inactive)
REMARK    1  A    between atoms: C_1  and  C_2
REMARK    2  A    between atoms: C_6  and  N_7
REMARK    3  A    between atoms: N_7  and  C_8
REMARK    4  A    between atoms: C_13  and  C_14
REMARK    5  A    between atoms: N_16  and  C_17
REMARK    6  A    between atoms: C_17  and  C_18
REMARK    7  A    between atoms: C_18  and  C_19
REMARK    8  A    between atoms: C_19  and  C_20
REMARK    9  A    between atoms: C_20  and  C_21
REMARK   10  A    between atoms: C_21  and  C_22
REMARK   11  A    between atoms: N_24  and  C_25
REMARK   12  A    between atoms: C_25  and  C_26
REMARK   13  A    between atoms: C_26  and  C_27
REMARK   14  A    between atoms: C_27  and  C_28
REMARK   15  A    between atoms: C_28  and  C_29
REMARK   16  A    between atoms: C_29  and  C_30
REMARK   17  A    between atoms: C_30  and  N_31
REMARK   18  A    between atoms: N_31  and  C_32
REMARK   19  A    between atoms: C_46  and  C_47
REMARK                            x       y       z     vdW  Elec       q    Type
REMARK                         _______ _______ _______ _____ _____    ______ ____
ROOT
ATOM      1  C   UNL A   1      42.199 -14.274 -40.480  0.00  0.00    +0.213 C 
ATOM      2  O   UNL A   1      41.240 -13.902 -41.151  0.00  0.00    -0.276 OA
ATOM      3  N   UNL A   1      42.115 -14.621 -39.148  0.00  0.00    -0.315 N 
ATOM      4  H   UNL A   1      42.937 -14.766 -38.627  0.00  0.00    +0.000 HD
ENDROOT
BRANCH   1   5
ATOM      5  C   UNL A   1      43.572 -14.467 -41.084  0.00  0.00    +0.024 C 
BRANCH   5   6
ATOM      6  C   UNL A   1      44.459 -15.234 -40.106  0.00  0.00    -0.045 C 
BRANCH   6   7
ATOM      7  C   UNL A   1      45.110 -16.477 -40.713  0.00  0.00    -0.051 C 
BRANCH   7   8
ATOM      8  C   UNL A   1      46.517 -16.749 -40.174  0.00  0.00    -0.037 C 
BRANCH   8   9
ATOM      9  C   UNL A   1      47.082 -18.080 -40.676  0.00  0.00    +0.012 C 
BRANCH   9  12
ATOM     10  C   UNL A   1      46.727 -20.381 -39.689  0.00  0.00    +0.246 C 
ATOM     11  O   UNL A   1      47.255 -21.248 -39.002  0.00  0.00    -0.270 OA
ATOM     12  N   UNL A   1      47.164 -19.077 -39.615  0.00  0.00    -0.311 N 
ATOM     13  H   UNL A   1      47.570 -18.791 -38.766  0.00  0.00    +0.000 HD
BRANCH  10  19
ATOM     14  C   UNL A   1      44.306 -20.961 -40.118  0.00  0.00    +0.044 A 
ATOM     15  C   UNL A   1      43.316 -21.271 -41.064  0.00  0.00    -0.040 A 
ATOM     16  C   UNL A   1      43.623 -21.398 -42.423  0.00  0.00    -0.060 A 
ATOM     17  C   UNL A   1      44.929 -21.214 -42.868  0.00  0.00    -0.061 A 
ATOM     18  C   UNL A   1      45.927 -20.880 -41.956  0.00  0.00    -0.048 A 
ATOM     19  C   UNL A   1      45.611 -20.727 -40.597  0.00  0.00    +0.058 A 
BRANCH  14  20
ATOM     20  N   UNL A   1      43.987 -20.846 -38.745  0.00  0.00    -0.314 N 
ATOM     21  H   UNL A   1      44.308 -21.588 -38.185  0.00  0.00    +0.000 HD
BRANCH  20  27
ATOM     22  C   UNL A   1      39.897 -19.353 -36.283  0.00  0.00    -0.039 C 
ATOM     23  C   UNL A   1      41.268 -19.107 -36.855  0.00  0.00    -0.046 A 
ATOM     24  C   UNL A   1      41.827 -17.828 -36.727  0.00  0.00    -0.058 A 
ATOM     25  C   UNL A   1      43.085 -17.547 -37.249  0.00  0.00    -0.060 A 
ATOM     26  C   UNL A   1      43.802 -18.543 -37.909  0.00  0.00    -0.040 A 
ATOM     27  C   UNL A   1      43.281 -19.837 -38.045  0.00  0.00    +0.035 A 
ATOM     28  C   UNL A   1      42.009 -20.131 -37.493  0.00  0.00    -0.026 A 
ATOM     29  C   UNL A   1      41.431 -21.520 -37.633  0.00  0.00    -0.038 C 
ENDBRANCH  20  27
ENDBRANCH  14  20
ENDBRANCH  10  19
ENDBRANCH   9  12
ENDBRANCH   8   9
ENDBRANCH   7   8
ENDBRANCH   6   7
ENDBRANCH   5   6
ENDBRANCH   1   5
BRANCH   3  30
ATOM     30  C   UNL A   1      40.821 -14.774 -38.510  0.00  0.00    +0.012 C 
BRANCH  30  31
ATOM     31  C   UNL A   1      40.722 -13.850 -37.295  0.00  0.00    -0.037 C 
BRANCH  31  32
ATOM     32  C   UNL A   1      41.937 -13.897 -36.367  0.00  0.00    -0.052 C 
BRANCH  32  33
ATOM     33  C   UNL A   1      41.689 -14.763 -35.128  0.00  0.00    -0.052 C 
BRANCH  33  34
ATOM     34  C   UNL A   1      42.803 -14.608 -34.092  0.00  0.00    -0.037 C 
BRANCH  34  35
ATOM     35  C   UNL A   1      44.032 -15.435 -34.476  0.00  0.00    +0.009 C 
BRANCH  35  36
ATOM     36  N   UNL A   1      44.392 -16.312 -33.353  0.00  0.00    -0.343 N 
ATOM     37  H   UNL A   1      44.604 -15.990 -32.447  0.00  0.00    +0.000 HD
BRANCH  36  38
ATOM     38  C   UNL A   1      44.396 -17.687 -33.736  0.00  0.00    +0.041 A 
ATOM     39  C   UNL A   1      43.276 -18.503 -33.467  0.00  0.00    -0.005 A 
ATOM     40  C   UNL A   1      43.317 -19.825 -33.915  0.00  0.00    +0.047 A 
ATOM     41  N   UNL A   1      44.343 -20.335 -34.637  0.00  0.00    -0.251 NA
ATOM     42  C   UNL A   1      45.399 -19.554 -34.907  0.00  0.00    +0.073 A 
ATOM     43  C   UNL A   1      46.445 -20.099 -35.642  0.00  0.00    -0.036 A 
ATOM     44  C   UNL A   1      47.592 -19.365 -35.954  0.00  0.00    -0.060 A 
ATOM     45  C   UNL A   1      47.707 -18.056 -35.512  0.00  0.00    -0.061 A 
ATOM     46  C   UNL A   1      46.669 -17.491 -34.774  0.00  0.00    -0.051 A 
ATOM     47  C   UNL A   1      45.491 -18.218 -34.474  0.00  0.00    +0.021 A 
ATOM     48  C   UNL A   1      42.176 -20.781 -33.675  0.00  0.00    -0.010 C 
ATOM     49  C   UNL A   1      41.270 -20.357 -32.526  0.00  0.00    -0.047 C 
ATOM     50  C   UNL A   1      40.871 -18.901 -32.702  0.00  0.00    -0.049 C 
ATOM     51  C   UNL A   1      42.103 -17.998 -32.661  0.00  0.00    -0.024 C 
ENDBRANCH  36  38
ENDBRANCH  35  36
ENDBRANCH  34  35
ENDBRANCH  33  34
ENDBRANCH  32  33
ENDBRANCH  31  32
ENDBRANCH  30  31
ENDBRANCH   3  30
TORSDOF 17
ENDMDL
MODEL 11
REMARK VINA RESULT:    -6.667      2.328      5.470
REMARK INTER + INTRA:         -18.338
REMARK INTER:                 -11.688
REMARK INTRA:                  -6.650
REMARK UNBOUND:                -5.044
REMARK  Name = cpd183.pdb
REMARK  19 active torsions:
REMARK  status: ('A' for Active; 'I' for Inactive)
REMARK    1  A    between atoms: C_1  and  C_2
REMARK    2  A    between atoms: C_6  and  N_7
REMARK    3  A    between atoms: N_7  and  C_8
REMARK    4  A    between atoms: C_13  and  C_14
REMARK    5  A    between atoms: N_16  and  C_17
REMARK    6  A    between atoms: C_17  and  C_18
REMARK    7  A    between atoms: C_18  and  C_19
REMARK    8  A    between atoms: C_19  and  C_20
REMARK    9  A    between atoms: C_20  and  C_21
REMARK   10  A    between atoms: C_21  and  C_22
REMARK   11  A    between atoms: N_24  and  C_25
REMARK   12  A    between atoms: C_25  and  C_26
REMARK   13  A    between atoms: C_26  and  C_27
REMARK   14  A    between atoms: C_27  and  C_28
REMARK   15  A    between atoms: C_28  and  C_29
REMARK   16  A    between atoms: C_29  and  C_30
REMARK   17  A    between atoms: C_30  and  N_31
REMARK   18  A    between atoms: N_31  and  C_32
REMARK   19  A    between atoms: C_46  and  C_47
REMARK                            x       y       z     vdW  Elec       q    Type
REMARK                         _______ _______ _______ _____ _____    ______ ____
ROOT
ATOM      1  C   UNL A   1      39.887 -15.214 -36.943  0.00  0.00    +0.213 C 
ATOM      2  O   UNL A   1      40.371 -14.276 -36.316  0.00  0.00    -0.276 OA
ATOM      3  N   UNL A   1      39.989 -15.356 -38.311  0.00  0.00    -0.315 N 
ATOM      4  H   UNL A   1      39.456 -16.044 -38.772  0.00  0.00    +0.000 HD
ENDROOT
BRANCH   1   5
ATOM      5  C   UNL A   1      39.189 -16.364 -36.252  0.00  0.00    +0.024 C 
BRANCH   5   6
ATOM      6  C   UNL A   1      38.818 -17.430 -37.279  0.00  0.00    -0.045 C 
BRANCH   6   7
ATOM      7  C   UNL A   1      38.276 -18.719 -36.659  0.00  0.00    -0.051 C 
BRANCH   7   8
ATOM      8  C   UNL A   1      38.489 -19.952 -37.541  0.00  0.00    -0.037 C 
BRANCH   8   9
ATOM      9  C   UNL A   1      39.227 -19.616 -38.839  0.00  0.00    +0.012 C 
BRANCH   9  12
ATOM     10  C   UNL A   1      41.428 -20.791 -38.432  0.00  0.00    +0.246 C 
ATOM     11  O   UNL A   1      41.972 -21.889 -38.438  0.00  0.00    -0.270 OA
ATOM     12  N   UNL A   1      40.269 -20.587 -39.147  0.00  0.00    -0.311 N 
ATOM     13  H   UNL A   1      40.132 -21.151 -39.941  0.00  0.00    +0.000 HD
BRANCH  10  19
ATOM     14  C   UNL A   1      42.233 -19.760 -36.270  0.00  0.00    +0.044 A 
ATOM     15  C   UNL A   1      42.808 -18.648 -35.635  0.00  0.00    -0.040 A 
ATOM     16  C   UNL A   1      43.103 -17.478 -36.343  0.00  0.00    -0.060 A 
ATOM     17  C   UNL A   1      42.833 -17.395 -37.706  0.00  0.00    -0.061 A 
ATOM     18  C   UNL A   1      42.286 -18.492 -38.368  0.00  0.00    -0.048 A 
ATOM     19  C   UNL A   1      42.016 -19.673 -37.661  0.00  0.00    +0.058 A 
BRANCH  14  20
ATOM     20  N   UNL A   1      41.928 -20.934 -35.543  0.00  0.00    -0.314 N 
ATOM     21  H   UNL A   1      42.711 -21.466 -35.274  0.00  0.00    +0.000 HD
BRANCH  20  27
ATOM     22  C   UNL A   1      37.862 -20.693 -32.640  0.00  0.00    -0.039 C 
ATOM     23  C   UNL A   1      38.699 -21.354 -33.701  0.00  0.00    -0.046 A 
ATOM     24  C   UNL A   1      38.245 -22.558 -34.260  0.00  0.00    -0.058 A 
ATOM     25  C   UNL A   1      38.989 -23.213 -35.235  0.00  0.00    -0.060 A 
ATOM     26  C   UNL A   1      40.200 -22.676 -35.664  0.00  0.00    -0.040 A 
ATOM     27  C   UNL A   1      40.681 -21.469 -35.139  0.00  0.00    +0.035 A 
ATOM     28  C   UNL A   1      39.913 -20.787 -34.161  0.00  0.00    -0.026 A 
ATOM     29  C   UNL A   1      40.417 -19.487 -33.582  0.00  0.00    -0.038 C 
ENDBRANCH  20  27
ENDBRANCH  14  20
ENDBRANCH  10  19
ENDBRANCH   9  12
ENDBRANCH   8   9
ENDBRANCH   7   8
ENDBRANCH   6   7
ENDBRANCH   5   6
ENDBRANCH   1   5
BRANCH   3  30
ATOM     30  C   UNL A   1      40.876 -14.500 -39.073  0.00  0.00    +0.012 C 
BRANCH  30  31
ATOM     31  C   UNL A   1      40.959 -14.985 -40.521  0.00  0.00    -0.037 C 
BRANCH  31  32
ATOM     32  C   UNL A   1      42.140 -14.418 -41.310  0.00  0.00    -0.052 C 
BRANCH  32  33
ATOM     33  C   UNL A   1      43.134 -15.505 -41.731  0.00  0.00    -0.052 C 
BRANCH  33  34
ATOM     34  C   UNL A   1      44.565 -15.162 -41.314  0.00  0.00    -0.037 C 
BRANCH  34  35
ATOM     35  C   UNL A   1      44.946 -15.874 -40.015  0.00  0.00    +0.009 C 
BRANCH  35  36
ATOM     36  N   UNL A   1      46.028 -16.831 -40.290  0.00  0.00    -0.343 N 
ATOM     37  H   UNL A   1      46.857 -16.604 -40.769  0.00  0.00    +0.000 HD
BRANCH  36  38
ATOM     38  C   UNL A   1      45.728 -18.129 -39.778  0.00  0.00    +0.041 A 
ATOM     39  C   UNL A   1      45.159 -19.109 -40.619  0.00  0.00    -0.005 A 
ATOM     40  C   UNL A   1      44.939 -20.378 -40.076  0.00  0.00    +0.047 A 
ATOM     41  N   UNL A   1      45.299 -20.721 -38.817  0.00  0.00    -0.251 NA
ATOM     42  C   UNL A   1      45.856 -19.794 -38.025  0.00  0.00    +0.073 A 
ATOM     43  C   UNL A   1      46.210 -20.163 -36.733  0.00  0.00    -0.036 A 
ATOM     44  C   UNL A   1      46.778 -19.259 -35.833  0.00  0.00    -0.060 A 
ATOM     45  C   UNL A   1      46.990 -17.946 -36.225  0.00  0.00    -0.061 A 
ATOM     46  C   UNL A   1      46.642 -17.555 -37.517  0.00  0.00    -0.051 A 
ATOM     47  C   UNL A   1      46.089 -18.471 -38.445  0.00  0.00    +0.021 A 
ATOM     48  C   UNL A   1      44.331 -21.494 -40.887  0.00  0.00    -0.010 C 
ATOM     49  C   UNL A   1      43.549 -21.000 -42.098  0.00  0.00    -0.047 C 
ATOM     50  C   UNL A   1      44.398 -20.014 -42.885  0.00  0.00    -0.049 C 
ATOM     51  C   UNL A   1      44.728 -18.791 -42.032  0.00  0.00    -0.024 C 
ENDBRANCH  36  38
ENDBRANCH  35  36
ENDBRANCH  34  35
ENDBRANCH  33  34
ENDBRANCH  32  33
ENDBRANCH  31  32
ENDBRANCH  30  31
ENDBRANCH   3  30
TORSDOF 17
ENDMDL
MODEL 12
REMARK VINA RESULT:    -6.647      2.241      7.526
REMARK INTER + INTRA:         -18.297
REMARK INTER:                 -12.349
REMARK INTRA:                  -5.948
REMARK UNBOUND:                -5.044
REMARK  Name = cpd183.pdb
REMARK  19 active torsions:
REMARK  status: ('A' for Active; 'I' for Inactive)
REMARK    1  A    between atoms: C_1  and  C_2
REMARK    2  A    between atoms: C_6  and  N_7
REMARK    3  A    between atoms: N_7  and  C_8
REMARK    4  A    between atoms: C_13  and  C_14
REMARK    5  A    between atoms: N_16  and  C_17
REMARK    6  A    between atoms: C_17  and  C_18
REMARK    7  A    between atoms: C_18  and  C_19
REMARK    8  A    between atoms: C_19  and  C_20
REMARK    9  A    between atoms: C_20  and  C_21
REMARK   10  A    between atoms: C_21  and  C_22
REMARK   11  A    between atoms: N_24  and  C_25
REMARK   12  A    between atoms: C_25  and  C_26
REMARK   13  A    between atoms: C_26  and  C_27
REMARK   14  A    between atoms: C_27  and  C_28
REMARK   15  A    between atoms: C_28  and  C_29
REMARK   16  A    between atoms: C_29  and  C_30
REMARK   17  A    between atoms: C_30  and  N_31
REMARK   18  A    between atoms: N_31  and  C_32
REMARK   19  A    between atoms: C_46  and  C_47
REMARK                            x       y       z     vdW  Elec       q    Type
REMARK                         _______ _______ _______ _____ _____    ______ ____
ROOT
ATOM      1  C   UNL A   1      40.645 -21.494 -36.555  0.00  0.00    +0.213 C 
ATOM      2  O   UNL A   1      39.516 -21.102 -36.832  0.00  0.00    -0.276 OA
ATOM      3  N   UNL A   1      40.934 -22.296 -35.470  0.00  0.00    -0.315 N 
ATOM      4  H   UNL A   1      41.871 -22.454 -35.214  0.00  0.00    +0.000 HD
ENDROOT
BRANCH   1   5
ATOM      5  C   UNL A   1      41.837 -21.195 -37.437  0.00  0.00    +0.024 C 
BRANCH   5   6
ATOM      6  C   UNL A   1      43.093 -21.072 -36.578  0.00  0.00    -0.045 C 
BRANCH   6   7
ATOM      7  C   UNL A   1      43.273 -19.692 -35.946  0.00  0.00    -0.051 C 
BRANCH   7   8
ATOM      8  C   UNL A   1      43.732 -19.748 -34.487  0.00  0.00    -0.037 C 
BRANCH   8   9
ATOM      9  C   UNL A   1      44.995 -18.919 -34.245  0.00  0.00    +0.012 C 
BRANCH   9  12
ATOM     10  C   UNL A   1      47.275 -19.255 -35.284  0.00  0.00    +0.246 C 
ATOM     11  O   UNL A   1      48.400 -19.688 -35.066  0.00  0.00    -0.270 OA
ATOM     12  N   UNL A   1      46.210 -19.675 -34.520  0.00  0.00    -0.311 N 
ATOM     13  H   UNL A   1      46.276 -20.573 -34.120  0.00  0.00    +0.000 HD
BRANCH  10  19
ATOM     14  C   UNL A   1      46.531 -18.673 -37.628  0.00  0.00    +0.044 A 
ATOM     15  C   UNL A   1      46.345 -17.670 -38.592  0.00  0.00    -0.040 A 
ATOM     16  C   UNL A   1      46.712 -16.344 -38.343  0.00  0.00    -0.060 A 
ATOM     17  C   UNL A   1      47.272 -15.989 -37.118  0.00  0.00    -0.061 A 
ATOM     18  C   UNL A   1      47.445 -16.958 -36.133  0.00  0.00    -0.048 A 
ATOM     19  C   UNL A   1      47.050 -18.282 -36.376  0.00  0.00    +0.058 A 
BRANCH  14  20
ATOM     20  N   UNL A   1      46.166 -20.013 -37.894  0.00  0.00    -0.314 N 
ATOM     21  H   UNL A   1      45.660 -20.452 -37.174  0.00  0.00    +0.000 HD
BRANCH  20  27
ATOM     22  C   UNL A   1      44.642 -21.889 -42.273  0.00  0.00    -0.039 C 
ATOM     23  C   UNL A   1      45.650 -21.755 -41.164  0.00  0.00    -0.046 A 
ATOM     24  C   UNL A   1      46.836 -22.499 -41.243  0.00  0.00    -0.058 A 
ATOM     25  C   UNL A   1      47.793 -22.419 -40.238  0.00  0.00    -0.060 A 
ATOM     26  C   UNL A   1      47.577 -21.595 -39.136  0.00  0.00    -0.040 A 
ATOM     27  C   UNL A   1      46.410 -20.826 -39.027  0.00  0.00    +0.035 A 
ATOM     28  C   UNL A   1      45.444 -20.889 -40.062  0.00  0.00    -0.026 A 
ATOM     29  C   UNL A   1      44.179 -20.070 -39.961  0.00  0.00    -0.038 C 
ENDBRANCH  20  27
ENDBRANCH  14  20
ENDBRANCH  10  19
ENDBRANCH   9  12
ENDBRANCH   8   9
ENDBRANCH   7   8
ENDBRANCH   6   7
ENDBRANCH   5   6
ENDBRANCH   1   5
BRANCH   3  30
ATOM     30  C   UNL A   1      39.864 -22.908 -34.706  0.00  0.00    +0.012 C 
BRANCH  30  31
ATOM     31  C   UNL A   1      40.194 -22.864 -33.213  0.00  0.00    -0.037 C 
BRANCH  31  32
ATOM     32  C   UNL A   1      40.882 -21.577 -32.757  0.00  0.00    -0.052 C 
BRANCH  32  33
ATOM     33  C   UNL A   1      39.878 -20.484 -32.377  0.00  0.00    -0.052 C 
BRANCH  33  34
ATOM     34  C   UNL A   1      40.368 -19.094 -32.785  0.00  0.00    -0.037 C 
BRANCH  34  35
ATOM     35  C   UNL A   1      40.032 -18.799 -34.248  0.00  0.00    +0.009 C 
BRANCH  35  36
ATOM     36  N   UNL A   1      39.972 -17.343 -34.444  0.00  0.00    -0.343 N 
ATOM     37  H   UNL A   1      39.245 -16.771 -34.109  0.00  0.00    +0.000 HD
BRANCH  36  38
ATOM     38  C   UNL A   1      41.097 -16.861 -35.178  0.00  0.00    +0.041 A 
ATOM     39  C   UNL A   1      42.176 -16.250 -34.503  0.00  0.00    -0.005 A 
ATOM     40  C   UNL A   1      43.273 -15.848 -35.270  0.00  0.00    +0.047 A 
ATOM     41  N   UNL A   1      43.371 -16.070 -36.602  0.00  0.00    -0.251 NA
ATOM     42  C   UNL A   1      42.353 -16.665 -37.239  0.00  0.00    +0.073 A 
ATOM     43  C   UNL A   1      42.469 -16.874 -38.608  0.00  0.00    -0.036 A 
ATOM     44  C   UNL A   1      41.451 -17.471 -39.355  0.00  0.00    -0.060 A 
ATOM     45  C   UNL A   1      40.279 -17.858 -38.726  0.00  0.00    -0.061 A 
ATOM     46  C   UNL A   1      40.142 -17.657 -37.353  0.00  0.00    -0.051 A 
ATOM     47  C   UNL A   1      41.178 -17.077 -36.582  0.00  0.00    +0.021 A 
ATOM     48  C   UNL A   1      44.475 -15.183 -34.649  0.00  0.00    -0.010 C 
ATOM     49  C   UNL A   1      44.179 -14.556 -33.291  0.00  0.00    -0.047 C 
ATOM     50  C   UNL A   1      43.468 -15.569 -32.407  0.00  0.00    -0.049 C 
ATOM     51  C   UNL A   1      42.128 -15.969 -33.020  0.00  0.00    -0.024 C 
ENDBRANCH  36  38
ENDBRANCH  35  36
ENDBRANCH  34  35
ENDBRANCH  33  34
ENDBRANCH  32  33
ENDBRANCH  31  32
ENDBRANCH  30  31
ENDBRANCH   3  30
TORSDOF 17
ENDMDL
MODEL 13
REMARK VINA RESULT:    -6.531      2.645      7.395
REMARK INTER + INTRA:         -18.066
REMARK INTER:                 -11.750
REMARK INTRA:                  -6.316
REMARK UNBOUND:                -5.044
REMARK  Name = cpd183.pdb
REMARK  19 active torsions:
REMARK  status: ('A' for Active; 'I' for Inactive)
REMARK    1  A    between atoms: C_1  and  C_2
REMARK    2  A    between atoms: C_6  and  N_7
REMARK    3  A    between atoms: N_7  and  C_8
REMARK    4  A    between atoms: C_13  and  C_14
REMARK    5  A    between atoms: N_16  and  C_17
REMARK    6  A    between atoms: C_17  and  C_18
REMARK    7  A    between atoms: C_18  and  C_19
REMARK    8  A    between atoms: C_19  and  C_20
REMARK    9  A    between atoms: C_20  and  C_21
REMARK   10  A    between atoms: C_21  and  C_22
REMARK   11  A    between atoms: N_24  and  C_25
REMARK   12  A    between atoms: C_25  and  C_26
REMARK   13  A    between atoms: C_26  and  C_27
REMARK   14  A    between atoms: C_27  and  C_28
REMARK   15  A    between atoms: C_28  and  C_29
REMARK   16  A    between atoms: C_29  and  C_30
REMARK   17  A    between atoms: C_30  and  N_31
REMARK   18  A    between atoms: N_31  and  C_32
REMARK   19  A    between atoms: C_46  and  C_47
REMARK                            x       y       z     vdW  Elec       q    Type
REMARK                         _______ _______ _______ _____ _____    ______ ____
ROOT
ATOM      1  C   UNL A   1      44.448 -14.053 -39.432  0.00  0.00    +0.213 C 
ATOM      2  O   UNL A   1      44.402 -13.656 -38.272  0.00  0.00    -0.276 OA
ATOM      3  N   UNL A   1      43.359 -14.555 -40.115  0.00  0.00    -0.315 N 
ATOM      4  H   UNL A   1      43.488 -14.994 -40.986  0.00  0.00    +0.000 HD
ENDROOT
BRANCH   1   5
ATOM      5  C   UNL A   1      45.706 -13.952 -40.264  0.00  0.00    +0.024 C 
BRANCH   5   6
ATOM      6  C   UNL A   1      46.409 -15.306 -40.297  0.00  0.00    -0.045 C 
BRANCH   6   7
ATOM      7  C   UNL A   1      47.284 -15.576 -39.072  0.00  0.00    -0.051 C 
BRANCH   7   8
ATOM      8  C   UNL A   1      46.882 -16.839 -38.306  0.00  0.00    -0.037 C 
BRANCH   8   9
ATOM      9  C   UNL A   1      46.753 -16.587 -36.802  0.00  0.00    +0.012 C 
BRANCH   9  12
ATOM     10  C   UNL A   1      46.858 -18.696 -35.412  0.00  0.00    +0.246 C 
ATOM     11  O   UNL A   1      47.512 -19.714 -35.218  0.00  0.00    -0.270 OA
ATOM     12  N   UNL A   1      47.439 -17.603 -36.013  0.00  0.00    -0.311 N 
ATOM     13  H   UNL A   1      48.411 -17.497 -35.900  0.00  0.00    +0.000 HD
BRANCH  10  19
ATOM     14  C   UNL A   1      44.410 -19.213 -35.759  0.00  0.00    +0.044 A 
ATOM     15  C   UNL A   1      43.099 -19.106 -35.268  0.00  0.00    -0.040 A 
ATOM     16  C   UNL A   1      42.819 -18.401 -34.093  0.00  0.00    -0.060 A 
ATOM     17  C   UNL A   1      43.845 -17.789 -33.379  0.00  0.00    -0.061 A 
ATOM     18  C   UNL A   1      45.159 -17.900 -33.829  0.00  0.00    -0.048 A 
ATOM     19  C   UNL A   1      45.441 -18.631 -34.993  0.00  0.00    +0.058 A 
BRANCH  14  20
ATOM     20  N   UNL A   1      44.681 -19.919 -36.954  0.00  0.00    -0.314 N 
ATOM     21  H   UNL A   1      44.998 -20.841 -36.824  0.00  0.00    +0.000 HD
BRANCH  20  27
ATOM     22  C   UNL A   1      46.315 -20.155 -41.676  0.00  0.00    -0.039 C 
ATOM     23  C   UNL A   1      45.388 -19.623 -40.615  0.00  0.00    -0.046 A 
ATOM     24  C   UNL A   1      44.431 -18.666 -40.981  0.00  0.00    -0.058 A 
ATOM     25  C   UNL A   1      43.561 -18.134 -40.035  0.00  0.00    -0.060 A 
ATOM     26  C   UNL A   1      43.637 -18.551 -38.708  0.00  0.00    -0.040 A 
ATOM     27  C   UNL A   1      44.572 -19.515 -38.307  0.00  0.00    +0.035 A 
ATOM     28  C   UNL A   1      45.445 -20.075 -39.274  0.00  0.00    -0.026 A 
ATOM     29  C   UNL A   1      46.461 -21.113 -38.860  0.00  0.00    -0.038 C 
ENDBRANCH  20  27
ENDBRANCH  14  20
ENDBRANCH  10  19
ENDBRANCH   9  12
ENDBRANCH   8   9
ENDBRANCH   7   8
ENDBRANCH   6   7
ENDBRANCH   5   6
ENDBRANCH   1   5
BRANCH   3  30
ATOM     30  C   UNL A   1      42.026 -14.440 -39.556  0.00  0.00    +0.012 C 
BRANCH  30  31
ATOM     31  C   UNL A   1      41.017 -15.163 -40.450  0.00  0.00    -0.037 C 
BRANCH  31  32
ATOM     32  C   UNL A   1      40.388 -16.404 -39.815  0.00  0.00    -0.052 C 
BRANCH  32  33
ATOM     33  C   UNL A   1      38.866 -16.287 -39.694  0.00  0.00    -0.052 C 
BRANCH  33  34
ATOM     34  C   UNL A   1      38.213 -17.634 -39.381  0.00  0.00    -0.037 C 
BRANCH  34  35
ATOM     35  C   UNL A   1      38.701 -18.184 -38.038  0.00  0.00    +0.009 C 
BRANCH  35  36
ATOM     36  N   UNL A   1      38.319 -19.599 -37.931  0.00  0.00    -0.343 N 
ATOM     37  H   UNL A   1      37.444 -19.957 -38.204  0.00  0.00    +0.000 HD
BRANCH  36  38
ATOM     38  C   UNL A   1      39.372 -20.391 -37.381  0.00  0.00    +0.041 A 
ATOM     39  C   UNL A   1      39.360 -20.735 -36.012  0.00  0.00    -0.005 A 
ATOM     40  C   UNL A   1      40.388 -21.558 -35.544  0.00  0.00    +0.047 A 
ATOM     41  N   UNL A   1      41.345 -22.081 -36.346  0.00  0.00    -0.251 NA
ATOM     42  C   UNL A   1      41.345 -21.767 -37.649  0.00  0.00    +0.073 A 
ATOM     43  C   UNL A   1      42.342 -22.308 -38.453  0.00  0.00    -0.036 A 
ATOM     44  C   UNL A   1      42.430 -22.021 -39.817  0.00  0.00    -0.060 A 
ATOM     45  C   UNL A   1      41.507 -21.163 -40.396  0.00  0.00    -0.061 A 
ATOM     46  C   UNL A   1      40.500 -20.611 -39.607  0.00  0.00    -0.051 A 
ATOM     47  C   UNL A   1      40.387 -20.916 -38.229  0.00  0.00    +0.021 A 
ATOM     48  C   UNL A   1      40.472 -21.980 -34.100  0.00  0.00    -0.010 C 
ATOM     49  C   UNL A   1      39.694 -21.066 -33.161  0.00  0.00    -0.047 C 
ATOM     50  C   UNL A   1      38.286 -20.865 -33.698  0.00  0.00    -0.049 C 
ATOM     51  C   UNL A   1      38.325 -20.180 -35.063  0.00  0.00    -0.024 C 
ENDBRANCH  36  38
ENDBRANCH  35  36
ENDBRANCH  34  35
ENDBRANCH  33  34
ENDBRANCH  32  33
ENDBRANCH  31  32
ENDBRANCH  30  31
ENDBRANCH   3  30
TORSDOF 17
ENDMDL
MODEL 14
REMARK VINA RESULT:    -6.527     17.977     22.739
REMARK INTER + INTRA:         -18.057
REMARK INTER:                 -11.955
REMARK INTRA:                  -6.102
REMARK UNBOUND:                -5.044
REMARK  Name = cpd183.pdb
REMARK  19 active torsions:
REMARK  status: ('A' for Active; 'I' for Inactive)
REMARK    1  A    between atoms: C_1  and  C_2
REMARK    2  A    between atoms: C_6  and  N_7
REMARK    3  A    between atoms: N_7  and  C_8
REMARK    4  A    between atoms: C_13  and  C_14
REMARK    5  A    between atoms: N_16  and  C_17
REMARK    6  A    between atoms: C_17  and  C_18
REMARK    7  A    between atoms: C_18  and  C_19
REMARK    8  A    between atoms: C_19  and  C_20
REMARK    9  A    between atoms: C_20  and  C_21
REMARK   10  A    between atoms: C_21  and  C_22
REMARK   11  A    between atoms: N_24  and  C_25
REMARK   12  A    between atoms: C_25  and  C_26
REMARK   13  A    between atoms: C_26  and  C_27
REMARK   14  A    between atoms: C_27  and  C_28
REMARK   15  A    between atoms: C_28  and  C_29
REMARK   16  A    between atoms: C_29  and  C_30
REMARK   17  A    between atoms: C_30  and  N_31
REMARK   18  A    between atoms: N_31  and  C_32
REMARK   19  A    between atoms: C_46  and  C_47
REMARK                            x       y       z     vdW  Elec       q    Type
REMARK                         _______ _______ _______ _____ _____    ______ ____
ROOT
ATOM      1  C   UNL A   1      32.369 -38.037 -32.354  0.00  0.00    +0.213 C 
ATOM      2  O   UNL A   1      33.522 -37.638 -32.216  0.00  0.00    -0.276 OA
ATOM      3  N   UNL A   1      31.274 -37.430 -31.776  0.00  0.00    -0.315 N 
ATOM      4  H   UNL A   1      30.398 -37.878 -31.798  0.00  0.00    +0.000 HD
ENDROOT
BRANCH   1   5
ATOM      5  C   UNL A   1      32.027 -39.205 -33.251  0.00  0.00    +0.024 C 
BRANCH   5   6
ATOM      6  C   UNL A   1      33.311 -39.891 -33.711  0.00  0.00    -0.045 C 
BRANCH   6   7
ATOM      7  C   UNL A   1      33.274 -41.414 -33.581  0.00  0.00    -0.051 C 
BRANCH   7   8
ATOM      8  C   UNL A   1      32.020 -41.933 -32.872  0.00  0.00    -0.037 C 
BRANCH   8   9
ATOM      9  C   UNL A   1      32.307 -42.368 -31.433  0.00  0.00    +0.012 C 
BRANCH   9  12
ATOM     10  C   UNL A   1      32.413 -40.513 -29.720  0.00  0.00    +0.246 C 
ATOM     11  O   UNL A   1      31.843 -39.500 -29.331  0.00  0.00    -0.270 OA
ATOM     12  N   UNL A   1      31.730 -41.453 -30.456  0.00  0.00    -0.311 N 
ATOM     13  H   UNL A   1      30.759 -41.514 -30.309  0.00  0.00    +0.000 HD
BRANCH  10  19
ATOM     14  C   UNL A   1      34.243 -41.316 -28.174  0.00  0.00    +0.044 A 
ATOM     15  C   UNL A   1      35.620 -41.495 -27.968  0.00  0.00    -0.040 A 
ATOM     16  C   UNL A   1      36.559 -41.063 -28.910  0.00  0.00    -0.060 A 
ATOM     17  C   UNL A   1      36.141 -40.444 -30.085  0.00  0.00    -0.061 A 
ATOM     18  C   UNL A   1      34.780 -40.276 -30.328  0.00  0.00    -0.048 A 
ATOM     19  C   UNL A   1      33.839 -40.735 -29.394  0.00  0.00    +0.058 A 
BRANCH  14  20
ATOM     20  N   UNL A   1      33.303 -41.747 -27.210  0.00  0.00    -0.314 N 
ATOM     21  H   UNL A   1      32.964 -42.661 -27.346  0.00  0.00    +0.000 HD
BRANCH  20  27
ATOM     22  C   UNL A   1      29.337 -40.207 -24.579  0.00  0.00    -0.039 C 
ATOM     23  C   UNL A   1      30.821 -40.313 -24.806  0.00  0.00    -0.046 A 
ATOM     24  C   UNL A   1      31.684 -39.686 -23.896  0.00  0.00    -0.058 A 
ATOM     25  C   UNL A   1      33.063 -39.745 -24.069  0.00  0.00    -0.060 A 
ATOM     26  C   UNL A   1      33.599 -40.430 -25.157  0.00  0.00    -0.040 A 
ATOM     27  C   UNL A   1      32.769 -41.079 -26.081  0.00  0.00    +0.035 A 
ATOM     28  C   UNL A   1      31.364 -41.040 -25.894  0.00  0.00    -0.026 A 
ATOM     29  C   UNL A   1      30.454 -41.732 -26.881  0.00  0.00    -0.038 C 
ENDBRANCH  20  27
ENDBRANCH  14  20
ENDBRANCH  10  19
ENDBRANCH   9  12
ENDBRANCH   8   9
ENDBRANCH   7   8
ENDBRANCH   6   7
ENDBRANCH   5   6
ENDBRANCH   1   5
BRANCH   3  30
ATOM     30  C   UNL A   1      31.405 -36.135 -31.136  0.00  0.00    +0.012 C 
BRANCH  30  31
ATOM     31  C   UNL A   1      31.664 -35.054 -32.186  0.00  0.00    -0.037 C 
BRANCH  31  32
ATOM     32  C   UNL A   1      31.790 -33.640 -31.618  0.00  0.00    -0.052 C 
BRANCH  32  33
ATOM     33  C   UNL A   1      33.200 -33.347 -31.095  0.00  0.00    -0.052 C 
BRANCH  33  34
ATOM     34  C   UNL A   1      34.271 -34.080 -31.904  0.00  0.00    -0.037 C 
BRANCH  34  35
ATOM     35  C   UNL A   1      35.461 -34.465 -31.022  0.00  0.00    +0.009 C 
BRANCH  35  36
ATOM     36  N   UNL A   1      35.781 -35.883 -31.238  0.00  0.00    -0.343 N 
ATOM     37  H   UNL A   1      35.621 -36.363 -32.083  0.00  0.00    +0.000 HD
BRANCH  36  38
ATOM     38  C   UNL A   1      36.354 -36.481 -30.075  0.00  0.00    +0.041 A 
ATOM     39  C   UNL A   1      35.540 -36.793 -28.964  0.00  0.00    -0.005 A 
ATOM     40  C   UNL A   1      36.147 -37.426 -27.877  0.00  0.00    +0.047 A 
ATOM     41  N   UNL A   1      37.448 -37.802 -27.866  0.00  0.00    -0.251 NA
ATOM     42  C   UNL A   1      38.215 -37.520 -28.928  0.00  0.00    +0.073 A 
ATOM     43  C   UNL A   1      39.550 -37.907 -28.893  0.00  0.00    -0.036 A 
ATOM     44  C   UNL A   1      40.426 -37.638 -29.947  0.00  0.00    -0.060 A 
ATOM     45  C   UNL A   1      39.966 -36.955 -31.062  0.00  0.00    -0.061 A 
ATOM     46  C   UNL A   1      38.631 -36.559 -31.117  0.00  0.00    -0.051 A 
ATOM     47  C   UNL A   1      37.728 -36.849 -30.065  0.00  0.00    +0.021 A 
ATOM     48  C   UNL A   1      35.371 -37.799 -26.640  0.00  0.00    -0.010 C 
ATOM     49  C   UNL A   1      34.079 -37.005 -26.480  0.00  0.00    -0.047 C 
ATOM     50  C   UNL A   1      33.291 -37.048 -27.780  0.00  0.00    -0.049 C 
ATOM     51  C   UNL A   1      34.084 -36.396 -28.910  0.00  0.00    -0.024 C 
ENDBRANCH  36  38
ENDBRANCH  35  36
ENDBRANCH  34  35
ENDBRANCH  33  34
ENDBRANCH  32  33
ENDBRANCH  31  32
ENDBRANCH  30  31
ENDBRANCH   3  30
TORSDOF 17
ENDMDL
MODEL 15
REMARK VINA RESULT:    -6.434      2.606      8.461
REMARK INTER + INTRA:         -17.872
REMARK INTER:                 -12.929
REMARK INTRA:                  -4.943
REMARK UNBOUND:                -5.044
REMARK  Name = cpd183.pdb
REMARK  19 active torsions:
REMARK  status: ('A' for Active; 'I' for Inactive)
REMARK    1  A    between atoms: C_1  and  C_2
REMARK    2  A    between atoms: C_6  and  N_7
REMARK    3  A    between atoms: N_7  and  C_8
REMARK    4  A    between atoms: C_13  and  C_14
REMARK    5  A    between atoms: N_16  and  C_17
REMARK    6  A    between atoms: C_17  and  C_18
REMARK    7  A    between atoms: C_18  and  C_19
REMARK    8  A    between atoms: C_19  and  C_20
REMARK    9  A    between atoms: C_20  and  C_21
REMARK   10  A    between atoms: C_21  and  C_22
REMARK   11  A    between atoms: N_24  and  C_25
REMARK   12  A    between atoms: C_25  and  C_26
REMARK   13  A    between atoms: C_26  and  C_27
REMARK   14  A    between atoms: C_27  and  C_28
REMARK   15  A    between atoms: C_28  and  C_29
REMARK   16  A    between atoms: C_29  and  C_30
REMARK   17  A    between atoms: C_30  and  N_31
REMARK   18  A    between atoms: N_31  and  C_32
REMARK   19  A    between atoms: C_46  and  C_47
REMARK                            x       y       z     vdW  Elec       q    Type
REMARK                         _______ _______ _______ _____ _____    ______ ____
ROOT
ATOM      1  C   UNL A   1      44.536 -14.330 -40.703  0.00  0.00    +0.213 C 
ATOM      2  O   UNL A   1      44.209 -14.919 -41.729  0.00  0.00    -0.276 OA
ATOM      3  N   UNL A   1      43.907 -14.503 -39.486  0.00  0.00    -0.315 N 
ATOM      4  H   UNL A   1      44.114 -13.896 -38.739  0.00  0.00    +0.000 HD
ENDROOT
BRANCH   1   5
ATOM      5  C   UNL A   1      45.729 -13.403 -40.656  0.00  0.00    +0.024 C 
BRANCH   5   6
ATOM      6  C   UNL A   1      47.017 -14.221 -40.715  0.00  0.00    -0.045 C 
BRANCH   6   7
ATOM      7  C   UNL A   1      47.488 -14.727 -39.351  0.00  0.00    -0.051 C 
BRANCH   7   8
ATOM      8  C   UNL A   1      47.118 -16.188 -39.085  0.00  0.00    -0.037 C 
BRANCH   8   9
ATOM      9  C   UNL A   1      47.253 -17.057 -40.337  0.00  0.00    +0.012 C 
BRANCH   9  12
ATOM     10  C   UNL A   1      45.439 -18.762 -40.781  0.00  0.00    +0.246 C 
ATOM     11  O   UNL A   1      44.225 -18.933 -40.762  0.00  0.00    -0.270 OA
ATOM     12  N   UNL A   1      45.958 -17.488 -40.849  0.00  0.00    -0.311 N 
ATOM     13  H   UNL A   1      45.401 -16.804 -41.285  0.00  0.00    +0.000 HD
BRANCH  10  19
ATOM     14  C   UNL A   1      46.404 -20.793 -39.629  0.00  0.00    +0.044 A 
ATOM     15  C   UNL A   1      47.300 -21.871 -39.692  0.00  0.00    -0.040 A 
ATOM     16  C   UNL A   1      48.153 -22.045 -40.787  0.00  0.00    -0.060 A 
ATOM     17  C   UNL A   1      48.126 -21.143 -41.848  0.00  0.00    -0.061 A 
ATOM     18  C   UNL A   1      47.229 -20.078 -41.824  0.00  0.00    -0.048 A 
ATOM     19  C   UNL A   1      46.356 -19.922 -40.737  0.00  0.00    +0.058 A 
BRANCH  14  20
ATOM     20  N   UNL A   1      45.553 -20.620 -38.512  0.00  0.00    -0.314 N 
ATOM     21  H   UNL A   1      44.673 -21.053 -38.595  0.00  0.00    +0.000 HD
BRANCH  20  27
ATOM     22  C   UNL A   1      43.901 -19.224 -34.002  0.00  0.00    -0.039 C 
ATOM     23  C   UNL A   1      44.938 -19.233 -35.094  0.00  0.00    -0.046 A 
ATOM     24  C   UNL A   1      46.112 -18.490 -34.907  0.00  0.00    -0.058 A 
ATOM     25  C   UNL A   1      47.095 -18.456 -35.891  0.00  0.00    -0.060 A 
ATOM     26  C   UNL A   1      46.915 -19.164 -37.077  0.00  0.00    -0.040 A 
ATOM     27  C   UNL A   1      45.760 -19.927 -37.295  0.00  0.00    +0.035 A 
ATOM     28  C   UNL A   1      44.768 -19.982 -36.284  0.00  0.00    -0.026 A 
ATOM     29  C   UNL A   1      43.516 -20.797 -36.502  0.00  0.00    -0.038 C 
ENDBRANCH  20  27
ENDBRANCH  14  20
ENDBRANCH  10  19
ENDBRANCH   9  12
ENDBRANCH   8   9
ENDBRANCH   7   8
ENDBRANCH   6   7
ENDBRANCH   5   6
ENDBRANCH   1   5
BRANCH   3  30
ATOM     30  C   UNL A   1      42.945 -15.572 -39.303  0.00  0.00    +0.012 C 
BRANCH  30  31
ATOM     31  C   UNL A   1      43.470 -16.581 -38.281  0.00  0.00    -0.037 C 
BRANCH  31  32
ATOM     32  C   UNL A   1      42.446 -17.631 -37.847  0.00  0.00    -0.052 C 
BRANCH  32  33
ATOM     33  C   UNL A   1      41.630 -17.180 -36.632  0.00  0.00    -0.052 C 
BRANCH  33  34
ATOM     34  C   UNL A   1      40.830 -18.332 -36.023  0.00  0.00    -0.037 C 
BRANCH  34  35
ATOM     35  C   UNL A   1      39.327 -18.046 -36.071  0.00  0.00    +0.009 C 
BRANCH  35  36
ATOM     36  N   UNL A   1      38.700 -18.933 -37.061  0.00  0.00    -0.343 N 
ATOM     37  H   UNL A   1      38.040 -18.636 -37.728  0.00  0.00    +0.000 HD
BRANCH  36  38
ATOM     38  C   UNL A   1      39.164 -20.277 -36.937  0.00  0.00    +0.041 A 
ATOM     39  C   UNL A   1      38.768 -21.066 -35.836  0.00  0.00    -0.005 A 
ATOM     40  C   UNL A   1      39.211 -22.391 -35.798  0.00  0.00    +0.047 A 
ATOM     41  N   UNL A   1      39.941 -22.960 -36.786  0.00  0.00    -0.251 NA
ATOM     42  C   UNL A   1      40.302 -22.214 -37.839  0.00  0.00    +0.073 A 
ATOM     43  C   UNL A   1      41.060 -22.814 -38.838  0.00  0.00    -0.036 A 
ATOM     44  C   UNL A   1      41.496 -22.109 -39.962  0.00  0.00    -0.060 A 
ATOM     45  C   UNL A   1      41.181 -20.766 -40.091  0.00  0.00    -0.061 A 
ATOM     46  C   UNL A   1      40.422 -20.145 -39.101  0.00  0.00    -0.051 A 
ATOM     47  C   UNL A   1      39.953 -20.857 -37.970  0.00  0.00    +0.021 A 
ATOM     48  C   UNL A   1      38.849 -23.317 -34.665  0.00  0.00    -0.010 C 
ATOM     49  C   UNL A   1      38.431 -22.580 -33.398  0.00  0.00    -0.047 C 
ATOM     50  C   UNL A   1      37.383 -21.533 -33.740  0.00  0.00    -0.049 C 
ATOM     51  C   UNL A   1      37.959 -20.491 -34.698  0.00  0.00    -0.024 C 
ENDBRANCH  36  38
ENDBRANCH  35  36
ENDBRANCH  34  35
ENDBRANCH  33  34
ENDBRANCH  32  33
ENDBRANCH  31  32
ENDBRANCH  30  31
ENDBRANCH   3  30
TORSDOF 17
ENDMDL
MODEL 16
REMARK VINA RESULT:    -6.416      2.569      8.529
REMARK INTER + INTRA:         -17.837
REMARK INTER:                 -12.878
REMARK INTRA:                  -4.959
REMARK UNBOUND:                -5.044
REMARK  Name = cpd183.pdb
REMARK  19 active torsions:
REMARK  status: ('A' for Active; 'I' for Inactive)
REMARK    1  A    between atoms: C_1  and  C_2
REMARK    2  A    between atoms: C_6  and  N_7
REMARK    3  A    between atoms: N_7  and  C_8
REMARK    4  A    between atoms: C_13  and  C_14
REMARK    5  A    between atoms: N_16  and  C_17
REMARK    6  A    between atoms: C_17  and  C_18
REMARK    7  A    between atoms: C_18  and  C_19
REMARK    8  A    between atoms: C_19  and  C_20
REMARK    9  A    between atoms: C_20  and  C_21
REMARK   10  A    between atoms: C_21  and  C_22
REMARK   11  A    between atoms: N_24  and  C_25
REMARK   12  A    between atoms: C_25  and  C_26
REMARK   13  A    between atoms: C_26  and  C_27
REMARK   14  A    between atoms: C_27  and  C_28
REMARK   15  A    between atoms: C_28  and  C_29
REMARK   16  A    between atoms: C_29  and  C_30
REMARK   17  A    between atoms: C_30  and  N_31
REMARK   18  A    between atoms: N_31  and  C_32
REMARK   19  A    between atoms: C_46  and  C_47
REMARK                            x       y       z     vdW  Elec       q    Type
REMARK                         _______ _______ _______ _____ _____    ______ ____
ROOT
ATOM      1  C   UNL A   1      44.426 -14.391 -40.648  0.00  0.00    +0.213 C 
ATOM      2  O   UNL A   1      44.070 -15.049 -41.620  0.00  0.00    -0.276 OA
ATOM      3  N   UNL A   1      43.857 -14.503 -39.396  0.00  0.00    -0.315 N 
ATOM      4  H   UNL A   1      44.081 -13.848 -38.696  0.00  0.00    +0.000 HD
ENDROOT
BRANCH   1   5
ATOM      5  C   UNL A   1      45.596 -13.436 -40.711  0.00  0.00    +0.024 C 
BRANCH   5   6
ATOM      6  C   UNL A   1      46.902 -14.226 -40.761  0.00  0.00    -0.045 C 
BRANCH   6   7
ATOM      7  C   UNL A   1      47.413 -14.656 -39.386  0.00  0.00    -0.051 C 
BRANCH   7   8
ATOM      8  C   UNL A   1      47.168 -16.137 -39.083  0.00  0.00    -0.037 C 
BRANCH   8   9
ATOM      9  C   UNL A   1      47.243 -17.005 -40.341  0.00  0.00    +0.012 C 
BRANCH   9  12
ATOM     10  C   UNL A   1      45.380 -18.667 -40.741  0.00  0.00    +0.246 C 
ATOM     11  O   UNL A   1      44.165 -18.814 -40.683  0.00  0.00    -0.270 OA
ATOM     12  N   UNL A   1      45.923 -17.404 -40.814  0.00  0.00    -0.311 N 
ATOM     13  H   UNL A   1      45.366 -16.704 -41.224  0.00  0.00    +0.000 HD
BRANCH  10  19
ATOM     14  C   UNL A   1      46.327 -20.740 -39.650  0.00  0.00    +0.044 A 
ATOM     15  C   UNL A   1      47.199 -21.835 -39.754  0.00  0.00    -0.040 A 
ATOM     16  C   UNL A   1      48.025 -22.003 -40.870  0.00  0.00    -0.060 A 
ATOM     17  C   UNL A   1      47.995 -21.081 -41.912  0.00  0.00    -0.061 A 
ATOM     18  C   UNL A   1      47.120 -19.998 -41.848  0.00  0.00    -0.048 A 
ATOM     19  C   UNL A   1      46.273 -19.846 -40.740  0.00  0.00    +0.058 A 
BRANCH  14  20
ATOM     20  N   UNL A   1      45.504 -20.573 -38.512  0.00  0.00    -0.314 N 
ATOM     21  H   UNL A   1      44.611 -20.979 -38.588  0.00  0.00    +0.000 HD
BRANCH  20  27
ATOM     22  C   UNL A   1      44.035 -19.358 -33.888  0.00  0.00    -0.039 C 
ATOM     23  C   UNL A   1      45.021 -19.311 -35.024  0.00  0.00    -0.046 A 
ATOM     24  C   UNL A   1      46.190 -18.554 -34.865  0.00  0.00    -0.058 A 
ATOM     25  C   UNL A   1      47.127 -18.470 -35.890  0.00  0.00    -0.060 A 
ATOM     26  C   UNL A   1      46.905 -19.141 -37.091  0.00  0.00    -0.040 A 
ATOM     27  C   UNL A   1      45.754 -19.917 -37.282  0.00  0.00    +0.035 A 
ATOM     28  C   UNL A   1      44.810 -20.023 -36.230  0.00  0.00    -0.026 A 
ATOM     29  C   UNL A   1      43.563 -20.854 -36.420  0.00  0.00    -0.038 C 
ENDBRANCH  20  27
ENDBRANCH  14  20
ENDBRANCH  10  19
ENDBRANCH   9  12
ENDBRANCH   8   9
ENDBRANCH   7   8
ENDBRANCH   6   7
ENDBRANCH   5   6
ENDBRANCH   1   5
BRANCH   3  30
ATOM     30  C   UNL A   1      42.932 -15.581 -39.104  0.00  0.00    +0.012 C 
BRANCH  30  31
ATOM     31  C   UNL A   1      43.530 -16.516 -38.052  0.00  0.00    -0.037 C 
BRANCH  31  32
ATOM     32  C   UNL A   1      42.578 -17.611 -37.568  0.00  0.00    -0.052 C 
BRANCH  32  33
ATOM     33  C   UNL A   1      41.651 -17.122 -36.451  0.00  0.00    -0.052 C 
BRANCH  33  34
ATOM     34  C   UNL A   1      41.084 -18.283 -35.632  0.00  0.00    -0.037 C 
BRANCH  34  35
ATOM     35  C   UNL A   1      39.555 -18.231 -35.587  0.00  0.00    +0.009 C 
BRANCH  35  36
ATOM     36  N   UNL A   1      39.016 -18.867 -36.797  0.00  0.00    -0.343 N 
ATOM     37  H   UNL A   1      38.535 -18.384 -37.507  0.00  0.00    +0.000 HD
BRANCH  36  38
ATOM     38  C   UNL A   1      39.273 -20.271 -36.816  0.00  0.00    +0.041 A 
ATOM     39  C   UNL A   1      40.070 -20.833 -37.837  0.00  0.00    -0.005 A 
ATOM     40  C   UNL A   1      40.332 -22.203 -37.771  0.00  0.00    +0.047 A 
ATOM     41  N   UNL A   1      39.913 -22.993 -36.755  0.00  0.00    -0.251 NA
ATOM     42  C   UNL A   1      39.171 -22.455 -35.777  0.00  0.00    +0.073 A 
ATOM     43  C   UNL A   1      38.743 -23.285 -34.747  0.00  0.00    -0.036 A 
ATOM     44  C   UNL A   1      37.952 -22.815 -33.697  0.00  0.00    -0.060 A 
ATOM     45  C   UNL A   1      37.564 -21.485 -33.676  0.00  0.00    -0.061 A 
ATOM     46  C   UNL A   1      37.983 -20.636 -34.699  0.00  0.00    -0.051 A 
ATOM     47  C   UNL A   1      38.807 -21.096 -35.754  0.00  0.00    +0.021 A 
ATOM     48  C   UNL A   1      41.167 -22.903 -38.813  0.00  0.00    -0.010 C 
ATOM     49  C   UNL A   1      41.249 -22.138 -40.129  0.00  0.00    -0.047 C 
ATOM     50  C   UNL A   1      41.631 -20.692 -39.855  0.00  0.00    -0.049 C 
ATOM     51  C   UNL A   1      40.563 -20.008 -39.002  0.00  0.00    -0.024 C 
ENDBRANCH  36  38
ENDBRANCH  35  36
ENDBRANCH  34  35
ENDBRANCH  33  34
ENDBRANCH  32  33
ENDBRANCH  31  32
ENDBRANCH  30  31
ENDBRANCH   3  30
TORSDOF 17
ENDMDL
MODEL 17
REMARK VINA RESULT:    -6.388      2.506      5.789
REMARK INTER + INTRA:         -17.781
REMARK INTER:                 -11.041
REMARK INTRA:                  -6.740
REMARK UNBOUND:                -5.044
REMARK  Name = cpd183.pdb
REMARK  19 active torsions:
REMARK  status: ('A' for Active; 'I' for Inactive)
REMARK    1  A    between atoms: C_1  and  C_2
REMARK    2  A    between atoms: C_6  and  N_7
REMARK    3  A    between atoms: N_7  and  C_8
REMARK    4  A    between atoms: C_13  and  C_14
REMARK    5  A    between atoms: N_16  and  C_17
REMARK    6  A    between atoms: C_17  and  C_18
REMARK    7  A    between atoms: C_18  and  C_19
REMARK    8  A    between atoms: C_19  and  C_20
REMARK    9  A    between atoms: C_20  and  C_21
REMARK   10  A    between atoms: C_21  and  C_22
REMARK   11  A    between atoms: N_24  and  C_25
REMARK   12  A    between atoms: C_25  and  C_26
REMARK   13  A    between atoms: C_26  and  C_27
REMARK   14  A    between atoms: C_27  and  C_28
REMARK   15  A    between atoms: C_28  and  C_29
REMARK   16  A    between atoms: C_29  and  C_30
REMARK   17  A    between atoms: C_30  and  N_31
REMARK   18  A    between atoms: N_31  and  C_32
REMARK   19  A    between atoms: C_46  and  C_47
REMARK                            x       y       z     vdW  Elec       q    Type
REMARK                         _______ _______ _______ _____ _____    ______ ____
ROOT
ATOM      1  C   UNL A   1      41.754 -15.496 -38.027  0.00  0.00    +0.213 C 
ATOM      2  O   UNL A   1      41.657 -14.452 -37.390  0.00  0.00    -0.276 OA
ATOM      3  N   UNL A   1      41.706 -15.562 -39.404  0.00  0.00    -0.315 N 
ATOM      4  H   UNL A   1      41.638 -16.437 -39.850  0.00  0.00    +0.000 HD
ENDROOT
BRANCH   1   5
ATOM      5  C   UNL A   1      42.021 -16.824 -37.354  0.00  0.00    +0.024 C 
BRANCH   5   6
ATOM      6  C   UNL A   1      40.940 -17.827 -37.751  0.00  0.00    -0.045 C 
BRANCH   6   7
ATOM      7  C   UNL A   1      39.918 -18.099 -36.647  0.00  0.00    -0.051 C 
BRANCH   7   8
ATOM      8  C   UNL A   1      38.985 -19.272 -36.960  0.00  0.00    -0.037 C 
BRANCH   8   9
ATOM      9  C   UNL A   1      39.087 -19.719 -38.420  0.00  0.00    +0.012 C 
BRANCH   9  12
ATOM     10  C   UNL A   1      40.281 -21.941 -38.253  0.00  0.00    +0.246 C 
ATOM     11  O   UNL A   1      40.141 -23.109 -37.908  0.00  0.00    -0.270 OA
ATOM     12  N   UNL A   1      39.180 -21.168 -38.546  0.00  0.00    -0.311 N 
ATOM     13  H   UNL A   1      38.380 -21.639 -38.872  0.00  0.00    +0.000 HD
BRANCH  10  19
ATOM     14  C   UNL A   1      42.464 -21.175 -37.237  0.00  0.00    +0.044 A 
ATOM     15  C   UNL A   1      43.736 -20.621 -37.453  0.00  0.00    -0.040 A 
ATOM     16  C   UNL A   1      44.144 -20.211 -38.726  0.00  0.00    -0.060 A 
ATOM     17  C   UNL A   1      43.290 -20.349 -39.816  0.00  0.00    -0.061 A 
ATOM     18  C   UNL A   1      42.032 -20.919 -39.637  0.00  0.00    -0.048 A 
ATOM     19  C   UNL A   1      41.635 -21.355 -38.364  0.00  0.00    +0.058 A 
BRANCH  14  20
ATOM     20  N   UNL A   1      42.056 -21.577 -35.944  0.00  0.00    -0.314 N 
ATOM     21  H   UNL A   1      42.090 -22.547 -35.785  0.00  0.00    +0.000 HD
BRANCH  20  27
ATOM     22  C   UNL A   1      38.636 -20.701 -32.401  0.00  0.00    -0.039 C 
ATOM     23  C   UNL A   1      39.919 -20.377 -33.118  0.00  0.00    -0.046 A 
ATOM     24  C   UNL A   1      40.653 -19.256 -32.705  0.00  0.00    -0.058 A 
ATOM     25  C   UNL A   1      41.839 -18.909 -33.343  0.00  0.00    -0.060 A 
ATOM     26  C   UNL A   1      42.307 -19.676 -34.407  0.00  0.00    -0.040 A 
ATOM     27  C   UNL A   1      41.607 -20.811 -34.841  0.00  0.00    +0.035 A 
ATOM     28  C   UNL A   1      40.411 -21.180 -34.176  0.00  0.00    -0.026 A 
ATOM     29  C   UNL A   1      39.643 -22.398 -34.632  0.00  0.00    -0.038 C 
ENDBRANCH  20  27
ENDBRANCH  14  20
ENDBRANCH  10  19
ENDBRANCH   9  12
ENDBRANCH   8   9
ENDBRANCH   7   8
ENDBRANCH   6   7
ENDBRANCH   5   6
ENDBRANCH   1   5
BRANCH   3  30
ATOM     30  C   UNL A   1      41.754 -14.349 -40.198  0.00  0.00    +0.012 C 
BRANCH  30  31
ATOM     31  C   UNL A   1      43.124 -14.211 -40.863  0.00  0.00    -0.037 C 
BRANCH  31  32
ATOM     32  C   UNL A   1      43.619 -15.481 -41.557  0.00  0.00    -0.052 C 
BRANCH  32  33
ATOM     33  C   UNL A   1      45.032 -15.874 -41.111  0.00  0.00    -0.052 C 
BRANCH  33  34
ATOM     34  C   UNL A   1      45.007 -16.895 -39.973  0.00  0.00    -0.037 C 
BRANCH  34  35
ATOM     35  C   UNL A   1      46.402 -17.471 -39.719  0.00  0.00    +0.009 C 
BRANCH  35  36
ATOM     36  N   UNL A   1      47.119 -16.597 -38.779  0.00  0.00    -0.343 N 
ATOM     37  H   UNL A   1      47.920 -16.075 -39.012  0.00  0.00    +0.000 HD
BRANCH  36  38
ATOM     38  C   UNL A   1      46.512 -16.599 -37.487  0.00  0.00    +0.041 A 
ATOM     39  C   UNL A   1      45.813 -15.461 -37.030  0.00  0.00    -0.005 A 
ATOM     40  C   UNL A   1      45.194 -15.542 -35.780  0.00  0.00    +0.047 A 
ATOM     41  N   UNL A   1      45.183 -16.667 -35.027  0.00  0.00    -0.251 NA
ATOM     42  C   UNL A   1      45.833 -17.752 -35.470  0.00  0.00    +0.073 A 
ATOM     43  C   UNL A   1      45.818 -18.893 -34.677  0.00  0.00    -0.036 A 
ATOM     44  C   UNL A   1      46.483 -20.064 -35.050  0.00  0.00    -0.060 A 
ATOM     45  C   UNL A   1      47.194 -20.096 -36.240  0.00  0.00    -0.061 A 
ATOM     46  C   UNL A   1      47.221 -18.962 -37.050  0.00  0.00    -0.051 A 
ATOM     47  C   UNL A   1      46.529 -17.779 -36.693  0.00  0.00    +0.021 A 
ATOM     48  C   UNL A   1      44.426 -14.383 -35.198  0.00  0.00    -0.010 C 
ATOM     49  C   UNL A   1      44.807 -13.041 -35.812  0.00  0.00    -0.047 C 
ATOM     50  C   UNL A   1      44.771 -13.147 -37.329  0.00  0.00    -0.049 C 
ATOM     51  C   UNL A   1      45.791 -14.173 -37.819  0.00  0.00    -0.024 C 
ENDBRANCH  36  38
ENDBRANCH  35  36
ENDBRANCH  34  35
ENDBRANCH  33  34
ENDBRANCH  32  33
ENDBRANCH  31  32
ENDBRANCH  30  31
ENDBRANCH   3  30
TORSDOF 17
ENDMDL
MODEL 18
REMARK VINA RESULT:    -6.224      2.069      7.693
REMARK INTER + INTRA:         -17.454
REMARK INTER:                 -12.569
REMARK INTRA:                  -4.886
REMARK UNBOUND:                -5.044
REMARK  Name = cpd183.pdb
REMARK  19 active torsions:
REMARK  status: ('A' for Active; 'I' for Inactive)
REMARK    1  A    between atoms: C_1  and  C_2
REMARK    2  A    between atoms: C_6  and  N_7
REMARK    3  A    between atoms: N_7  and  C_8
REMARK    4  A    between atoms: C_13  and  C_14
REMARK    5  A    between atoms: N_16  and  C_17
REMARK    6  A    between atoms: C_17  and  C_18
REMARK    7  A    between atoms: C_18  and  C_19
REMARK    8  A    between atoms: C_19  and  C_20
REMARK    9  A    between atoms: C_20  and  C_21
REMARK   10  A    between atoms: C_21  and  C_22
REMARK   11  A    between atoms: N_24  and  C_25
REMARK   12  A    between atoms: C_25  and  C_26
REMARK   13  A    between atoms: C_26  and  C_27
REMARK   14  A    between atoms: C_27  and  C_28
REMARK   15  A    between atoms: C_28  and  C_29
REMARK   16  A    between atoms: C_29  and  C_30
REMARK   17  A    between atoms: C_30  and  N_31
REMARK   18  A    between atoms: N_31  and  C_32
REMARK   19  A    between atoms: C_46  and  C_47
REMARK                            x       y       z     vdW  Elec       q    Type
REMARK                         _______ _______ _______ _____ _____    ______ ____
ROOT
ATOM      1  C   UNL A   1      44.068 -18.923 -33.800  0.00  0.00    +0.213 C 
ATOM      2  O   UNL A   1      43.235 -19.102 -32.917  0.00  0.00    -0.276 OA
ATOM      3  N   UNL A   1      44.909 -17.831 -33.852  0.00  0.00    -0.315 N 
ATOM      4  H   UNL A   1      45.448 -17.666 -34.658  0.00  0.00    +0.000 HD
ENDROOT
BRANCH   1   5
ATOM      5  C   UNL A   1      44.309 -19.941 -34.893  0.00  0.00    +0.024 C 
BRANCH   5   6
ATOM      6  C   UNL A   1      45.809 -20.074 -35.147  0.00  0.00    -0.045 C 
BRANCH   6   7
ATOM      7  C   UNL A   1      46.194 -19.965 -36.623  0.00  0.00    -0.051 C 
BRANCH   7   8
ATOM      8  C   UNL A   1      46.856 -18.632 -36.980  0.00  0.00    -0.037 C 
BRANCH   8   9
ATOM      9  C   UNL A   1      45.830 -17.549 -37.318  0.00  0.00    +0.012 C 
BRANCH   9  12
ATOM     10  C   UNL A   1      44.687 -17.739 -39.565  0.00  0.00    +0.246 C 
ATOM     11  O   UNL A   1      44.417 -17.117 -40.587  0.00  0.00    -0.270 OA
ATOM     12  N   UNL A   1      45.719 -17.325 -38.755  0.00  0.00    -0.311 N 
ATOM     13  H   UNL A   1      46.453 -16.831 -39.186  0.00  0.00    +0.000 HD
BRANCH  10  19
ATOM     14  C   UNL A   1      44.152 -20.198 -39.797  0.00  0.00    +0.044 A 
ATOM     15  C   UNL A   1      43.367 -21.280 -39.371  0.00  0.00    -0.040 A 
ATOM     16  C   UNL A   1      42.345 -21.111 -38.431  0.00  0.00    -0.060 A 
ATOM     17  C   UNL A   1      42.087 -19.854 -37.892  0.00  0.00    -0.061 A 
ATOM     18  C   UNL A   1      42.867 -18.766 -38.277  0.00  0.00    -0.048 A 
ATOM     19  C   UNL A   1      43.909 -18.943 -39.199  0.00  0.00    +0.058 A 
BRANCH  14  20
ATOM     20  N   UNL A   1      45.176 -20.377 -40.756  0.00  0.00    -0.314 N 
ATOM     21  H   UNL A   1      45.125 -19.772 -41.530  0.00  0.00    +0.000 HD
BRANCH  20  27
ATOM     22  C   UNL A   1      47.460 -24.317 -42.824  0.00  0.00    -0.039 C 
ATOM     23  C   UNL A   1      47.368 -23.226 -41.791  0.00  0.00    -0.046 A 
ATOM     24  C   UNL A   1      48.364 -23.149 -40.808  0.00  0.00    -0.058 A 
ATOM     25  C   UNL A   1      48.317 -22.166 -39.825  0.00  0.00    -0.060 A 
ATOM     26  C   UNL A   1      47.271 -21.247 -39.810  0.00  0.00    -0.040 A 
ATOM     27  C   UNL A   1      46.263 -21.284 -40.784  0.00  0.00    +0.035 A 
ATOM     28  C   UNL A   1      46.322 -22.271 -41.800  0.00  0.00    -0.026 A 
ATOM     29  C   UNL A   1      45.243 -22.328 -42.856  0.00  0.00    -0.038 C 
ENDBRANCH  20  27
ENDBRANCH  14  20
ENDBRANCH  10  19
ENDBRANCH   9  12
ENDBRANCH   8   9
ENDBRANCH   7   8
ENDBRANCH   6   7
ENDBRANCH   5   6
ENDBRANCH   1   5
BRANCH   3  30
ATOM     30  C   UNL A   1      45.004 -16.925 -32.723  0.00  0.00    +0.012 C 
BRANCH  30  31
ATOM     31  C   UNL A   1      44.401 -15.567 -33.087  0.00  0.00    -0.037 C 
BRANCH  31  32
ATOM     32  C   UNL A   1      42.955 -15.376 -32.626  0.00  0.00    -0.052 C 
BRANCH  32  33
ATOM     33  C   UNL A   1      42.016 -15.029 -33.786  0.00  0.00    -0.052 C 
BRANCH  33  34
ATOM     34  C   UNL A   1      40.548 -15.228 -33.409  0.00  0.00    -0.037 C 
BRANCH  34  35
ATOM     35  C   UNL A   1      40.281 -16.671 -32.976  0.00  0.00    +0.009 C 
BRANCH  35  36
ATOM     36  N   UNL A   1      40.904 -17.587 -33.942  0.00  0.00    -0.343 N 
ATOM     37  H   UNL A   1      41.876 -17.676 -34.069  0.00  0.00    +0.000 HD
BRANCH  36  38
ATOM     38  C   UNL A   1      39.929 -18.330 -34.672  0.00  0.00    +0.041 A 
ATOM     39  C   UNL A   1      39.604 -17.966 -35.996  0.00  0.00    -0.005 A 
ATOM     40  C   UNL A   1      38.683 -18.765 -36.679  0.00  0.00    +0.047 A 
ATOM     41  N   UNL A   1      38.142 -19.890 -36.155  0.00  0.00    -0.251 NA
ATOM     42  C   UNL A   1      38.465 -20.245 -34.903  0.00  0.00    +0.073 A 
ATOM     43  C   UNL A   1      37.892 -21.398 -34.381  0.00  0.00    -0.036 A 
ATOM     44  C   UNL A   1      38.157 -21.833 -33.080  0.00  0.00    -0.060 A 
ATOM     45  C   UNL A   1      39.005 -21.094 -32.271  0.00  0.00    -0.061 A 
ATOM     46  C   UNL A   1      39.590 -19.934 -32.776  0.00  0.00    -0.051 A 
ATOM     47  C   UNL A   1      39.349 -19.498 -34.102  0.00  0.00    +0.021 A 
ATOM     48  C   UNL A   1      38.263 -18.461 -38.094  0.00  0.00    -0.010 C 
ATOM     49  C   UNL A   1      38.513 -17.012 -38.497  0.00  0.00    -0.047 C 
ATOM     50  C   UNL A   1      39.941 -16.625 -38.145  0.00  0.00    -0.049 C 
ATOM     51  C   UNL A   1      40.167 -16.719 -36.637  0.00  0.00    -0.024 C 
ENDBRANCH  36  38
ENDBRANCH  35  36
ENDBRANCH  34  35
ENDBRANCH  33  34
ENDBRANCH  32  33
ENDBRANCH  31  32
ENDBRANCH  30  31
ENDBRANCH   3  30
TORSDOF 17
ENDMDL
MODEL 19
REMARK VINA RESULT:    -6.176      2.640      7.621
REMARK INTER + INTRA:         -17.358
REMARK INTER:                 -11.228
REMARK INTRA:                  -6.130
REMARK UNBOUND:                -5.044
REMARK  Name = cpd183.pdb
REMARK  19 active torsions:
REMARK  status: ('A' for Active; 'I' for Inactive)
REMARK    1  A    between atoms: C_1  and  C_2
REMARK    2  A    between atoms: C_6  and  N_7
REMARK    3  A    between atoms: N_7  and  C_8
REMARK    4  A    between atoms: C_13  and  C_14
REMARK    5  A    between atoms: N_16  and  C_17
REMARK    6  A    between atoms: C_17  and  C_18
REMARK    7  A    between atoms: C_18  and  C_19
REMARK    8  A    between atoms: C_19  and  C_20
REMARK    9  A    between atoms: C_20  and  C_21
REMARK   10  A    between atoms: C_21  and  C_22
REMARK   11  A    between atoms: N_24  and  C_25
REMARK   12  A    between atoms: C_25  and  C_26
REMARK   13  A    between atoms: C_26  and  C_27
REMARK   14  A    between atoms: C_27  and  C_28
REMARK   15  A    between atoms: C_28  and  C_29
REMARK   16  A    between atoms: C_29  and  C_30
REMARK   17  A    between atoms: C_30  and  N_31
REMARK   18  A    between atoms: N_31  and  C_32
REMARK   19  A    between atoms: C_46  and  C_47
REMARK                            x       y       z     vdW  Elec       q    Type
REMARK                         _______ _______ _______ _____ _____    ______ ____
ROOT
ATOM      1  C   UNL A   1      44.426 -14.011 -39.482  0.00  0.00    +0.213 C 
ATOM      2  O   UNL A   1      44.429 -13.582 -38.332  0.00  0.00    -0.276 OA
ATOM      3  N   UNL A   1      43.312 -14.541 -40.100  0.00  0.00    -0.315 N 
ATOM      4  H   UNL A   1      43.406 -15.003 -40.964  0.00  0.00    +0.000 HD
ENDROOT
BRANCH   1   5
ATOM      5  C   UNL A   1      45.645 -13.924 -40.373  0.00  0.00    +0.024 C 
BRANCH   5   6
ATOM      6  C   UNL A   1      46.328 -15.287 -40.442  0.00  0.00    -0.045 C 
BRANCH   6   7
ATOM      7  C   UNL A   1      47.233 -15.583 -39.246  0.00  0.00    -0.051 C 
BRANCH   7   8
ATOM      8  C   UNL A   1      46.744 -16.753 -38.389  0.00  0.00    -0.037 C 
BRANCH   8   9
ATOM      9  C   UNL A   1      46.682 -16.396 -36.902  0.00  0.00    +0.012 C 
BRANCH   9  12
ATOM     10  C   UNL A   1      46.646 -18.463 -35.448  0.00  0.00    +0.246 C 
ATOM     11  O   UNL A   1      47.244 -19.506 -35.206  0.00  0.00    -0.270 OA
ATOM     12  N   UNL A   1      47.296 -17.419 -36.065  0.00  0.00    -0.311 N 
ATOM     13  H   UNL A   1      48.269 -17.357 -35.928  0.00  0.00    +0.000 HD
BRANCH  10  19
ATOM     14  C   UNL A   1      44.187 -18.901 -35.829  0.00  0.00    +0.044 A 
ATOM     15  C   UNL A   1      42.871 -18.712 -35.379  0.00  0.00    -0.040 A 
ATOM     16  C   UNL A   1      42.592 -17.928 -34.255  0.00  0.00    -0.060 A 
ATOM     17  C   UNL A   1      43.626 -17.317 -33.551  0.00  0.00    -0.061 A 
ATOM     18  C   UNL A   1      44.944 -17.508 -33.959  0.00  0.00    -0.048 A 
ATOM     19  C   UNL A   1      45.223 -18.317 -35.071  0.00  0.00    +0.058 A 
BRANCH  14  20
ATOM     20  N   UNL A   1      44.458 -19.687 -36.973  0.00  0.00    -0.314 N 
ATOM     21  H   UNL A   1      44.767 -20.601 -36.781  0.00  0.00    +0.000 HD
BRANCH  20  27
ATOM     22  C   UNL A   1      45.959 -20.414 -41.689  0.00  0.00    -0.039 C 
ATOM     23  C   UNL A   1      45.109 -19.722 -40.656  0.00  0.00    -0.046 A 
ATOM     24  C   UNL A   1      44.236 -18.709 -41.077  0.00  0.00    -0.058 A 
ATOM     25  C   UNL A   1      43.439 -18.032 -40.160  0.00  0.00    -0.060 A 
ATOM     26  C   UNL A   1      43.506 -18.358 -38.807  0.00  0.00    -0.040 A 
ATOM     27  C   UNL A   1      44.357 -19.373 -38.350  0.00  0.00    +0.035 A 
ATOM     28  C   UNL A   1      45.153 -20.080 -39.287  0.00  0.00    -0.026 A 
ATOM     29  C   UNL A   1      46.078 -21.176 -38.812  0.00  0.00    -0.038 C 
ENDBRANCH  20  27
ENDBRANCH  14  20
ENDBRANCH  10  19
ENDBRANCH   9  12
ENDBRANCH   8   9
ENDBRANCH   7   8
ENDBRANCH   6   7
ENDBRANCH   5   6
ENDBRANCH   1   5
BRANCH   3  30
ATOM     30  C   UNL A   1      42.005 -14.420 -39.485  0.00  0.00    +0.012 C 
BRANCH  30  31
ATOM     31  C   UNL A   1      40.954 -15.130 -40.340  0.00  0.00    -0.037 C 
BRANCH  31  32
ATOM     32  C   UNL A   1      40.313 -16.347 -39.670  0.00  0.00    -0.052 C 
BRANCH  32  33
ATOM     33  C   UNL A   1      38.852 -16.096 -39.284  0.00  0.00    -0.052 C 
BRANCH  33  34
ATOM     34  C   UNL A   1      38.118 -17.396 -38.956  0.00  0.00    -0.037 C 
BRANCH  34  35
ATOM     35  C   UNL A   1      38.614 -17.992 -37.637  0.00  0.00    +0.009 C 
BRANCH  35  36
ATOM     36  N   UNL A   1      38.123 -19.372 -37.517  0.00  0.00    -0.343 N 
ATOM     37  H   UNL A   1      37.201 -19.649 -37.722  0.00  0.00    +0.000 HD
BRANCH  36  38
ATOM     38  C   UNL A   1      39.145 -20.261 -37.068  0.00  0.00    +0.041 A 
ATOM     39  C   UNL A   1      40.090 -20.776 -37.981  0.00  0.00    -0.005 A 
ATOM     40  C   UNL A   1      41.099 -21.597 -37.473  0.00  0.00    +0.047 A 
ATOM     41  N   UNL A   1      41.245 -21.867 -36.154  0.00  0.00    -0.251 NA
ATOM     42  C   UNL A   1      40.357 -21.364 -35.285  0.00  0.00    +0.073 A 
ATOM     43  C   UNL A   1      40.518 -21.660 -33.937  0.00  0.00    -0.036 A 
ATOM     44  C   UNL A   1      39.631 -21.194 -32.964  0.00  0.00    -0.060 A 
ATOM     45  C   UNL A   1      38.545 -20.421 -33.344  0.00  0.00    -0.061 A 
ATOM     46  C   UNL A   1      38.365 -20.112 -34.691  0.00  0.00    -0.051 A 
ATOM     47  C   UNL A   1      39.273 -20.558 -35.682  0.00  0.00    +0.021 A 
ATOM     48  C   UNL A   1      42.155 -22.202 -38.362  0.00  0.00    -0.010 C 
ATOM     49  C   UNL A   1      41.741 -22.263 -39.828  0.00  0.00    -0.047 C 
ATOM     50  C   UNL A   1      41.222 -20.904 -40.268  0.00  0.00    -0.049 C 
ATOM     51  C   UNL A   1      39.981 -20.518 -39.466  0.00  0.00    -0.024 C 
ENDBRANCH  36  38
ENDBRANCH  35  36
ENDBRANCH  34  35
ENDBRANCH  33  34
ENDBRANCH  32  33
ENDBRANCH  31  32
ENDBRANCH  30  31
ENDBRANCH   3  30
TORSDOF 17
ENDMDL
MODEL 20
REMARK VINA RESULT:    -6.100      2.348      7.944
REMARK INTER + INTRA:         -17.206
REMARK INTER:                 -11.839
REMARK INTRA:                  -5.366
REMARK UNBOUND:                -5.044
REMARK  Name = cpd183.pdb
REMARK  19 active torsions:
REMARK  status: ('A' for Active; 'I' for Inactive)
REMARK    1  A    between atoms: C_1  and  C_2
REMARK    2  A    between atoms: C_6  and  N_7
REMARK    3  A    between atoms: N_7  and  C_8
REMARK    4  A    between atoms: C_13  and  C_14
REMARK    5  A    between atoms: N_16  and  C_17
REMARK    6  A    between atoms: C_17  and  C_18
REMARK    7  A    between atoms: C_18  and  C_19
REMARK    8  A    between atoms: C_19  and  C_20
REMARK    9  A    between atoms: C_20  and  C_21
REMARK   10  A    between atoms: C_21  and  C_22
REMARK   11  A    between atoms: N_24  and  C_25
REMARK   12  A    between atoms: C_25  and  C_26
REMARK   13  A    between atoms: C_26  and  C_27
REMARK   14  A    between atoms: C_27  and  C_28
REMARK   15  A    between atoms: C_28  and  C_29
REMARK   16  A    between atoms: C_29  and  C_30
REMARK   17  A    between atoms: C_30  and  N_31
REMARK   18  A    between atoms: N_31  and  C_32
REMARK   19  A    between atoms: C_46  and  C_47
REMARK                            x       y       z     vdW  Elec       q    Type
REMARK                         _______ _______ _______ _____ _____    ______ ____
ROOT
ATOM      1  C   UNL A   1      39.253 -16.941 -38.095  0.00  0.00    +0.213 C 
ATOM      2  O   UNL A   1      38.298 -16.877 -37.327  0.00  0.00    -0.276 OA
ATOM      3  N   UNL A   1      39.993 -18.086 -38.306  0.00  0.00    -0.315 N 
ATOM      4  H   UNL A   1      40.834 -18.038 -38.815  0.00  0.00    +0.000 HD
ENDROOT
BRANCH   1   5
ATOM      5  C   UNL A   1      39.667 -15.770 -38.957  0.00  0.00    +0.024 C 
BRANCH   5   6
ATOM      6  C   UNL A   1      40.932 -16.127 -39.734  0.00  0.00    -0.045 C 
BRANCH   6   7
ATOM      7  C   UNL A   1      42.190 -15.431 -39.214  0.00  0.00    -0.051 C 
BRANCH   7   8
ATOM      8  C   UNL A   1      43.311 -16.404 -38.840  0.00  0.00    -0.037 C 
BRANCH   8   9
ATOM      9  C   UNL A   1      44.118 -15.921 -37.633  0.00  0.00    +0.012 C 
BRANCH   9  12
ATOM     10  C   UNL A   1      46.552 -16.329 -38.184  0.00  0.00    +0.246 C 
ATOM     11  O   UNL A   1      47.456 -16.002 -38.944  0.00  0.00    -0.270 OA
ATOM     12  N   UNL A   1      45.465 -15.504 -38.003  0.00  0.00    -0.311 N 
ATOM     13  H   UNL A   1      45.612 -14.539 -38.137  0.00  0.00    +0.000 HD
BRANCH  10  19
ATOM     14  C   UNL A   1      46.830 -18.840 -38.112  0.00  0.00    +0.044 A 
ATOM     15  C   UNL A   1      46.895 -19.998 -37.322  0.00  0.00    -0.040 A 
ATOM     16  C   UNL A   1      46.708 -19.945 -35.937  0.00  0.00    -0.060 A 
ATOM     17  C   UNL A   1      46.454 -18.728 -35.308  0.00  0.00    -0.061 A 
ATOM     18  C   UNL A   1      46.409 -17.559 -36.064  0.00  0.00    -0.048 A 
ATOM     19  C   UNL A   1      46.624 -17.611 -37.449  0.00  0.00    +0.058 A 
BRANCH  14  20
ATOM     20  N   UNL A   1      47.009 -18.906 -39.513  0.00  0.00    -0.314 N 
ATOM     21  H   UNL A   1      47.930 -18.740 -39.818  0.00  0.00    +0.000 HD
BRANCH  20  27
ATOM     22  C   UNL A   1      45.067 -22.068 -42.867  0.00  0.00    -0.039 C 
ATOM     23  C   UNL A   1      45.146 -20.720 -42.202  0.00  0.00    -0.046 A 
ATOM     24  C   UNL A   1      44.308 -19.695 -42.664  0.00  0.00    -0.058 A 
ATOM     25  C   UNL A   1      44.352 -18.428 -42.091  0.00  0.00    -0.060 A 
ATOM     26  C   UNL A   1      45.237 -18.168 -41.047  0.00  0.00    -0.040 A 
ATOM     27  C   UNL A   1      46.081 -19.171 -40.549  0.00  0.00    +0.035 A 
ATOM     28  C   UNL A   1      46.021 -20.468 -41.117  0.00  0.00    -0.026 A 
ATOM     29  C   UNL A   1      46.925 -21.560 -40.595  0.00  0.00    -0.038 C 
ENDBRANCH  20  27
ENDBRANCH  14  20
ENDBRANCH  10  19
ENDBRANCH   9  12
ENDBRANCH   8   9
ENDBRANCH   7   8
ENDBRANCH   6   7
ENDBRANCH   5   6
ENDBRANCH   1   5
BRANCH   3  30
ATOM     30  C   UNL A   1      39.538 -19.360 -37.782  0.00  0.00    +0.012 C 
BRANCH  30  31
ATOM     31  C   UNL A   1      40.542 -20.460 -38.132  0.00  0.00    -0.037 C 
BRANCH  31  32
ATOM     32  C   UNL A   1      41.683 -20.005 -39.042  0.00  0.00    -0.052 C 
BRANCH  32  33
ATOM     33  C   UNL A   1      43.058 -20.218 -38.401  0.00  0.00    -0.052 C 
BRANCH  33  34
ATOM     34  C   UNL A   1      43.067 -19.817 -36.926  0.00  0.00    -0.037 C 
BRANCH  34  35
ATOM     35  C   UNL A   1      43.220 -21.042 -36.022  0.00  0.00    +0.009 C 
BRANCH  35  36
ATOM     36  N   UNL A   1      43.149 -20.615 -34.617  0.00  0.00    -0.343 N 
ATOM     37  H   UNL A   1      43.874 -20.745 -33.964  0.00  0.00    +0.000 HD
BRANCH  36  38
ATOM     38  C   UNL A   1      41.902 -19.990 -34.316  0.00  0.00    +0.041 A 
ATOM     39  C   UNL A   1      41.855 -18.615 -33.999  0.00  0.00    -0.005 A 
ATOM     40  C   UNL A   1      40.600 -18.048 -33.768  0.00  0.00    +0.047 A 
ATOM     41  N   UNL A   1      39.439 -18.733 -33.893  0.00  0.00    -0.251 NA
ATOM     42  C   UNL A   1      39.484 -20.034 -34.211  0.00  0.00    +0.073 A 
ATOM     43  C   UNL A   1      38.281 -20.722 -34.325  0.00  0.00    -0.036 A 
ATOM     44  C   UNL A   1      38.233 -22.083 -34.635  0.00  0.00    -0.060 A 
ATOM     45  C   UNL A   1      39.414 -22.783 -34.825  0.00  0.00    -0.061 A 
ATOM     46  C   UNL A   1      40.631 -22.112 -34.715  0.00  0.00    -0.051 A 
ATOM     47  C   UNL A   1      40.690 -20.727 -34.427  0.00  0.00    +0.021 A 
ATOM     48  C   UNL A   1      40.439 -16.591 -33.417  0.00  0.00    -0.010 C 
ATOM     49  C   UNL A   1      41.712 -15.964 -32.859  0.00  0.00    -0.047 C 
ATOM     50  C   UNL A   1      42.882 -16.286 -33.774  0.00  0.00    -0.049 C 
ATOM     51  C   UNL A   1      43.113 -17.795 -33.838  0.00  0.00    -0.024 C 
ENDBRANCH  36  38
ENDBRANCH  35  36
ENDBRANCH  34  35
ENDBRANCH  33  34
ENDBRANCH  32  33
ENDBRANCH  31  32
ENDBRANCH  30  31
ENDBRANCH   3  30
TORSDOF 17
ENDMDL
