REMARK  Name = cpd183.pdb
REMARK  19 active torsions:
REMARK  status: ('A' for Active; 'I' for Inactive)
REMARK    1  A    between atoms: C_1  and  C_2
REMARK    2  A    between atoms: C_6  and  N_7
REMARK    3  A    between atoms: N_7  and  C_8
REMARK    4  A    between atoms: C_13  and  C_14
REMARK    5  A    between atoms: N_16  and  C_17
REMARK    6  A    between atoms: C_17  and  C_18
REMARK    7  A    between atoms: C_18  and  C_19
REMARK    8  A    between atoms: C_19  and  C_20
REMARK    9  A    between atoms: C_20  and  C_21
REMARK   10  A    between atoms: C_21  and  C_22
REMARK   11  A    between atoms: N_24  and  C_25
REMARK   12  A    between atoms: C_25  and  C_26
REMARK   13  A    between atoms: C_26  and  C_27
REMARK   14  A    between atoms: C_27  and  C_28
REMARK   15  A    between atoms: C_28  and  C_29
REMARK   16  A    between atoms: C_29  and  C_30
REMARK   17  A    between atoms: C_30  and  N_31
REMARK   18  A    between atoms: N_31  and  C_32
REMARK   19  A    between atoms: C_46  and  C_47
REMARK                            x       y       z     vdW  Elec       q    Type
REMARK                         _______ _______ _______ _____ _____    ______ ____
ROOT
ATOM      1  C   UNL A   1       7.785   5.171   1.614  0.00  0.00    +0.213 C 
ATOM      2  O   UNL A   1       8.901   4.682   1.760  0.00  0.00    -0.276 OA
ATOM      3  N   UNL A   1       7.556   6.519   1.430  0.00  0.00    -0.315 N 
ATOM      4  H   UNL A   1       6.637   6.869   1.469  0.00  0.00    +0.000 HD
ENDROOT
BRANCH   1   5
ATOM      5  C   UNL A   1       6.539   4.317   1.541  0.00  0.00    +0.024 C 
BRANCH   5   6
ATOM      6  C   UNL A   1       6.121   4.143   0.083  0.00  0.00    -0.045 C 
BRANCH   6   7
ATOM      7  C   UNL A   1       5.127   3.003  -0.140  0.00  0.00    -0.051 C 
BRANCH   7   8
ATOM      8  C   UNL A   1       3.784   3.223   0.561  0.00  0.00    -0.037 C 
BRANCH   8   9
ATOM      9  C   UNL A   1       2.771   2.125   0.229  0.00  0.00    +0.012 C 
BRANCH   9  12
ATOM     10  C   UNL A   1       1.480   3.050  -1.738  0.00  0.00    +0.246 C 
ATOM     11  O   UNL A   1       1.570   3.334  -2.927  0.00  0.00    -0.270 OA
ATOM     12  N   UNL A   1       2.362   2.159  -1.170  0.00  0.00    -0.311 N 
ATOM     13  H   UNL A   1       2.754   1.480  -1.765  0.00  0.00    +0.000 HD
BRANCH  10  19
ATOM     14  C   UNL A   1      -0.522   2.871  -0.207  0.00  0.00    +0.044 A 
ATOM     15  C   UNL A   1      -1.482   3.545   0.564  0.00  0.00    -0.040 A 
ATOM     16  C   UNL A   1      -1.541   4.942   0.594  0.00  0.00    -0.060 A 
ATOM     17  C   UNL A   1      -0.636   5.699  -0.145  0.00  0.00    -0.061 A 
ATOM     18  C   UNL A   1       0.344   5.058  -0.899  0.00  0.00    -0.048 A 
ATOM     19  C   UNL A   1       0.418   3.657  -0.906  0.00  0.00    +0.058 A 
BRANCH  14  20
ATOM     20  N   UNL A   1      -0.478   1.458  -0.239  0.00  0.00    -0.314 N 
ATOM     21  H   UNL A   1       0.427   1.076  -0.295  0.00  0.00    +0.000 HD
BRANCH  20  27
ATOM     22  C   UNL A   1      -2.021  -3.227   0.591  0.00  0.00    -0.039 C 
ATOM     23  C   UNL A   1      -2.269  -1.798   0.188  0.00  0.00    -0.046 A 
ATOM     24  C   UNL A   1      -3.562  -1.429  -0.209  0.00  0.00    -0.058 A 
ATOM     25  C   UNL A   1      -3.839  -0.124  -0.602  0.00  0.00    -0.060 A 
ATOM     26  C   UNL A   1      -2.825   0.831  -0.606  0.00  0.00    -0.040 A 
ATOM     27  C   UNL A   1      -1.523   0.503  -0.204  0.00  0.00    +0.035 A 
ATOM     28  C   UNL A   1      -1.244  -0.821   0.219  0.00  0.00    -0.026 A 
ATOM     29  C   UNL A   1       0.154  -1.193   0.653  0.00  0.00    -0.038 C 
ENDBRANCH  20  27
ENDBRANCH  14  20
ENDBRANCH  10  19
ENDBRANCH   9  12
ENDBRANCH   8   9
ENDBRANCH   7   8
ENDBRANCH   6   7
ENDBRANCH   5   6
ENDBRANCH   1   5
BRANCH   3  30
ATOM     30  C   UNL A   1       8.662   7.423   1.179  0.00  0.00    +0.012 C 
BRANCH  30  31
ATOM     31  C   UNL A   1       8.987   7.453  -0.315  0.00  0.00    -0.037 C 
BRANCH  31  32
ATOM     32  C   UNL A   1      10.402   7.932  -0.643  0.00  0.00    -0.052 C 
BRANCH  32  33
ATOM     33  C   UNL A   1      11.476   6.967  -0.131  0.00  0.00    -0.052 C 
BRANCH  33  34
ATOM     34  C   UNL A   1      12.783   7.102  -0.913  0.00  0.00    -0.037 C 
BRANCH  34  35
ATOM     35  C   UNL A   1      13.866   6.186  -0.339  0.00  0.00    +0.009 C 
BRANCH  35  36
ATOM     36  N   UNL A   1      14.974   6.090  -1.300  0.00  0.00    -0.343 N 
ATOM     37  H   UNL A   1      14.954   6.474  -2.206  0.00  0.00    +0.000 HD
BRANCH  36  38
ATOM     38  C   UNL A   1      16.083   5.372  -0.759  0.00  0.00    +0.041 A 
ATOM     39  C   UNL A   1      17.167   6.069  -0.183  0.00  0.00    -0.005 A 
ATOM     40  C   UNL A   1      18.197   5.311   0.379  0.00  0.00    +0.047 A 
ATOM     41  N   UNL A   1      18.173   3.959   0.449  0.00  0.00    -0.251 NA
ATOM     42  C   UNL A   1      17.135   3.299  -0.083  0.00  0.00    +0.073 A 
ATOM     43  C   UNL A   1      17.134   1.911  -0.009  0.00  0.00    -0.036 A 
ATOM     44  C   UNL A   1      16.103   1.141  -0.552  0.00  0.00    -0.060 A 
ATOM     45  C   UNL A   1      15.049   1.768  -1.198  0.00  0.00    -0.061 A 
ATOM     46  C   UNL A   1      15.031   3.159  -1.283  0.00  0.00    -0.051 A 
ATOM     47  C   UNL A   1      16.058   3.950  -0.713  0.00  0.00    +0.021 A 
ATOM     48  C   UNL A   1      19.402   5.956   1.015  0.00  0.00    -0.010 C 
ATOM     49  C   UNL A   1      19.630   7.390   0.551  0.00  0.00    -0.047 C 
ATOM     50  C   UNL A   1      18.334   8.176   0.670  0.00  0.00    -0.049 C 
ATOM     51  C   UNL A   1      17.258   7.576  -0.233  0.00  0.00    -0.024 C 
ENDBRANCH  36  38
ENDBRANCH  35  36
ENDBRANCH  34  35
ENDBRANCH  33  34
ENDBRANCH  32  33
ENDBRANCH  31  32
ENDBRANCH  30  31
ENDBRANCH   3  30
TORSDOF 17
