MODEL 1
REMARK VINA RESULT:    -6.607      0.000      0.000
REMARK INTER + INTRA:         -18.570
REMARK INTER:                 -12.401
REMARK INTRA:                  -6.168
REMARK UNBOUND:                -6.168
REMARK  Name = cpd27.pdb
REMARK  17 active torsions:
REMARK  status: ('A' for Active; 'I' for Inactive)
REMARK    1  A    between atoms: C_1  and  C_2
REMARK    2  A    between atoms: C_6  and  N_7
REMARK    3  A    between atoms: N_7  and  C_8
REMARK    4  A    between atoms: C_13  and  C_14
REMARK    5  A    between atoms: N_16  and  C_17
REMARK    6  A    between atoms: C_17  and  C_18
REMARK    7  A    between atoms: C_18  and  C_19
REMARK    8  A    between atoms: C_19  and  C_20
REMARK    9  A    between atoms: C_20  and  C_21
REMARK   10  A    between atoms: C_21  and  C_22
REMARK   11  A    between atoms: C_22  and  C_23
REMARK   12  A    between atoms: C_23  and  C_24
REMARK   13  A    between atoms: C_24  and  C_25
REMARK   14  A    between atoms: C_25  and  C_26
REMARK   15  A    between atoms: C_26  and  N_27
REMARK   16  A    between atoms: N_27  and  C_28
REMARK   17  A    between atoms: C_42  and  C_43
REMARK                            x       y       z     vdW  Elec       q    Type
REMARK                         _______ _______ _______ _____ _____    ______ ____
ROOT
ATOM      1  C   UNL A   1      42.255 -16.344 -37.721  0.00  0.00    -0.052 C 
ENDROOT
BRANCH   1   2
ATOM      2  C   UNL A   1      43.303 -15.742 -38.663  0.00  0.00    -0.037 C 
BRANCH   2   3
ATOM      3  C   UNL A   1      44.519 -15.192 -37.918  0.00  0.00    +0.012 C 
BRANCH   3   6
ATOM      4  C   UNL A   1      46.837 -16.107 -38.290  0.00  0.00    +0.246 C 
ATOM      5  O   UNL A   1      47.963 -15.770 -38.654  0.00  0.00    -0.270 OA
ATOM      6  N   UNL A   1      45.747 -15.363 -38.682  0.00  0.00    -0.311 N 
ATOM      7  H   UNL A   1      45.803 -14.908 -39.553  0.00  0.00    +0.000 HD
BRANCH   4  13
ATOM      8  C   UNL A   1      46.712 -18.587 -37.968  0.00  0.00    +0.044 A 
ATOM      9  C   UNL A   1      46.608 -19.678 -37.089  0.00  0.00    -0.040 A 
ATOM     10  C   UNL A   1      46.361 -19.488 -35.726  0.00  0.00    -0.060 A 
ATOM     11  C   UNL A   1      46.235 -18.202 -35.210  0.00  0.00    -0.061 A 
ATOM     12  C   UNL A   1      46.390 -17.102 -36.052  0.00  0.00    -0.048 A 
ATOM     13  C   UNL A   1      46.674 -17.291 -37.413  0.00  0.00    +0.058 A 
BRANCH   8  14
ATOM     14  N   UNL A   1      46.999 -18.795 -39.348  0.00  0.00    -0.314 N 
ATOM     15  H   UNL A   1      47.934 -18.670 -39.628  0.00  0.00    +0.000 HD
BRANCH  14  21
ATOM     16  C   UNL A   1      45.340 -22.137 -42.683  0.00  0.00    -0.039 C 
ATOM     17  C   UNL A   1      45.314 -20.777 -42.039  0.00  0.00    -0.046 A 
ATOM     18  C   UNL A   1      44.444 -19.805 -42.556  0.00  0.00    -0.058 A 
ATOM     19  C   UNL A   1      44.404 -18.525 -42.013  0.00  0.00    -0.060 A 
ATOM     20  C   UNL A   1      45.228 -18.202 -40.939  0.00  0.00    -0.040 A 
ATOM     21  C   UNL A   1      46.072 -19.164 -40.364  0.00  0.00    +0.035 A 
ATOM     22  C   UNL A   1      46.128 -20.462 -40.924  0.00  0.00    -0.026 A 
ATOM     23  C   UNL A   1      47.090 -21.479 -40.362  0.00  0.00    -0.038 C 
ENDBRANCH  14  21
ENDBRANCH   8  14
ENDBRANCH   4  13
ENDBRANCH   3   6
ENDBRANCH   2   3
ENDBRANCH   1   2
BRANCH   1  24
ATOM     24  C   UNL A   1      42.724 -17.680 -37.140  0.00  0.00    -0.053 C 
BRANCH  24  25
ATOM     25  C   UNL A   1      42.675 -18.784 -38.197  0.00  0.00    -0.053 C 
BRANCH  25  26
ATOM     26  C   UNL A   1      43.150 -20.128 -37.639  0.00  0.00    -0.053 C 
BRANCH  26  27
ATOM     27  C   UNL A   1      43.160 -21.199 -38.733  0.00  0.00    -0.053 C 
BRANCH  27  28
ATOM     28  C   UNL A   1      42.298 -20.837 -39.947  0.00  0.00    -0.052 C 
BRANCH  28  29
ATOM     29  C   UNL A   1      41.201 -21.854 -40.281  0.00  0.00    -0.037 C 
BRANCH  29  30
ATOM     30  C   UNL A   1      40.621 -22.566 -39.060  0.00  0.00    +0.009 C 
BRANCH  30  31
ATOM     31  N   UNL A   1      39.283 -22.065 -38.702  0.00  0.00    -0.343 N 
ATOM     32  H   UNL A   1      38.461 -22.404 -39.123  0.00  0.00    +0.000 HD
BRANCH  31  33
ATOM     33  C   UNL A   1      39.268 -21.057 -37.701  0.00  0.00    +0.041 A 
ATOM     34  C   UNL A   1      39.338 -21.433 -36.342  0.00  0.00    -0.005 A 
ATOM     35  C   UNL A   1      39.245 -20.424 -35.381  0.00  0.00    +0.047 A 
ATOM     36  N   UNL A   1      39.065 -19.119 -35.691  0.00  0.00    -0.251 NA
ATOM     37  C   UNL A   1      39.017 -18.758 -36.978  0.00  0.00    +0.073 A 
ATOM     38  C   UNL A   1      38.859 -17.407 -37.257  0.00  0.00    -0.036 A 
ATOM     39  C   UNL A   1      38.801 -16.921 -38.564  0.00  0.00    -0.060 A 
ATOM     40  C   UNL A   1      38.906 -17.806 -39.624  0.00  0.00    -0.061 A 
ATOM     41  C   UNL A   1      39.065 -19.168 -39.367  0.00  0.00    -0.051 A 
ATOM     42  C   UNL A   1      39.117 -19.678 -38.041  0.00  0.00    +0.021 A 
ATOM     43  C   UNL A   1      39.288 -20.725 -33.905  0.00  0.00    -0.010 C 
ATOM     44  C   UNL A   1      39.971 -22.046 -33.578  0.00  0.00    -0.047 C 
ATOM     45  C   UNL A   1      39.402 -23.150 -34.456  0.00  0.00    -0.049 C 
ATOM     46  C   UNL A   1      39.670 -22.851 -35.931  0.00  0.00    -0.024 C 
ENDBRANCH  31  33
ENDBRANCH  30  31
ENDBRANCH  29  30
ENDBRANCH  28  29
ENDBRANCH  27  28
ENDBRANCH  26  27
ENDBRANCH  25  26
ENDBRANCH  24  25
ENDBRANCH   1  24
TORSDOF 15
ENDMDL
MODEL 2
REMARK VINA RESULT:    -6.503      0.383      2.821
REMARK INTER + INTRA:         -18.374
REMARK INTER:                 -11.850
REMARK INTRA:                  -6.524
REMARK UNBOUND:                -6.168
REMARK  Name = cpd27.pdb
REMARK  17 active torsions:
REMARK  status: ('A' for Active; 'I' for Inactive)
REMARK    1  A    between atoms: C_1  and  C_2
REMARK    2  A    between atoms: C_6  and  N_7
REMARK    3  A    between atoms: N_7  and  C_8
REMARK    4  A    between atoms: C_13  and  C_14
REMARK    5  A    between atoms: N_16  and  C_17
REMARK    6  A    between atoms: C_17  and  C_18
REMARK    7  A    between atoms: C_18  and  C_19
REMARK    8  A    between atoms: C_19  and  C_20
REMARK    9  A    between atoms: C_20  and  C_21
REMARK   10  A    between atoms: C_21  and  C_22
REMARK   11  A    between atoms: C_22  and  C_23
REMARK   12  A    between atoms: C_23  and  C_24
REMARK   13  A    between atoms: C_24  and  C_25
REMARK   14  A    between atoms: C_25  and  C_26
REMARK   15  A    between atoms: C_26  and  N_27
REMARK   16  A    between atoms: N_27  and  C_28
REMARK   17  A    between atoms: C_42  and  C_43
REMARK                            x       y       z     vdW  Elec       q    Type
REMARK                         _______ _______ _______ _____ _____    ______ ____
ROOT
ATOM      1  C   UNL A   1      42.224 -16.020 -37.878  0.00  0.00    -0.052 C 
ENDROOT
BRANCH   1   2
ATOM      2  C   UNL A   1      43.380 -15.512 -38.746  0.00  0.00    -0.037 C 
BRANCH   2   3
ATOM      3  C   UNL A   1      44.585 -15.064 -37.919  0.00  0.00    +0.012 C 
BRANCH   3   6
ATOM      4  C   UNL A   1      46.897 -16.026 -38.194  0.00  0.00    +0.246 C 
ATOM      5  O   UNL A   1      48.043 -15.712 -38.515  0.00  0.00    -0.270 OA
ATOM      6  N   UNL A   1      45.839 -15.263 -38.633  0.00  0.00    -0.311 N 
ATOM      7  H   UNL A   1      45.938 -14.813 -39.504  0.00  0.00    +0.000 HD
BRANCH   4  13
ATOM      8  C   UNL A   1      46.650 -18.497 -37.876  0.00  0.00    +0.044 A 
ATOM      9  C   UNL A   1      46.493 -19.582 -36.998  0.00  0.00    -0.040 A 
ATOM     10  C   UNL A   1      46.258 -19.383 -35.635  0.00  0.00    -0.060 A 
ATOM     11  C   UNL A   1      46.196 -18.093 -35.117  0.00  0.00    -0.061 A 
ATOM     12  C   UNL A   1      46.405 -17.000 -35.957  0.00  0.00    -0.048 A 
ATOM     13  C   UNL A   1      46.677 -17.201 -37.319  0.00  0.00    +0.058 A 
BRANCH   8  14
ATOM     14  N   UNL A   1      46.924 -18.717 -39.257  0.00  0.00    -0.314 N 
ATOM     15  H   UNL A   1      47.857 -18.595 -39.546  0.00  0.00    +0.000 HD
BRANCH  14  21
ATOM     16  C   UNL A   1      45.332 -22.015 -42.667  0.00  0.00    -0.039 C 
ATOM     17  C   UNL A   1      45.260 -20.680 -41.973  0.00  0.00    -0.046 A 
ATOM     18  C   UNL A   1      44.332 -19.733 -42.433  0.00  0.00    -0.058 A 
ATOM     19  C   UNL A   1      44.248 -18.477 -41.843  0.00  0.00    -0.060 A 
ATOM     20  C   UNL A   1      45.085 -18.153 -40.779  0.00  0.00    -0.040 A 
ATOM     21  C   UNL A   1      45.988 -19.094 -40.261  0.00  0.00    +0.035 A 
ATOM     22  C   UNL A   1      46.089 -20.367 -40.869  0.00  0.00    -0.026 A 
ATOM     23  C   UNL A   1      47.113 -21.356 -40.369  0.00  0.00    -0.038 C 
ENDBRANCH  14  21
ENDBRANCH   8  14
ENDBRANCH   4  13
ENDBRANCH   3   6
ENDBRANCH   2   3
ENDBRANCH   1   2
BRANCH   1  24
ATOM     24  C   UNL A   1      42.678 -17.136 -36.934  0.00  0.00    -0.053 C 
BRANCH  24  25
ATOM     25  C   UNL A   1      42.837 -18.458 -37.686  0.00  0.00    -0.053 C 
BRANCH  25  26
ATOM     26  C   UNL A   1      42.695 -19.663 -36.752  0.00  0.00    -0.053 C 
BRANCH  26  27
ATOM     27  C   UNL A   1      42.996 -20.967 -37.497  0.00  0.00    -0.053 C 
BRANCH  27  28
ATOM     28  C   UNL A   1      43.040 -20.802 -39.021  0.00  0.00    -0.052 C 
BRANCH  28  29
ATOM     29  C   UNL A   1      41.928 -21.536 -39.777  0.00  0.00    -0.037 C 
BRANCH  29  30
ATOM     30  C   UNL A   1      41.052 -22.419 -38.891  0.00  0.00    +0.009 C 
BRANCH  30  31
ATOM     31  N   UNL A   1      39.659 -21.945 -38.827  0.00  0.00    -0.343 N 
ATOM     32  H   UNL A   1      38.974 -22.227 -39.475  0.00  0.00    +0.000 HD
BRANCH  31  33
ATOM     33  C   UNL A   1      39.378 -21.050 -37.760  0.00  0.00    +0.041 A 
ATOM     34  C   UNL A   1      39.253 -19.670 -38.033  0.00  0.00    -0.005 A 
ATOM     35  C   UNL A   1      39.052 -18.808 -36.953  0.00  0.00    +0.047 A 
ATOM     36  N   UNL A   1      38.999 -19.229 -35.668  0.00  0.00    -0.251 NA
ATOM     37  C   UNL A   1      39.098 -20.537 -35.409  0.00  0.00    +0.073 A 
ATOM     38  C   UNL A   1      39.011 -20.934 -34.081  0.00  0.00    -0.036 A 
ATOM     39  C   UNL A   1      39.097 -22.274 -33.699  0.00  0.00    -0.060 A 
ATOM     40  C   UNL A   1      39.271 -23.247 -34.669  0.00  0.00    -0.061 A 
ATOM     41  C   UNL A   1      39.362 -22.871 -36.009  0.00  0.00    -0.051 A 
ATOM     42  C   UNL A   1      39.284 -21.510 -36.412  0.00  0.00    +0.021 A 
ATOM     43  C   UNL A   1      38.928 -17.317 -37.138  0.00  0.00    -0.010 C 
ATOM     44  C   UNL A   1      38.492 -16.918 -38.541  0.00  0.00    -0.047 C 
ATOM     45  C   UNL A   1      39.351 -17.636 -39.571  0.00  0.00    -0.049 C 
ATOM     46  C   UNL A   1      39.171 -19.150 -39.452  0.00  0.00    -0.024 C 
ENDBRANCH  31  33
ENDBRANCH  30  31
ENDBRANCH  29  30
ENDBRANCH  28  29
ENDBRANCH  27  28
ENDBRANCH  26  27
ENDBRANCH  25  26
ENDBRANCH  24  25
ENDBRANCH   1  24
TORSDOF 15
ENDMDL
MODEL 3
REMARK VINA RESULT:    -6.428      2.199      5.297
REMARK INTER + INTRA:         -18.233
REMARK INTER:                 -11.486
REMARK INTRA:                  -6.747
REMARK UNBOUND:                -6.168
REMARK  Name = cpd27.pdb
REMARK  17 active torsions:
REMARK  status: ('A' for Active; 'I' for Inactive)
REMARK    1  A    between atoms: C_1  and  C_2
REMARK    2  A    between atoms: C_6  and  N_7
REMARK    3  A    between atoms: N_7  and  C_8
REMARK    4  A    between atoms: C_13  and  C_14
REMARK    5  A    between atoms: N_16  and  C_17
REMARK    6  A    between atoms: C_17  and  C_18
REMARK    7  A    between atoms: C_18  and  C_19
REMARK    8  A    between atoms: C_19  and  C_20
REMARK    9  A    between atoms: C_20  and  C_21
REMARK   10  A    between atoms: C_21  and  C_22
REMARK   11  A    between atoms: C_22  and  C_23
REMARK   12  A    between atoms: C_23  and  C_24
REMARK   13  A    between atoms: C_24  and  C_25
REMARK   14  A    between atoms: C_25  and  C_26
REMARK   15  A    between atoms: C_26  and  N_27
REMARK   16  A    between atoms: N_27  and  C_28
REMARK   17  A    between atoms: C_42  and  C_43
REMARK                            x       y       z     vdW  Elec       q    Type
REMARK                         _______ _______ _______ _____ _____    ______ ____
ROOT
ATOM      1  C   UNL A   1      44.146 -19.194 -38.302  0.00  0.00    -0.052 C 
ENDROOT
BRANCH   1   2
ATOM      2  C   UNL A   1      45.065 -20.416 -38.206  0.00  0.00    -0.037 C 
BRANCH   2   3
ATOM      3  C   UNL A   1      46.518 -20.040 -37.913  0.00  0.00    +0.012 C 
BRANCH   3   6
ATOM      4  C   UNL A   1      47.161 -19.065 -35.682  0.00  0.00    +0.246 C 
ATOM      5  O   UNL A   1      47.917 -19.248 -34.728  0.00  0.00    -0.270 OA
ATOM      6  N   UNL A   1      46.825 -20.125 -36.493  0.00  0.00    -0.311 N 
ATOM      7  H   UNL A   1      46.790 -21.017 -36.077  0.00  0.00    +0.000 HD
BRANCH   4  13
ATOM      8  C   UNL A   1      45.571 -17.190 -35.205  0.00  0.00    +0.044 A 
ATOM      9  C   UNL A   1      45.157 -15.874 -35.468  0.00  0.00    -0.040 A 
ATOM     10  C   UNL A   1      45.713 -15.135 -36.516  0.00  0.00    -0.060 A 
ATOM     11  C   UNL A   1      46.712 -15.690 -37.309  0.00  0.00    -0.061 A 
ATOM     12  C   UNL A   1      47.181 -16.974 -37.033  0.00  0.00    -0.048 A 
ATOM     13  C   UNL A   1      46.648 -17.703 -35.958  0.00  0.00    +0.058 A 
BRANCH   8  14
ATOM     14  N   UNL A   1      45.019 -17.918 -34.111  0.00  0.00    -0.314 N 
ATOM     15  H   UNL A   1      45.557 -17.953 -33.288  0.00  0.00    +0.000 HD
BRANCH  14  21
ATOM     16  C   UNL A   1      40.356 -18.341 -32.346  0.00  0.00    -0.039 C 
ATOM     17  C   UNL A   1      41.517 -18.838 -33.165  0.00  0.00    -0.046 A 
ATOM     18  C   UNL A   1      41.405 -20.082 -33.804  0.00  0.00    -0.058 A 
ATOM     19  C   UNL A   1      42.461 -20.597 -34.548  0.00  0.00    -0.060 A 
ATOM     20  C   UNL A   1      43.642 -19.869 -34.670  0.00  0.00    -0.040 A 
ATOM     21  C   UNL A   1      43.770 -18.600 -34.086  0.00  0.00    +0.035 A 
ATOM     22  C   UNL A   1      42.704 -18.081 -33.315  0.00  0.00    -0.026 A 
ATOM     23  C   UNL A   1      42.862 -16.751 -32.619  0.00  0.00    -0.038 C 
ENDBRANCH  14  21
ENDBRANCH   8  14
ENDBRANCH   4  13
ENDBRANCH   3   6
ENDBRANCH   2   3
ENDBRANCH   1   2
BRANCH   1  24
ATOM     24  C   UNL A   1      44.500 -18.318 -39.506  0.00  0.00    -0.053 C 
BRANCH  24  25
ATOM     25  C   UNL A   1      43.806 -16.958 -39.416  0.00  0.00    -0.053 C 
BRANCH  25  26
ATOM     26  C   UNL A   1      42.383 -17.081 -38.865  0.00  0.00    -0.053 C 
BRANCH  26  27
ATOM     27  C   UNL A   1      42.235 -16.292 -37.561  0.00  0.00    -0.053 C 
BRANCH  27  28
ATOM     28  C   UNL A   1      41.390 -17.012 -36.505  0.00  0.00    -0.052 C 
BRANCH  28  29
ATOM     29  C   UNL A   1      39.914 -17.189 -36.876  0.00  0.00    -0.037 C 
BRANCH  29  30
ATOM     30  C   UNL A   1      39.159 -18.167 -35.978  0.00  0.00    +0.009 C 
BRANCH  30  31
ATOM     31  N   UNL A   1      38.453 -19.205 -36.749  0.00  0.00    -0.343 N 
ATOM     32  H   UNL A   1      37.630 -19.019 -37.257  0.00  0.00    +0.000 HD
BRANCH  31  33
ATOM     33  C   UNL A   1      39.047 -20.495 -36.704  0.00  0.00    +0.041 A 
ATOM     34  C   UNL A   1      38.795 -21.331 -35.594  0.00  0.00    -0.005 A 
ATOM     35  C   UNL A   1      39.453 -22.562 -35.543  0.00  0.00    +0.047 A 
ATOM     36  N   UNL A   1      40.333 -22.972 -36.486  0.00  0.00    -0.251 NA
ATOM     37  C   UNL A   1      40.559 -22.190 -37.547  0.00  0.00    +0.073 A 
ATOM     38  C   UNL A   1      41.447 -22.656 -38.508  0.00  0.00    -0.036 A 
ATOM     39  C   UNL A   1      41.751 -21.924 -39.656  0.00  0.00    -0.060 A 
ATOM     40  C   UNL A   1      41.152 -20.691 -39.855  0.00  0.00    -0.061 A 
ATOM     41  C   UNL A   1      40.257 -20.202 -38.902  0.00  0.00    -0.051 A 
ATOM     42  C   UNL A   1      39.944 -20.934 -37.725  0.00  0.00    +0.021 A 
ATOM     43  C   UNL A   1      39.268 -23.516 -34.391  0.00  0.00    -0.010 C 
ATOM     44  C   UNL A   1      37.964 -23.302 -33.635  0.00  0.00    -0.047 C 
ATOM     45  C   UNL A   1      37.801 -21.828 -33.297  0.00  0.00    -0.049 C 
ATOM     46  C   UNL A   1      37.728 -20.993 -34.576  0.00  0.00    -0.024 C 
ENDBRANCH  31  33
ENDBRANCH  30  31
ENDBRANCH  29  30
ENDBRANCH  28  29
ENDBRANCH  27  28
ENDBRANCH  26  27
ENDBRANCH  25  26
ENDBRANCH  24  25
ENDBRANCH   1  24
TORSDOF 15
ENDMDL
MODEL 4
REMARK VINA RESULT:    -6.295      1.967      3.991
REMARK INTER + INTRA:         -17.983
REMARK INTER:                 -13.733
REMARK INTRA:                  -4.250
REMARK UNBOUND:                -6.168
REMARK  Name = cpd27.pdb
REMARK  17 active torsions:
REMARK  status: ('A' for Active; 'I' for Inactive)
REMARK    1  A    between atoms: C_1  and  C_2
REMARK    2  A    between atoms: C_6  and  N_7
REMARK    3  A    between atoms: N_7  and  C_8
REMARK    4  A    between atoms: C_13  and  C_14
REMARK    5  A    between atoms: N_16  and  C_17
REMARK    6  A    between atoms: C_17  and  C_18
REMARK    7  A    between atoms: C_18  and  C_19
REMARK    8  A    between atoms: C_19  and  C_20
REMARK    9  A    between atoms: C_20  and  C_21
REMARK   10  A    between atoms: C_21  and  C_22
REMARK   11  A    between atoms: C_22  and  C_23
REMARK   12  A    between atoms: C_23  and  C_24
REMARK   13  A    between atoms: C_24  and  C_25
REMARK   14  A    between atoms: C_25  and  C_26
REMARK   15  A    between atoms: C_26  and  N_27
REMARK   16  A    between atoms: N_27  and  C_28
REMARK   17  A    between atoms: C_42  and  C_43
REMARK                            x       y       z     vdW  Elec       q    Type
REMARK                         _______ _______ _______ _____ _____    ______ ____
ROOT
ATOM      1  C   UNL A   1      42.792 -19.946 -35.007  0.00  0.00    -0.052 C 
ENDROOT
BRANCH   1   2
ATOM      2  C   UNL A   1      43.534 -19.643 -36.313  0.00  0.00    -0.037 C 
BRANCH   2   3
ATOM      3  C   UNL A   1      44.357 -18.357 -36.238  0.00  0.00    +0.012 C 
BRANCH   3   6
ATOM      4  C   UNL A   1      46.759 -18.695 -36.921  0.00  0.00    +0.246 C 
ATOM      5  O   UNL A   1      47.721 -19.439 -36.735  0.00  0.00    -0.270 OA
ATOM      6  N   UNL A   1      45.763 -18.626 -35.972  0.00  0.00    -0.311 N 
ATOM      7  H   UNL A   1      46.025 -18.771 -35.034  0.00  0.00    +0.000 HD
BRANCH   4  13
ATOM      8  C   UNL A   1      46.112 -18.489 -39.331  0.00  0.00    +0.044 A 
ATOM      9  C   UNL A   1      46.003 -17.685 -40.478  0.00  0.00    -0.040 A 
ATOM     10  C   UNL A   1      46.533 -16.392 -40.509  0.00  0.00    -0.060 A 
ATOM     11  C   UNL A   1      47.164 -15.868 -39.385  0.00  0.00    -0.061 A 
ATOM     12  C   UNL A   1      47.236 -16.624 -38.217  0.00  0.00    -0.048 A 
ATOM     13  C   UNL A   1      46.672 -17.909 -38.173  0.00  0.00    +0.058 A 
BRANCH   8  14
ATOM     14  N   UNL A   1      45.536 -19.792 -39.303  0.00  0.00    -0.314 N 
ATOM     15  H   UNL A   1      45.255 -20.131 -38.423  0.00  0.00    +0.000 HD
BRANCH  14  21
ATOM     16  C   UNL A   1      47.183 -23.410 -42.342  0.00  0.00    -0.039 C 
ATOM     17  C   UNL A   1      46.169 -22.373 -41.938  0.00  0.00    -0.046 A 
ATOM     18  C   UNL A   1      45.059 -22.158 -42.769  0.00  0.00    -0.058 A 
ATOM     19  C   UNL A   1      44.111 -21.191 -42.452  0.00  0.00    -0.060 A 
ATOM     20  C   UNL A   1      44.256 -20.430 -41.296  0.00  0.00    -0.040 A 
ATOM     21  C   UNL A   1      45.327 -20.654 -40.416  0.00  0.00    +0.035 A 
ATOM     22  C   UNL A   1      46.302 -21.625 -40.743  0.00  0.00    -0.026 A 
ATOM     23  C   UNL A   1      47.498 -21.817 -39.843  0.00  0.00    -0.038 C 
ENDBRANCH  14  21
ENDBRANCH   8  14
ENDBRANCH   4  13
ENDBRANCH   3   6
ENDBRANCH   2   3
ENDBRANCH   1   2
BRANCH   1  24
ATOM     24  C   UNL A   1      42.479 -18.666 -34.229  0.00  0.00    -0.053 C 
BRANCH  24  25
ATOM     25  C   UNL A   1      42.079 -18.986 -32.788  0.00  0.00    -0.053 C 
BRANCH  25  26
ATOM     26  C   UNL A   1      40.800 -19.825 -32.726  0.00  0.00    -0.053 C 
BRANCH  26  27
ATOM     27  C   UNL A   1      39.657 -19.028 -32.090  0.00  0.00    -0.053 C 
BRANCH  27  28
ATOM     28  C   UNL A   1      39.470 -17.636 -32.703  0.00  0.00    -0.052 C 
BRANCH  28  29
ATOM     29  C   UNL A   1      38.422 -17.564 -33.819  0.00  0.00    -0.037 C 
BRANCH  29  30
ATOM     30  C   UNL A   1      38.963 -17.914 -35.204  0.00  0.00    +0.009 C 
BRANCH  30  31
ATOM     31  N   UNL A   1      38.135 -18.918 -35.893  0.00  0.00    -0.343 N 
ATOM     32  H   UNL A   1      37.247 -18.709 -36.263  0.00  0.00    +0.000 HD
BRANCH  31  33
ATOM     33  C   UNL A   1      38.714 -20.213 -35.984  0.00  0.00    +0.041 A 
ATOM     34  C   UNL A   1      38.398 -21.179 -35.005  0.00  0.00    -0.005 A 
ATOM     35  C   UNL A   1      39.040 -22.417 -35.079  0.00  0.00    +0.047 A 
ATOM     36  N   UNL A   1      39.963 -22.717 -36.022  0.00  0.00    -0.251 NA
ATOM     37  C   UNL A   1      40.251 -21.810 -36.961  0.00  0.00    +0.073 A 
ATOM     38  C   UNL A   1      41.183 -22.164 -37.928  0.00  0.00    -0.036 A 
ATOM     39  C   UNL A   1      41.552 -21.297 -38.957  0.00  0.00    -0.060 A 
ATOM     40  C   UNL A   1      40.976 -20.040 -39.026  0.00  0.00    -0.061 A 
ATOM     41  C   UNL A   1      40.038 -19.662 -38.064  0.00  0.00    -0.051 A 
ATOM     42  C   UNL A   1      39.658 -20.532 -37.007  0.00  0.00    +0.021 A 
ATOM     43  C   UNL A   1      38.787 -23.507 -34.069  0.00  0.00    -0.010 C 
ATOM     44  C   UNL A   1      37.448 -23.370 -33.358  0.00  0.00    -0.047 C 
ATOM     45  C   UNL A   1      37.281 -21.948 -32.843  0.00  0.00    -0.049 C 
ATOM     46  C   UNL A   1      37.283 -20.956 -34.006  0.00  0.00    -0.024 C 
ENDBRANCH  31  33
ENDBRANCH  30  31
ENDBRANCH  29  30
ENDBRANCH  28  29
ENDBRANCH  27  28
ENDBRANCH  26  27
ENDBRANCH  25  26
ENDBRANCH  24  25
ENDBRANCH   1  24
TORSDOF 15
ENDMDL
MODEL 5
REMARK VINA RESULT:    -6.275      2.207      4.506
REMARK INTER + INTRA:         -17.945
REMARK INTER:                 -12.375
REMARK INTRA:                  -5.570
REMARK UNBOUND:                -6.168
REMARK  Name = cpd27.pdb
REMARK  17 active torsions:
REMARK  status: ('A' for Active; 'I' for Inactive)
REMARK    1  A    between atoms: C_1  and  C_2
REMARK    2  A    between atoms: C_6  and  N_7
REMARK    3  A    between atoms: N_7  and  C_8
REMARK    4  A    between atoms: C_13  and  C_14
REMARK    5  A    between atoms: N_16  and  C_17
REMARK    6  A    between atoms: C_17  and  C_18
REMARK    7  A    between atoms: C_18  and  C_19
REMARK    8  A    between atoms: C_19  and  C_20
REMARK    9  A    between atoms: C_20  and  C_21
REMARK   10  A    between atoms: C_21  and  C_22
REMARK   11  A    between atoms: C_22  and  C_23
REMARK   12  A    between atoms: C_23  and  C_24
REMARK   13  A    between atoms: C_24  and  C_25
REMARK   14  A    between atoms: C_25  and  C_26
REMARK   15  A    between atoms: C_26  and  N_27
REMARK   16  A    between atoms: N_27  and  C_28
REMARK   17  A    between atoms: C_42  and  C_43
REMARK                            x       y       z     vdW  Elec       q    Type
REMARK                         _______ _______ _______ _____ _____    ______ ____
ROOT
ATOM      1  C   UNL A   1      42.275 -20.393 -34.046  0.00  0.00    -0.052 C 
ENDROOT
BRANCH   1   2
ATOM      2  C   UNL A   1      43.457 -19.444 -33.821  0.00  0.00    -0.037 C 
BRANCH   2   3
ATOM      3  C   UNL A   1      44.521 -19.558 -34.913  0.00  0.00    +0.012 C 
BRANCH   3   6
ATOM      4  C   UNL A   1      47.033 -19.447 -35.055  0.00  0.00    +0.246 C 
ATOM      5  O   UNL A   1      48.049 -20.056 -34.720  0.00  0.00    -0.270 OA
ATOM      6  N   UNL A   1      45.864 -19.646 -34.357  0.00  0.00    -0.311 N 
ATOM      7  H   UNL A   1      45.942 -19.865 -33.400  0.00  0.00    +0.000 HD
BRANCH   4  13
ATOM      8  C   UNL A   1      47.066 -19.059 -37.529  0.00  0.00    +0.044 A 
ATOM      9  C   UNL A   1      47.055 -18.149 -38.599  0.00  0.00    -0.040 A 
ATOM     10  C   UNL A   1      47.167 -16.773 -38.381  0.00  0.00    -0.060 A 
ATOM     11  C   UNL A   1      47.271 -16.276 -37.086  0.00  0.00    -0.061 A 
ATOM     12  C   UNL A   1      47.228 -17.153 -36.004  0.00  0.00    -0.048 A 
ATOM     13  C   UNL A   1      47.078 -18.532 -36.220  0.00  0.00    +0.058 A 
BRANCH   8  14
ATOM     14  N   UNL A   1      46.916 -20.456 -37.764  0.00  0.00    -0.314 N 
ATOM     15  H   UNL A   1      47.384 -21.061 -37.145  0.00  0.00    +0.000 HD
BRANCH  14  21
ATOM     16  C   UNL A   1      46.743 -23.031 -42.051  0.00  0.00    -0.039 C 
ATOM     17  C   UNL A   1      46.087 -22.264 -40.934  0.00  0.00    -0.046 A 
ATOM     18  C   UNL A   1      44.705 -22.027 -41.002  0.00  0.00    -0.058 A 
ATOM     19  C   UNL A   1      44.059 -21.298 -40.009  0.00  0.00    -0.060 A 
ATOM     20  C   UNL A   1      44.785 -20.804 -38.929  0.00  0.00    -0.040 A 
ATOM     21  C   UNL A   1      46.158 -21.067 -38.803  0.00  0.00    +0.035 A 
ATOM     22  C   UNL A   1      46.822 -21.792 -39.820  0.00  0.00    -0.026 A 
ATOM     23  C   UNL A   1      48.312 -22.011 -39.732  0.00  0.00    -0.038 C 
ENDBRANCH  14  21
ENDBRANCH   8  14
ENDBRANCH   4  13
ENDBRANCH   3   6
ENDBRANCH   2   3
ENDBRANCH   1   2
BRANCH   1  24
ATOM     24  C   UNL A   1      41.392 -20.497 -32.800  0.00  0.00    -0.053 C 
BRANCH  24  25
ATOM     25  C   UNL A   1      40.751 -21.881 -32.697  0.00  0.00    -0.053 C 
BRANCH  25  26
ATOM     26  C   UNL A   1      39.296 -21.872 -33.172  0.00  0.00    -0.053 C 
BRANCH  26  27
ATOM     27  C   UNL A   1      39.041 -23.011 -34.163  0.00  0.00    -0.053 C 
BRANCH  27  28
ATOM     28  C   UNL A   1      39.819 -22.863 -35.475  0.00  0.00    -0.052 C 
BRANCH  28  29
ATOM     29  C   UNL A   1      39.193 -21.897 -36.487  0.00  0.00    -0.037 C 
BRANCH  29  30
ATOM     30  C   UNL A   1      40.186 -20.916 -37.106  0.00  0.00    +0.009 C 
BRANCH  30  31
ATOM     31  N   UNL A   1      39.610 -19.572 -37.285  0.00  0.00    -0.343 N 
ATOM     32  H   UNL A   1      38.927 -19.376 -37.966  0.00  0.00    +0.000 HD
BRANCH  31  33
ATOM     33  C   UNL A   1      40.114 -18.580 -36.401  0.00  0.00    +0.041 A 
ATOM     34  C   UNL A   1      41.329 -17.933 -36.714  0.00  0.00    -0.005 A 
ATOM     35  C   UNL A   1      41.837 -17.017 -35.789  0.00  0.00    +0.047 A 
ATOM     36  N   UNL A   1      41.235 -16.748 -34.607  0.00  0.00    -0.251 NA
ATOM     37  C   UNL A   1      40.075 -17.347 -34.317  0.00  0.00    +0.073 A 
ATOM     38  C   UNL A   1      39.474 -17.024 -33.107  0.00  0.00    -0.036 A 
ATOM     39  C   UNL A   1      38.260 -17.585 -32.708  0.00  0.00    -0.060 A 
ATOM     40  C   UNL A   1      37.625 -18.493 -33.539  0.00  0.00    -0.061 A 
ATOM     41  C   UNL A   1      38.211 -18.833 -34.758  0.00  0.00    -0.051 A 
ATOM     42  C   UNL A   1      39.451 -18.275 -35.174  0.00  0.00    +0.021 A 
ATOM     43  C   UNL A   1      43.136 -16.291 -36.020  0.00  0.00    -0.010 C 
ATOM     44  C   UNL A   1      43.527 -16.205 -37.489  0.00  0.00    -0.047 C 
ATOM     45  C   UNL A   1      43.422 -17.580 -38.130  0.00  0.00    -0.049 C 
ATOM     46  C   UNL A   1      41.982 -18.089 -38.070  0.00  0.00    -0.024 C 
ENDBRANCH  31  33
ENDBRANCH  30  31
ENDBRANCH  29  30
ENDBRANCH  28  29
ENDBRANCH  27  28
ENDBRANCH  26  27
ENDBRANCH  25  26
ENDBRANCH  24  25
ENDBRANCH   1  24
TORSDOF 15
ENDMDL
MODEL 6
REMARK VINA RESULT:    -6.124      1.984      5.012
REMARK INTER + INTRA:         -17.662
REMARK INTER:                 -11.743
REMARK INTRA:                  -5.918
REMARK UNBOUND:                -6.168
REMARK  Name = cpd27.pdb
REMARK  17 active torsions:
REMARK  status: ('A' for Active; 'I' for Inactive)
REMARK    1  A    between atoms: C_1  and  C_2
REMARK    2  A    between atoms: C_6  and  N_7
REMARK    3  A    between atoms: N_7  and  C_8
REMARK    4  A    between atoms: C_13  and  C_14
REMARK    5  A    between atoms: N_16  and  C_17
REMARK    6  A    between atoms: C_17  and  C_18
REMARK    7  A    between atoms: C_18  and  C_19
REMARK    8  A    between atoms: C_19  and  C_20
REMARK    9  A    between atoms: C_20  and  C_21
REMARK   10  A    between atoms: C_21  and  C_22
REMARK   11  A    between atoms: C_22  and  C_23
REMARK   12  A    between atoms: C_23  and  C_24
REMARK   13  A    between atoms: C_24  and  C_25
REMARK   14  A    between atoms: C_25  and  C_26
REMARK   15  A    between atoms: C_26  and  N_27
REMARK   16  A    between atoms: N_27  and  C_28
REMARK   17  A    between atoms: C_42  and  C_43
REMARK                            x       y       z     vdW  Elec       q    Type
REMARK                         _______ _______ _______ _____ _____    ______ ____
ROOT
ATOM      1  C   UNL A   1      42.508 -20.256 -34.846  0.00  0.00    -0.052 C 
ENDROOT
BRANCH   1   2
ATOM      2  C   UNL A   1      43.032 -19.404 -36.007  0.00  0.00    -0.037 C 
BRANCH   2   3
ATOM      3  C   UNL A   1      44.149 -20.096 -36.789  0.00  0.00    +0.012 C 
BRANCH   3   6
ATOM      4  C   UNL A   1      46.045 -19.210 -38.190  0.00  0.00    +0.246 C 
ATOM      5  O   UNL A   1      47.224 -18.864 -38.115  0.00  0.00    -0.270 OA
ATOM      6  N   UNL A   1      45.262 -19.197 -37.058  0.00  0.00    -0.311 N 
ATOM      7  H   UNL A   1      45.473 -18.523 -36.372  0.00  0.00    +0.000 HD
BRANCH   4  13
ATOM      8  C   UNL A   1      44.726 -18.777 -40.274  0.00  0.00    +0.044 A 
ATOM      9  C   UNL A   1      44.274 -19.234 -41.522  0.00  0.00    -0.040 A 
ATOM     10  C   UNL A   1      44.481 -20.555 -41.929  0.00  0.00    -0.060 A 
ATOM     11  C   UNL A   1      45.165 -21.441 -41.102  0.00  0.00    -0.061 A 
ATOM     12  C   UNL A   1      45.672 -20.998 -39.882  0.00  0.00    -0.048 A 
ATOM     13  C   UNL A   1      45.496 -19.662 -39.490  0.00  0.00    +0.058 A 
BRANCH   8  14
ATOM     14  N   UNL A   1      44.538 -17.418 -39.889  0.00  0.00    -0.314 N 
ATOM     15  H   UNL A   1      45.352 -16.880 -39.758  0.00  0.00    +0.000 HD
BRANCH  14  21
ATOM     16  C   UNL A   1      41.312 -13.779 -41.069  0.00  0.00    -0.039 C 
ATOM     17  C   UNL A   1      41.757 -14.934 -40.211  0.00  0.00    -0.046 A 
ATOM     18  C   UNL A   1      40.990 -15.271 -39.086  0.00  0.00    -0.058 A 
ATOM     19  C   UNL A   1      41.377 -16.312 -38.248  0.00  0.00    -0.060 A 
ATOM     20  C   UNL A   1      42.532 -17.035 -38.529  0.00  0.00    -0.040 A 
ATOM     21  C   UNL A   1      43.295 -16.758 -39.674  0.00  0.00    +0.035 A 
ATOM     22  C   UNL A   1      42.914 -15.690 -40.520  0.00  0.00    -0.026 A 
ATOM     23  C   UNL A   1      43.772 -15.335 -41.709  0.00  0.00    -0.038 C 
ENDBRANCH  14  21
ENDBRANCH   8  14
ENDBRANCH   4  13
ENDBRANCH   3   6
ENDBRANCH   2   3
ENDBRANCH   1   2
BRANCH   1  24
ATOM     24  C   UNL A   1      42.040 -19.387 -33.676  0.00  0.00    -0.053 C 
BRANCH  24  25
ATOM     25  C   UNL A   1      41.124 -20.175 -32.740  0.00  0.00    -0.053 C 
BRANCH  25  26
ATOM     26  C   UNL A   1      39.948 -19.327 -32.248  0.00  0.00    -0.053 C 
BRANCH  26  27
ATOM     27  C   UNL A   1      39.878 -18.001 -33.010  0.00  0.00    -0.053 C 
BRANCH  27  28
ATOM     28  C   UNL A   1      38.446 -17.554 -33.325  0.00  0.00    -0.052 C 
BRANCH  28  29
ATOM     29  C   UNL A   1      38.144 -17.376 -34.816  0.00  0.00    -0.037 C 
BRANCH  29  30
ATOM     30  C   UNL A   1      39.095 -18.137 -35.739  0.00  0.00    +0.009 C 
BRANCH  30  31
ATOM     31  N   UNL A   1      38.406 -19.180 -36.518  0.00  0.00    -0.343 N 
ATOM     32  H   UNL A   1      37.582 -19.002 -37.028  0.00  0.00    +0.000 HD
BRANCH  31  33
ATOM     33  C   UNL A   1      39.017 -20.462 -36.478  0.00  0.00    +0.041 A 
ATOM     34  C   UNL A   1      38.705 -21.342 -35.420  0.00  0.00    -0.005 A 
ATOM     35  C   UNL A   1      39.379 -22.564 -35.368  0.00  0.00    +0.047 A 
ATOM     36  N   UNL A   1      40.328 -22.925 -36.262  0.00  0.00    -0.251 NA
ATOM     37  C   UNL A   1      40.612 -22.101 -37.276  0.00  0.00    +0.073 A 
ATOM     38  C   UNL A   1      41.572 -22.519 -38.190  0.00  0.00    -0.036 A 
ATOM     39  C   UNL A   1      41.941 -21.740 -39.288  0.00  0.00    -0.060 A 
ATOM     40  C   UNL A   1      41.335 -20.510 -39.483  0.00  0.00    -0.061 A 
ATOM     41  C   UNL A   1      40.369 -20.070 -38.577  0.00  0.00    -0.051 A 
ATOM     42  C   UNL A   1      39.989 -20.849 -37.451  0.00  0.00    +0.021 A 
ATOM     43  C   UNL A   1      39.132 -23.562 -34.266  0.00  0.00    -0.010 C 
ATOM     44  C   UNL A   1      37.776 -23.396 -33.594  0.00  0.00    -0.047 C 
ATOM     45  C   UNL A   1      37.565 -21.937 -33.216  0.00  0.00    -0.049 C 
ATOM     46  C   UNL A   1      37.566 -21.057 -34.466  0.00  0.00    -0.024 C 
ENDBRANCH  31  33
ENDBRANCH  30  31
ENDBRANCH  29  30
ENDBRANCH  28  29
ENDBRANCH  27  28
ENDBRANCH  26  27
ENDBRANCH  25  26
ENDBRANCH  24  25
ENDBRANCH   1  24
TORSDOF 15
ENDMDL
MODEL 7
REMARK VINA RESULT:    -6.117      2.678      8.111
REMARK INTER + INTRA:         -17.649
REMARK INTER:                 -12.370
REMARK INTRA:                  -5.280
REMARK UNBOUND:                -6.168
REMARK  Name = cpd27.pdb
REMARK  17 active torsions:
REMARK  status: ('A' for Active; 'I' for Inactive)
REMARK    1  A    between atoms: C_1  and  C_2
REMARK    2  A    between atoms: C_6  and  N_7
REMARK    3  A    between atoms: N_7  and  C_8
REMARK    4  A    between atoms: C_13  and  C_14
REMARK    5  A    between atoms: N_16  and  C_17
REMARK    6  A    between atoms: C_17  and  C_18
REMARK    7  A    between atoms: C_18  and  C_19
REMARK    8  A    between atoms: C_19  and  C_20
REMARK    9  A    between atoms: C_20  and  C_21
REMARK   10  A    between atoms: C_21  and  C_22
REMARK   11  A    between atoms: C_22  and  C_23
REMARK   12  A    between atoms: C_23  and  C_24
REMARK   13  A    between atoms: C_24  and  C_25
REMARK   14  A    between atoms: C_25  and  C_26
REMARK   15  A    between atoms: C_26  and  N_27
REMARK   16  A    between atoms: N_27  and  C_28
REMARK   17  A    between atoms: C_42  and  C_43
REMARK                            x       y       z     vdW  Elec       q    Type
REMARK                         _______ _______ _______ _____ _____    ______ ____
ROOT
ATOM      1  C   UNL A   1      40.543 -21.262 -37.100  0.00  0.00    -0.052 C 
ENDROOT
BRANCH   1   2
ATOM      2  C   UNL A   1      40.911 -22.427 -36.175  0.00  0.00    -0.037 C 
BRANCH   2   3
ATOM      3  C   UNL A   1      39.752 -22.851 -35.272  0.00  0.00    +0.012 C 
BRANCH   3   6
ATOM      4  C   UNL A   1      40.317 -22.307 -32.878  0.00  0.00    +0.246 C 
ATOM      5  O   UNL A   1      41.180 -22.494 -32.022  0.00  0.00    -0.270 OA
ATOM      6  N   UNL A   1      40.204 -23.188 -33.930  0.00  0.00    -0.311 N 
ATOM      7  H   UNL A   1      40.449 -24.127 -33.759  0.00  0.00    +0.000 HD
BRANCH   4  13
ATOM      8  C   UNL A   1      39.984 -19.854 -32.504  0.00  0.00    +0.044 A 
ATOM      9  C   UNL A   1      39.110 -18.754 -32.475  0.00  0.00    -0.040 A 
ATOM     10  C   UNL A   1      37.728 -18.922 -32.600  0.00  0.00    -0.060 A 
ATOM     11  C   UNL A   1      37.193 -20.194 -32.778  0.00  0.00    -0.061 A 
ATOM     12  C   UNL A   1      38.042 -21.296 -32.868  0.00  0.00    -0.048 A 
ATOM     13  C   UNL A   1      39.432 -21.123 -32.779  0.00  0.00    +0.058 A 
BRANCH   8  14
ATOM     14  N   UNL A   1      41.393 -19.662 -32.412  0.00  0.00    -0.314 N 
ATOM     15  H   UNL A   1      41.796 -19.779 -31.522  0.00  0.00    +0.000 HD
BRANCH  14  21
ATOM     16  C   UNL A   1      43.375 -16.211 -35.444  0.00  0.00    -0.039 C 
ATOM     17  C   UNL A   1      43.186 -17.636 -34.997  0.00  0.00    -0.046 A 
ATOM     18  C   UNL A   1      43.789 -18.660 -35.742  0.00  0.00    -0.058 A 
ATOM     19  C   UNL A   1      43.619 -19.994 -35.385  0.00  0.00    -0.060 A 
ATOM     20  C   UNL A   1      42.851 -20.320 -34.271  0.00  0.00    -0.040 A 
ATOM     21  C   UNL A   1      42.276 -19.319 -33.474  0.00  0.00    +0.035 A 
ATOM     22  C   UNL A   1      42.433 -17.962 -33.844  0.00  0.00    -0.026 A 
ATOM     23  C   UNL A   1      41.753 -16.884 -33.036  0.00  0.00    -0.038 C 
ENDBRANCH  14  21
ENDBRANCH   8  14
ENDBRANCH   4  13
ENDBRANCH   3   6
ENDBRANCH   2   3
ENDBRANCH   1   2
BRANCH   1  24
ATOM     24  C   UNL A   1      39.889 -20.114 -36.325  0.00  0.00    -0.053 C 
BRANCH  24  25
ATOM     25  C   UNL A   1      40.238 -18.763 -36.951  0.00  0.00    -0.053 C 
BRANCH  25  26
ATOM     26  C   UNL A   1      40.809 -18.921 -38.363  0.00  0.00    -0.053 C 
BRANCH  26  27
ATOM     27  C   UNL A   1      41.835 -17.824 -38.659  0.00  0.00    -0.053 C 
BRANCH  27  28
ATOM     28  C   UNL A   1      41.316 -16.747 -39.618  0.00  0.00    -0.052 C 
BRANCH  28  29
ATOM     29  C   UNL A   1      42.399 -15.839 -40.209  0.00  0.00    -0.037 C 
BRANCH  29  30
ATOM     30  C   UNL A   1      43.656 -15.727 -39.347  0.00  0.00    +0.009 C 
BRANCH  30  31
ATOM     31  N   UNL A   1      44.877 -16.088 -40.086  0.00  0.00    -0.343 N 
ATOM     32  H   UNL A   1      45.303 -15.480 -40.734  0.00  0.00    +0.000 HD
BRANCH  31  33
ATOM     33  C   UNL A   1      45.396 -17.378 -39.796  0.00  0.00    +0.041 A 
ATOM     34  C   UNL A   1      46.180 -17.561 -38.636  0.00  0.00    -0.005 A 
ATOM     35  C   UNL A   1      46.738 -18.823 -38.418  0.00  0.00    +0.047 A 
ATOM     36  N   UNL A   1      46.583 -19.859 -39.274  0.00  0.00    -0.251 NA
ATOM     37  C   UNL A   1      45.824 -19.694 -40.363  0.00  0.00    +0.073 A 
ATOM     38  C   UNL A   1      45.666 -20.789 -41.204  0.00  0.00    -0.036 A 
ATOM     39  C   UNL A   1      44.892 -20.729 -42.363  0.00  0.00    -0.060 A 
ATOM     40  C   UNL A   1      44.256 -19.544 -42.695  0.00  0.00    -0.061 A 
ATOM     41  C   UNL A   1      44.402 -18.432 -41.866  0.00  0.00    -0.051 A 
ATOM     42  C   UNL A   1      45.193 -18.476 -40.686  0.00  0.00    +0.021 A 
ATOM     43  C   UNL A   1      47.607 -19.112 -37.222  0.00  0.00    -0.010 C 
ATOM     44  C   UNL A   1      47.372 -18.157 -36.059  0.00  0.00    -0.047 C 
ATOM     45  C   UNL A   1      47.402 -16.721 -36.559  0.00  0.00    -0.049 C 
ATOM     46  C   UNL A   1      46.284 -16.486 -37.576  0.00  0.00    -0.024 C 
ENDBRANCH  31  33
ENDBRANCH  30  31
ENDBRANCH  29  30
ENDBRANCH  28  29
ENDBRANCH  27  28
ENDBRANCH  26  27
ENDBRANCH  25  26
ENDBRANCH  24  25
ENDBRANCH   1  24
TORSDOF 15
ENDMDL
MODEL 8
REMARK VINA RESULT:    -6.106      2.156      5.160
REMARK INTER + INTRA:         -17.629
REMARK INTER:                 -12.276
REMARK INTRA:                  -5.352
REMARK UNBOUND:                -6.168
REMARK  Name = cpd27.pdb
REMARK  17 active torsions:
REMARK  status: ('A' for Active; 'I' for Inactive)
REMARK    1  A    between atoms: C_1  and  C_2
REMARK    2  A    between atoms: C_6  and  N_7
REMARK    3  A    between atoms: N_7  and  C_8
REMARK    4  A    between atoms: C_13  and  C_14
REMARK    5  A    between atoms: N_16  and  C_17
REMARK    6  A    between atoms: C_17  and  C_18
REMARK    7  A    between atoms: C_18  and  C_19
REMARK    8  A    between atoms: C_19  and  C_20
REMARK    9  A    between atoms: C_20  and  C_21
REMARK   10  A    between atoms: C_21  and  C_22
REMARK   11  A    between atoms: C_22  and  C_23
REMARK   12  A    between atoms: C_23  and  C_24
REMARK   13  A    between atoms: C_24  and  C_25
REMARK   14  A    between atoms: C_25  and  C_26
REMARK   15  A    between atoms: C_26  and  N_27
REMARK   16  A    between atoms: N_27  and  C_28
REMARK   17  A    between atoms: C_42  and  C_43
REMARK                            x       y       z     vdW  Elec       q    Type
REMARK                         _______ _______ _______ _____ _____    ______ ____
ROOT
ATOM      1  C   UNL A   1      42.156 -18.677 -38.066  0.00  0.00    -0.052 C 
ENDROOT
BRANCH   1   2
ATOM      2  C   UNL A   1      43.586 -19.191 -38.263  0.00  0.00    -0.037 C 
BRANCH   2   3
ATOM      3  C   UNL A   1      43.682 -20.262 -39.350  0.00  0.00    +0.012 C 
BRANCH   3   6
ATOM      4  C   UNL A   1      44.381 -19.611 -41.681  0.00  0.00    +0.246 C 
ATOM      5  O   UNL A   1      44.300 -18.690 -42.493  0.00  0.00    -0.270 OA
ATOM      6  N   UNL A   1      43.444 -19.712 -40.677  0.00  0.00    -0.311 N 
ATOM      7  H   UNL A   1      42.536 -19.386 -40.873  0.00  0.00    +0.000 HD
BRANCH   4  13
ATOM      8  C   UNL A   1      46.798 -20.193 -41.389  0.00  0.00    +0.044 A 
ATOM      9  C   UNL A   1      47.813 -21.163 -41.449  0.00  0.00    -0.040 A 
ATOM     10  C   UNL A   1      47.572 -22.431 -41.985  0.00  0.00    -0.060 A 
ATOM     11  C   UNL A   1      46.305 -22.764 -42.451  0.00  0.00    -0.061 A 
ATOM     12  C   UNL A   1      45.266 -21.839 -42.351  0.00  0.00    -0.048 A 
ATOM     13  C   UNL A   1      45.498 -20.578 -41.779  0.00  0.00    +0.058 A 
BRANCH   8  14
ATOM     14  N   UNL A   1      47.050 -18.917 -40.807  0.00  0.00    -0.314 N 
ATOM     15  H   UNL A   1      47.278 -18.187 -41.427  0.00  0.00    +0.000 HD
BRANCH  14  21
ATOM     16  C   UNL A   1      47.087 -15.477 -37.173  0.00  0.00    -0.039 C 
ATOM     17  C   UNL A   1      47.096 -16.904 -37.653  0.00  0.00    -0.046 A 
ATOM     18  C   UNL A   1      47.207 -17.931 -36.703  0.00  0.00    -0.058 A 
ATOM     19  C   UNL A   1      47.248 -19.264 -37.099  0.00  0.00    -0.060 A 
ATOM     20  C   UNL A   1      47.169 -19.588 -38.451  0.00  0.00    -0.040 A 
ATOM     21  C   UNL A   1      47.006 -18.589 -39.423  0.00  0.00    +0.035 A 
ATOM     22  C   UNL A   1      46.981 -17.232 -39.025  0.00  0.00    -0.026 A 
ATOM     23  C   UNL A   1      46.884 -16.147 -40.070  0.00  0.00    -0.038 C 
ENDBRANCH  14  21
ENDBRANCH   8  14
ENDBRANCH   4  13
ENDBRANCH   3   6
ENDBRANCH   2   3
ENDBRANCH   1   2
BRANCH   1  24
ATOM     24  C   UNL A   1      41.221 -19.789 -37.582  0.00  0.00    -0.053 C 
BRANCH  24  25
ATOM     25  C   UNL A   1      39.848 -19.226 -37.211  0.00  0.00    -0.053 C 
BRANCH  25  26
ATOM     26  C   UNL A   1      38.839 -20.339 -36.914  0.00  0.00    -0.053 C 
BRANCH  26  27
ATOM     27  C   UNL A   1      39.533 -21.702 -36.861  0.00  0.00    -0.053 C 
BRANCH  27  28
ATOM     28  C   UNL A   1      38.851 -22.697 -35.915  0.00  0.00    -0.052 C 
BRANCH  28  29
ATOM     29  C   UNL A   1      39.722 -23.171 -34.747  0.00  0.00    -0.037 C 
BRANCH  29  30
ATOM     30  C   UNL A   1      41.033 -22.401 -34.596  0.00  0.00    +0.009 C 
BRANCH  30  31
ATOM     31  N   UNL A   1      41.070 -21.592 -33.365  0.00  0.00    -0.343 N 
ATOM     32  H   UNL A   1      41.188 -21.991 -32.473  0.00  0.00    +0.000 HD
BRANCH  31  33
ATOM     33  C   UNL A   1      40.921 -20.193 -33.562  0.00  0.00    +0.041 A 
ATOM     34  C   UNL A   1      39.649 -19.605 -33.398  0.00  0.00    -0.005 A 
ATOM     35  C   UNL A   1      39.520 -18.242 -33.672  0.00  0.00    +0.047 A 
ATOM     36  N   UNL A   1      40.545 -17.474 -34.109  0.00  0.00    -0.251 NA
ATOM     37  C   UNL A   1      41.755 -18.024 -34.247  0.00  0.00    +0.073 A 
ATOM     38  C   UNL A   1      42.789 -17.198 -34.672  0.00  0.00    -0.036 A 
ATOM     39  C   UNL A   1      44.092 -17.668 -34.844  0.00  0.00    -0.060 A 
ATOM     40  C   UNL A   1      44.375 -18.998 -34.584  0.00  0.00    -0.061 A 
ATOM     41  C   UNL A   1      43.352 -19.846 -34.158  0.00  0.00    -0.051 A 
ATOM     42  C   UNL A   1      42.019 -19.384 -33.985  0.00  0.00    +0.021 A 
ATOM     43  C   UNL A   1      38.199 -17.527 -33.547  0.00  0.00    -0.010 C 
ATOM     44  C   UNL A   1      37.220 -18.225 -32.614  0.00  0.00    -0.047 C 
ATOM     45  C   UNL A   1      37.135 -19.702 -32.970  0.00  0.00    -0.049 C 
ATOM     46  C   UNL A   1      38.496 -20.374 -32.789  0.00  0.00    -0.024 C 
ENDBRANCH  31  33
ENDBRANCH  30  31
ENDBRANCH  29  30
ENDBRANCH  28  29
ENDBRANCH  27  28
ENDBRANCH  26  27
ENDBRANCH  25  26
ENDBRANCH  24  25
ENDBRANCH   1  24
TORSDOF 15
ENDMDL
MODEL 9
REMARK VINA RESULT:    -6.099      2.758      8.344
REMARK INTER + INTRA:         -17.616
REMARK INTER:                 -11.970
REMARK INTRA:                  -5.646
REMARK UNBOUND:                -6.168
REMARK  Name = cpd27.pdb
REMARK  17 active torsions:
REMARK  status: ('A' for Active; 'I' for Inactive)
REMARK    1  A    between atoms: C_1  and  C_2
REMARK    2  A    between atoms: C_6  and  N_7
REMARK    3  A    between atoms: N_7  and  C_8
REMARK    4  A    between atoms: C_13  and  C_14
REMARK    5  A    between atoms: N_16  and  C_17
REMARK    6  A    between atoms: C_17  and  C_18
REMARK    7  A    between atoms: C_18  and  C_19
REMARK    8  A    between atoms: C_19  and  C_20
REMARK    9  A    between atoms: C_20  and  C_21
REMARK   10  A    between atoms: C_21  and  C_22
REMARK   11  A    between atoms: C_22  and  C_23
REMARK   12  A    between atoms: C_23  and  C_24
REMARK   13  A    between atoms: C_24  and  C_25
REMARK   14  A    between atoms: C_25  and  C_26
REMARK   15  A    between atoms: C_26  and  N_27
REMARK   16  A    between atoms: N_27  and  C_28
REMARK   17  A    between atoms: C_42  and  C_43
REMARK                            x       y       z     vdW  Elec       q    Type
REMARK                         _______ _______ _______ _____ _____    ______ ____
ROOT
ATOM      1  C   UNL A   1      41.764 -21.060 -36.193  0.00  0.00    -0.052 C 
ENDROOT
BRANCH   1   2
ATOM      2  C   UNL A   1      40.528 -20.296 -36.678  0.00  0.00    -0.037 C 
BRANCH   2   3
ATOM      3  C   UNL A   1      39.226 -21.050 -36.409  0.00  0.00    +0.012 C 
BRANCH   3   6
ATOM      4  C   UNL A   1      38.160 -20.879 -34.133  0.00  0.00    +0.246 C 
ATOM      5  O   UNL A   1      37.094 -20.606 -33.583  0.00  0.00    -0.270 OA
ATOM      6  N   UNL A   1      38.415 -20.391 -35.395  0.00  0.00    -0.311 N 
ATOM      7  H   UNL A   1      38.015 -19.523 -35.632  0.00  0.00    +0.000 HD
BRANCH   4  13
ATOM      8  C   UNL A   1      40.237 -21.178 -32.767  0.00  0.00    +0.044 A 
ATOM      9  C   UNL A   1      41.106 -22.043 -32.082  0.00  0.00    -0.040 A 
ATOM     10  C   UNL A   1      40.957 -23.430 -32.158  0.00  0.00    -0.060 A 
ATOM     11  C   UNL A   1      39.920 -23.982 -32.904  0.00  0.00    -0.061 A 
ATOM     12  C   UNL A   1      39.010 -23.144 -33.548  0.00  0.00    -0.048 A 
ATOM     13  C   UNL A   1      39.138 -21.751 -33.442  0.00  0.00    +0.058 A 
BRANCH   8  14
ATOM     14  N   UNL A   1      40.381 -19.765 -32.651  0.00  0.00    -0.314 N 
ATOM     15  H   UNL A   1      39.686 -19.291 -32.141  0.00  0.00    +0.000 HD
BRANCH  14  21
ATOM     16  C   UNL A   1      41.858 -15.958 -35.544  0.00  0.00    -0.039 C 
ATOM     17  C   UNL A   1      42.141 -17.151 -34.670  0.00  0.00    -0.046 A 
ATOM     18  C   UNL A   1      43.471 -17.567 -34.512  0.00  0.00    -0.058 A 
ATOM     19  C   UNL A   1      43.780 -18.681 -33.737  0.00  0.00    -0.060 A 
ATOM     20  C   UNL A   1      42.762 -19.388 -33.104  0.00  0.00    -0.040 A 
ATOM     21  C   UNL A   1      41.427 -18.969 -33.198  0.00  0.00    +0.035 A 
ATOM     22  C   UNL A   1      41.107 -17.847 -33.999  0.00  0.00    -0.026 A 
ATOM     23  C   UNL A   1      39.665 -17.436 -34.170  0.00  0.00    -0.038 C 
ENDBRANCH  14  21
ENDBRANCH   8  14
ENDBRANCH   4  13
ENDBRANCH   3   6
ENDBRANCH   2   3
ENDBRANCH   1   2
BRANCH   1  24
ATOM     24  C   UNL A   1      42.931 -20.922 -37.175  0.00  0.00    -0.053 C 
BRANCH  24  25
ATOM     25  C   UNL A   1      43.073 -19.477 -37.655  0.00  0.00    -0.053 C 
BRANCH  25  26
ATOM     26  C   UNL A   1      42.923 -19.366 -39.174  0.00  0.00    -0.053 C 
BRANCH  26  27
ATOM     27  C   UNL A   1      42.685 -17.912 -39.592  0.00  0.00    -0.053 C 
BRANCH  27  28
ATOM     28  C   UNL A   1      43.560 -16.909 -38.832  0.00  0.00    -0.052 C 
BRANCH  28  29
ATOM     29  C   UNL A   1      44.547 -16.129 -39.707  0.00  0.00    -0.037 C 
BRANCH  29  30
ATOM     30  C   UNL A   1      45.233 -16.975 -40.778  0.00  0.00    +0.009 C 
BRANCH  30  31
ATOM     31  N   UNL A   1      46.566 -17.439 -40.359  0.00  0.00    -0.343 N 
ATOM     32  H   UNL A   1      47.389 -16.938 -40.563  0.00  0.00    +0.000 HD
BRANCH  31  33
ATOM     33  C   UNL A   1      46.577 -18.663 -39.638  0.00  0.00    +0.041 A 
ATOM     34  C   UNL A   1      46.344 -19.872 -40.329  0.00  0.00    -0.005 A 
ATOM     35  C   UNL A   1      46.286 -21.050 -39.581  0.00  0.00    +0.047 A 
ATOM     36  N   UNL A   1      46.414 -21.079 -38.234  0.00  0.00    -0.251 NA
ATOM     37  C   UNL A   1      46.653 -19.938 -37.579  0.00  0.00    +0.073 A 
ATOM     38  C   UNL A   1      46.806 -20.012 -36.201  0.00  0.00    -0.036 A 
ATOM     39  C   UNL A   1      47.063 -18.884 -35.420  0.00  0.00    -0.060 A 
ATOM     40  C   UNL A   1      47.174 -17.646 -36.031  0.00  0.00    -0.061 A 
ATOM     41  C   UNL A   1      47.022 -17.548 -37.415  0.00  0.00    -0.051 A 
ATOM     42  C   UNL A   1      46.753 -18.687 -38.221  0.00  0.00    +0.021 A 
ATOM     43  C   UNL A   1      46.022 -22.388 -40.223  0.00  0.00    -0.010 C 
ATOM     44  C   UNL A   1      46.374 -22.426 -41.703  0.00  0.00    -0.047 C 
ATOM     45  C   UNL A   1      45.759 -21.228 -42.410  0.00  0.00    -0.049 C 
ATOM     46  C   UNL A   1      46.324 -19.926 -41.841  0.00  0.00    -0.024 C 
ENDBRANCH  31  33
ENDBRANCH  30  31
ENDBRANCH  29  30
ENDBRANCH  28  29
ENDBRANCH  27  28
ENDBRANCH  26  27
ENDBRANCH  25  26
ENDBRANCH  24  25
ENDBRANCH   1  24
TORSDOF 15
ENDMDL
MODEL 10
REMARK VINA RESULT:    -6.066      2.309      5.423
REMARK INTER + INTRA:         -17.553
REMARK INTER:                 -12.675
REMARK INTRA:                  -4.878
REMARK UNBOUND:                -6.168
REMARK  Name = cpd27.pdb
REMARK  17 active torsions:
REMARK  status: ('A' for Active; 'I' for Inactive)
REMARK    1  A    between atoms: C_1  and  C_2
REMARK    2  A    between atoms: C_6  and  N_7
REMARK    3  A    between atoms: N_7  and  C_8
REMARK    4  A    between atoms: C_13  and  C_14
REMARK    5  A    between atoms: N_16  and  C_17
REMARK    6  A    between atoms: C_17  and  C_18
REMARK    7  A    between atoms: C_18  and  C_19
REMARK    8  A    between atoms: C_19  and  C_20
REMARK    9  A    between atoms: C_20  and  C_21
REMARK   10  A    between atoms: C_21  and  C_22
REMARK   11  A    between atoms: C_22  and  C_23
REMARK   12  A    between atoms: C_23  and  C_24
REMARK   13  A    between atoms: C_24  and  C_25
REMARK   14  A    between atoms: C_25  and  C_26
REMARK   15  A    between atoms: C_26  and  N_27
REMARK   16  A    between atoms: N_27  and  C_28
REMARK   17  A    between atoms: C_42  and  C_43
REMARK                            x       y       z     vdW  Elec       q    Type
REMARK                         _______ _______ _______ _____ _____    ______ ____
ROOT
ATOM      1  C   UNL A   1      42.347 -18.854 -37.153  0.00  0.00    -0.052 C 
ENDROOT
BRANCH   1   2
ATOM      2  C   UNL A   1      43.574 -19.679 -37.554  0.00  0.00    -0.037 C 
BRANCH   2   3
ATOM      3  C   UNL A   1      43.344 -20.496 -38.826  0.00  0.00    +0.012 C 
BRANCH   3   6
ATOM      4  C   UNL A   1      44.785 -19.586 -40.681  0.00  0.00    +0.246 C 
ATOM      5  O   UNL A   1      45.045 -18.543 -41.281  0.00  0.00    -0.270 OA
ATOM      6  N   UNL A   1      43.579 -19.708 -40.028  0.00  0.00    -0.311 N 
ATOM      7  H   UNL A   1      42.811 -19.222 -40.406  0.00  0.00    +0.000 HD
BRANCH   4  13
ATOM      8  C   UNL A   1      47.019 -20.486 -39.996  0.00  0.00    +0.044 A 
ATOM      9  C   UNL A   1      47.909 -21.571 -39.945  0.00  0.00    -0.040 A 
ATOM     10  C   UNL A   1      47.633 -22.767 -40.614  0.00  0.00    -0.060 A 
ATOM     11  C   UNL A   1      46.449 -22.909 -41.330  0.00  0.00    -0.061 A 
ATOM     12  C   UNL A   1      45.523 -21.867 -41.350  0.00  0.00    -0.048 A 
ATOM     13  C   UNL A   1      45.783 -20.680 -40.648  0.00  0.00    +0.058 A 
BRANCH   8  14
ATOM     14  N   UNL A   1      47.298 -19.286 -39.280  0.00  0.00    -0.314 N 
ATOM     15  H   UNL A   1      47.830 -18.605 -39.750  0.00  0.00    +0.000 HD
BRANCH  14  21
ATOM     16  C   UNL A   1      45.800 -15.913 -35.901  0.00  0.00    -0.039 C 
ATOM     17  C   UNL A   1      46.224 -17.303 -36.293  0.00  0.00    -0.046 A 
ATOM     18  C   UNL A   1      46.351 -18.276 -35.289  0.00  0.00    -0.058 A 
ATOM     19  C   UNL A   1      46.767 -19.566 -35.599  0.00  0.00    -0.060 A 
ATOM     20  C   UNL A   1      47.053 -19.904 -36.919  0.00  0.00    -0.040 A 
ATOM     21  C   UNL A   1      46.887 -18.971 -37.954  0.00  0.00    +0.035 A 
ATOM     22  C   UNL A   1      46.481 -17.653 -37.640  0.00  0.00    -0.026 A 
ATOM     23  C   UNL A   1      46.376 -16.622 -38.737  0.00  0.00    -0.038 C 
ENDBRANCH  14  21
ENDBRANCH   8  14
ENDBRANCH   4  13
ENDBRANCH   3   6
ENDBRANCH   2   3
ENDBRANCH   1   2
BRANCH   1  24
ATOM     24  C   UNL A   1      41.448 -19.620 -36.180  0.00  0.00    -0.053 C 
BRANCH  24  25
ATOM     25  C   UNL A   1      39.976 -19.272 -36.404  0.00  0.00    -0.053 C 
BRANCH  25  26
ATOM     26  C   UNL A   1      39.111 -20.527 -36.550  0.00  0.00    -0.053 C 
BRANCH  26  27
ATOM     27  C   UNL A   1      39.923 -21.787 -36.238  0.00  0.00    -0.053 C 
BRANCH  27  28
ATOM     28  C   UNL A   1      39.212 -22.747 -35.279  0.00  0.00    -0.052 C 
BRANCH  28  29
ATOM     29  C   UNL A   1      40.022 -23.125 -34.034  0.00  0.00    -0.037 C 
BRANCH  29  30
ATOM     30  C   UNL A   1      41.107 -22.114 -33.667  0.00  0.00    +0.009 C 
BRANCH  30  31
ATOM     31  N   UNL A   1      40.783 -21.362 -32.443  0.00  0.00    -0.343 N 
ATOM     32  H   UNL A   1      40.845 -21.761 -31.545  0.00  0.00    +0.000 HD
BRANCH  31  33
ATOM     33  C   UNL A   1      40.373 -20.018 -32.654  0.00  0.00    +0.041 A 
ATOM     34  C   UNL A   1      41.351 -19.004 -32.735  0.00  0.00    -0.005 A 
ATOM     35  C   UNL A   1      40.913 -17.684 -32.868  0.00  0.00    +0.047 A 
ATOM     36  N   UNL A   1      39.606 -17.337 -32.894  0.00  0.00    -0.251 NA
ATOM     37  C   UNL A   1      38.677 -18.298 -32.837  0.00  0.00    +0.073 A 
ATOM     38  C   UNL A   1      37.346 -17.905 -32.894  0.00  0.00    -0.036 A 
ATOM     39  C   UNL A   1      36.297 -18.824 -32.847  0.00  0.00    -0.060 A 
ATOM     40  C   UNL A   1      36.583 -20.175 -32.742  0.00  0.00    -0.061 A 
ATOM     41  C   UNL A   1      37.912 -20.593 -32.681  0.00  0.00    -0.051 A 
ATOM     42  C   UNL A   1      38.990 -19.667 -32.721  0.00  0.00    +0.021 A 
ATOM     43  C   UNL A   1      41.878 -16.529 -32.942  0.00  0.00    -0.010 C 
ATOM     44  C   UNL A   1      43.270 -16.935 -33.408  0.00  0.00    -0.047 C 
ATOM     45  C   UNL A   1      43.749 -18.139 -32.612  0.00  0.00    -0.049 C 
ATOM     46  C   UNL A   1      42.824 -19.334 -32.844  0.00  0.00    -0.024 C 
ENDBRANCH  31  33
ENDBRANCH  30  31
ENDBRANCH  29  30
ENDBRANCH  28  29
ENDBRANCH  27  28
ENDBRANCH  26  27
ENDBRANCH  25  26
ENDBRANCH  24  25
ENDBRANCH   1  24
TORSDOF 15
ENDMDL
MODEL 11
REMARK VINA RESULT:    -6.053      2.307      4.950
REMARK INTER + INTRA:         -17.530
REMARK INTER:                 -10.964
REMARK INTRA:                  -6.566
REMARK UNBOUND:                -6.168
REMARK  Name = cpd27.pdb
REMARK  17 active torsions:
REMARK  status: ('A' for Active; 'I' for Inactive)
REMARK    1  A    between atoms: C_1  and  C_2
REMARK    2  A    between atoms: C_6  and  N_7
REMARK    3  A    between atoms: N_7  and  C_8
REMARK    4  A    between atoms: C_13  and  C_14
REMARK    5  A    between atoms: N_16  and  C_17
REMARK    6  A    between atoms: C_17  and  C_18
REMARK    7  A    between atoms: C_18  and  C_19
REMARK    8  A    between atoms: C_19  and  C_20
REMARK    9  A    between atoms: C_20  and  C_21
REMARK   10  A    between atoms: C_21  and  C_22
REMARK   11  A    between atoms: C_22  and  C_23
REMARK   12  A    between atoms: C_23  and  C_24
REMARK   13  A    between atoms: C_24  and  C_25
REMARK   14  A    between atoms: C_25  and  C_26
REMARK   15  A    between atoms: C_26  and  N_27
REMARK   16  A    between atoms: N_27  and  C_28
REMARK   17  A    between atoms: C_42  and  C_43
REMARK                            x       y       z     vdW  Elec       q    Type
REMARK                         _______ _______ _______ _____ _____    ______ ____
ROOT
ATOM      1  C   UNL A   1      41.919 -18.262 -33.902  0.00  0.00    -0.052 C 
ENDROOT
BRANCH   1   2
ATOM      2  C   UNL A   1      42.910 -19.095 -33.083  0.00  0.00    -0.037 C 
BRANCH   2   3
ATOM      3  C   UNL A   1      43.533 -20.233 -33.893  0.00  0.00    +0.012 C 
BRANCH   3   6
ATOM      4  C   UNL A   1      45.912 -19.832 -34.619  0.00  0.00    +0.246 C 
ATOM      5  O   UNL A   1      47.006 -20.388 -34.696  0.00  0.00    -0.270 OA
ATOM      6  N   UNL A   1      44.978 -20.295 -33.721  0.00  0.00    -0.311 N 
ATOM      7  H   UNL A   1      45.315 -20.704 -32.891  0.00  0.00    +0.000 HD
BRANCH   4  13
ATOM      8  C   UNL A   1      45.384 -18.916 -36.889  0.00  0.00    +0.044 A 
ATOM      9  C   UNL A   1      45.045 -17.810 -37.686  0.00  0.00    -0.040 A 
ATOM     10  C   UNL A   1      45.037 -16.514 -37.161  0.00  0.00    -0.060 A 
ATOM     11  C   UNL A   1      45.349 -16.300 -35.822  0.00  0.00    -0.061 A 
ATOM     12  C   UNL A   1      45.635 -17.387 -34.997  0.00  0.00    -0.048 A 
ATOM     13  C   UNL A   1      45.606 -18.691 -35.514  0.00  0.00    +0.058 A 
BRANCH   8  14
ATOM     14  N   UNL A   1      45.352 -20.234 -37.429  0.00  0.00    -0.314 N 
ATOM     15  H   UNL A   1      45.953 -20.895 -37.016  0.00  0.00    +0.000 HD
BRANCH  14  21
ATOM     16  C   UNL A   1      44.813 -21.300 -42.289  0.00  0.00    -0.039 C 
ATOM     17  C   UNL A   1      44.268 -21.143 -40.894  0.00  0.00    -0.046 A 
ATOM     18  C   UNL A   1      42.891 -21.319 -40.686  0.00  0.00    -0.058 A 
ATOM     19  C   UNL A   1      42.337 -21.157 -39.421  0.00  0.00    -0.060 A 
ATOM     20  C   UNL A   1      43.154 -20.825 -38.344  0.00  0.00    -0.040 A 
ATOM     21  C   UNL A   1      44.542 -20.693 -38.506  0.00  0.00    +0.035 A 
ATOM     22  C   UNL A   1      45.107 -20.840 -39.795  0.00  0.00    -0.026 A 
ATOM     23  C   UNL A   1      46.587 -20.622 -39.992  0.00  0.00    -0.038 C 
ENDBRANCH  14  21
ENDBRANCH   8  14
ENDBRANCH   4  13
ENDBRANCH   3   6
ENDBRANCH   2   3
ENDBRANCH   1   2
BRANCH   1  24
ATOM     24  C   UNL A   1      42.058 -18.535 -35.402  0.00  0.00    -0.053 C 
BRANCH  24  25
ATOM     25  C   UNL A   1      41.547 -17.351 -36.224  0.00  0.00    -0.053 C 
BRANCH  25  26
ATOM     26  C   UNL A   1      41.655 -16.034 -35.452  0.00  0.00    -0.053 C 
BRANCH  26  27
ATOM     27  C   UNL A   1      40.324 -15.277 -35.478  0.00  0.00    -0.053 C 
BRANCH  27  28
ATOM     28  C   UNL A   1      39.594 -15.280 -34.131  0.00  0.00    -0.052 C 
BRANCH  28  29
ATOM     29  C   UNL A   1      38.311 -16.117 -34.099  0.00  0.00    -0.037 C 
BRANCH  29  30
ATOM     30  C   UNL A   1      38.508 -17.537 -33.572  0.00  0.00    +0.009 C 
BRANCH  30  31
ATOM     31  N   UNL A   1      37.717 -18.529 -34.321  0.00  0.00    -0.343 N 
ATOM     32  H   UNL A   1      36.735 -18.573 -34.266  0.00  0.00    +0.000 HD
BRANCH  31  33
ATOM     33  C   UNL A   1      38.477 -19.416 -35.129  0.00  0.00    +0.041 A 
ATOM     34  C   UNL A   1      38.508 -19.221 -36.527  0.00  0.00    -0.005 A 
ATOM     35  C   UNL A   1      39.202 -20.154 -37.300  0.00  0.00    +0.047 A 
ATOM     36  N   UNL A   1      39.816 -21.240 -36.777  0.00  0.00    -0.251 NA
ATOM     37  C   UNL A   1      39.804 -21.417 -35.452  0.00  0.00    +0.073 A 
ATOM     38  C   UNL A   1      40.469 -22.529 -34.949  0.00  0.00    -0.036 A 
ATOM     39  C   UNL A   1      40.523 -22.807 -33.583  0.00  0.00    -0.060 A 
ATOM     40  C   UNL A   1      39.900 -21.951 -32.690  0.00  0.00    -0.061 A 
ATOM     41  C   UNL A   1      39.225 -20.829 -33.172  0.00  0.00    -0.051 A 
ATOM     42  C   UNL A   1      39.155 -20.538 -34.562  0.00  0.00    +0.021 A 
ATOM     43  C   UNL A   1      39.275 -20.045 -38.802  0.00  0.00    -0.010 C 
ATOM     44  C   UNL A   1      39.043 -18.631 -39.316  0.00  0.00    -0.047 C 
ATOM     45  C   UNL A   1      37.790 -18.051 -38.678  0.00  0.00    -0.049 C 
ATOM     46  C   UNL A   1      37.956 -17.962 -37.160  0.00  0.00    -0.024 C 
ENDBRANCH  31  33
ENDBRANCH  30  31
ENDBRANCH  29  30
ENDBRANCH  28  29
ENDBRANCH  27  28
ENDBRANCH  26  27
ENDBRANCH  25  26
ENDBRANCH  24  25
ENDBRANCH   1  24
TORSDOF 15
ENDMDL
MODEL 12
REMARK VINA RESULT:    -5.961      2.081      4.050
REMARK INTER + INTRA:         -17.357
REMARK INTER:                 -11.656
REMARK INTRA:                  -5.701
REMARK UNBOUND:                -6.168
REMARK  Name = cpd27.pdb
REMARK  17 active torsions:
REMARK  status: ('A' for Active; 'I' for Inactive)
REMARK    1  A    between atoms: C_1  and  C_2
REMARK    2  A    between atoms: C_6  and  N_7
REMARK    3  A    between atoms: N_7  and  C_8
REMARK    4  A    between atoms: C_13  and  C_14
REMARK    5  A    between atoms: N_16  and  C_17
REMARK    6  A    between atoms: C_17  and  C_18
REMARK    7  A    between atoms: C_18  and  C_19
REMARK    8  A    between atoms: C_19  and  C_20
REMARK    9  A    between atoms: C_20  and  C_21
REMARK   10  A    between atoms: C_21  and  C_22
REMARK   11  A    between atoms: C_22  and  C_23
REMARK   12  A    between atoms: C_23  and  C_24
REMARK   13  A    between atoms: C_24  and  C_25
REMARK   14  A    between atoms: C_25  and  C_26
REMARK   15  A    between atoms: C_26  and  N_27
REMARK   16  A    between atoms: N_27  and  C_28
REMARK   17  A    between atoms: C_42  and  C_43
REMARK                            x       y       z     vdW  Elec       q    Type
REMARK                         _______ _______ _______ _____ _____    ______ ____
ROOT
ATOM      1  C   UNL A   1      42.675 -16.778 -35.257  0.00  0.00    -0.052 C 
ENDROOT
BRANCH   1   2
ATOM      2  C   UNL A   1      43.308 -17.719 -34.226  0.00  0.00    -0.037 C 
BRANCH   2   3
ATOM      3  C   UNL A   1      43.895 -18.979 -34.861  0.00  0.00    +0.012 C 
BRANCH   3   6
ATOM      4  C   UNL A   1      46.377 -19.408 -34.865  0.00  0.00    +0.246 C 
ATOM      5  O   UNL A   1      47.217 -20.229 -34.499  0.00  0.00    -0.270 OA
ATOM      6  N   UNL A   1      45.152 -19.367 -34.238  0.00  0.00    -0.311 N 
ATOM      7  H   UNL A   1      45.124 -19.622 -33.287  0.00  0.00    +0.000 HD
BRANCH   4  13
ATOM      8  C   UNL A   1      46.695 -18.988 -37.313  0.00  0.00    +0.044 A 
ATOM      9  C   UNL A   1      46.940 -18.073 -38.350  0.00  0.00    -0.040 A 
ATOM     10  C   UNL A   1      47.276 -16.743 -38.078  0.00  0.00    -0.060 A 
ATOM     11  C   UNL A   1      47.353 -16.297 -36.763  0.00  0.00    -0.061 A 
ATOM     12  C   UNL A   1      47.060 -17.171 -35.718  0.00  0.00    -0.048 A 
ATOM     13  C   UNL A   1      46.686 -18.496 -35.991  0.00  0.00    +0.058 A 
BRANCH   8  14
ATOM     14  N   UNL A   1      46.319 -20.331 -37.606  0.00  0.00    -0.314 N 
ATOM     15  H   UNL A   1      46.248 -20.946 -36.842  0.00  0.00    +0.000 HD
BRANCH  14  21
ATOM     16  C   UNL A   1      43.052 -21.275 -41.278  0.00  0.00    -0.039 C 
ATOM     17  C   UNL A   1      44.415 -21.392 -40.649  0.00  0.00    -0.046 A 
ATOM     18  C   UNL A   1      45.385 -22.181 -41.287  0.00  0.00    -0.058 A 
ATOM     19  C   UNL A   1      46.649 -22.342 -40.729  0.00  0.00    -0.060 A 
ATOM     20  C   UNL A   1      46.963 -21.710 -39.530  0.00  0.00    -0.040 A 
ATOM     21  C   UNL A   1      46.035 -20.873 -38.891  0.00  0.00    +0.035 A 
ATOM     22  C   UNL A   1      44.743 -20.720 -39.446  0.00  0.00    -0.026 A 
ATOM     23  C   UNL A   1      43.713 -19.885 -38.726  0.00  0.00    -0.038 C 
ENDBRANCH  14  21
ENDBRANCH   8  14
ENDBRANCH   4  13
ENDBRANCH   3   6
ENDBRANCH   2   3
ENDBRANCH   1   2
BRANCH   1  24
ATOM     24  C   UNL A   1      43.739 -16.072 -36.102  0.00  0.00    -0.053 C 
BRANCH  24  25
ATOM     25  C   UNL A   1      43.111 -15.404 -37.326  0.00  0.00    -0.053 C 
BRANCH  25  26
ATOM     26  C   UNL A   1      43.628 -16.012 -38.633  0.00  0.00    -0.053 C 
BRANCH  26  27
ATOM     27  C   UNL A   1      42.466 -16.496 -39.504  0.00  0.00    -0.053 C 
BRANCH  27  28
ATOM     28  C   UNL A   1      41.092 -16.051 -38.990  0.00  0.00    -0.052 C 
BRANCH  28  29
ATOM     29  C   UNL A   1      40.120 -17.196 -38.686  0.00  0.00    -0.037 C 
BRANCH  29  30
ATOM     30  C   UNL A   1      39.432 -17.082 -37.327  0.00  0.00    +0.009 C 
BRANCH  30  31
ATOM     31  N   UNL A   1      38.717 -18.315 -36.955  0.00  0.00    -0.343 N 
ATOM     32  H   UNL A   1      37.771 -18.469 -37.183  0.00  0.00    +0.000 HD
BRANCH  31  33
ATOM     33  C   UNL A   1      39.494 -19.268 -36.242  0.00  0.00    +0.041 A 
ATOM     34  C   UNL A   1      39.985 -20.404 -36.922  0.00  0.00    -0.005 A 
ATOM     35  C   UNL A   1      40.681 -21.359 -36.177  0.00  0.00    +0.047 A 
ATOM     36  N   UNL A   1      40.879 -21.257 -34.842  0.00  0.00    -0.251 NA
ATOM     37  C   UNL A   1      40.431 -20.173 -34.200  0.00  0.00    +0.073 A 
ATOM     38  C   UNL A   1      40.677 -20.091 -32.835  0.00  0.00    -0.036 A 
ATOM     39  C   UNL A   1      40.259 -19.002 -32.069  0.00  0.00    -0.060 A 
ATOM     40  C   UNL A   1      39.577 -17.964 -32.680  0.00  0.00    -0.061 A 
ATOM     41  C   UNL A   1      39.317 -18.025 -34.050  0.00  0.00    -0.051 A 
ATOM     42  C   UNL A   1      39.731 -19.131 -34.841  0.00  0.00    +0.021 A 
ATOM     43  C   UNL A   1      41.226 -22.615 -36.806  0.00  0.00    -0.010 C 
ATOM     44  C   UNL A   1      41.446 -22.492 -38.307  0.00  0.00    -0.047 C 
ATOM     45  C   UNL A   1      40.200 -21.918 -38.964  0.00  0.00    -0.049 C 
ATOM     46  C   UNL A   1      39.913 -20.514 -38.429  0.00  0.00    -0.024 C 
ENDBRANCH  31  33
ENDBRANCH  30  31
ENDBRANCH  29  30
ENDBRANCH  28  29
ENDBRANCH  27  28
ENDBRANCH  26  27
ENDBRANCH  25  26
ENDBRANCH  24  25
ENDBRANCH   1  24
TORSDOF 15
ENDMDL
MODEL 13
REMARK VINA RESULT:    -5.920      2.474      4.754
REMARK INTER + INTRA:         -17.280
REMARK INTER:                 -10.201
REMARK INTRA:                  -7.079
REMARK UNBOUND:                -6.168
REMARK  Name = cpd27.pdb
REMARK  17 active torsions:
REMARK  status: ('A' for Active; 'I' for Inactive)
REMARK    1  A    between atoms: C_1  and  C_2
REMARK    2  A    between atoms: C_6  and  N_7
REMARK    3  A    between atoms: N_7  and  C_8
REMARK    4  A    between atoms: C_13  and  C_14
REMARK    5  A    between atoms: N_16  and  C_17
REMARK    6  A    between atoms: C_17  and  C_18
REMARK    7  A    between atoms: C_18  and  C_19
REMARK    8  A    between atoms: C_19  and  C_20
REMARK    9  A    between atoms: C_20  and  C_21
REMARK   10  A    between atoms: C_21  and  C_22
REMARK   11  A    between atoms: C_22  and  C_23
REMARK   12  A    between atoms: C_23  and  C_24
REMARK   13  A    between atoms: C_24  and  C_25
REMARK   14  A    between atoms: C_25  and  C_26
REMARK   15  A    between atoms: C_26  and  N_27
REMARK   16  A    between atoms: N_27  and  C_28
REMARK   17  A    between atoms: C_42  and  C_43
REMARK                            x       y       z     vdW  Elec       q    Type
REMARK                         _______ _______ _______ _____ _____    ______ ____
ROOT
ATOM      1  C   UNL A   1      41.546 -16.315 -34.695  0.00  0.00    -0.052 C 
ENDROOT
BRANCH   1   2
ATOM      2  C   UNL A   1      42.480 -16.782 -33.574  0.00  0.00    -0.037 C 
BRANCH   2   3
ATOM      3  C   UNL A   1      42.920 -18.236 -33.741  0.00  0.00    +0.012 C 
BRANCH   3   6
ATOM      4  C   UNL A   1      45.341 -18.394 -34.419  0.00  0.00    +0.246 C 
ATOM      5  O   UNL A   1      46.354 -19.070 -34.239  0.00  0.00    -0.270 OA
ATOM      6  N   UNL A   1      44.341 -18.408 -33.473  0.00  0.00    -0.311 N 
ATOM      7  H   UNL A   1      44.610 -18.546 -32.536  0.00  0.00    +0.000 HD
BRANCH   4  13
ATOM      8  C   UNL A   1      45.136 -18.252 -36.910  0.00  0.00    +0.044 A 
ATOM      9  C   UNL A   1      44.949 -17.457 -38.054  0.00  0.00    -0.040 A 
ATOM     10  C   UNL A   1      44.944 -16.062 -37.973  0.00  0.00    -0.060 A 
ATOM     11  C   UNL A   1      45.103 -15.432 -36.743  0.00  0.00    -0.061 A 
ATOM     12  C   UNL A   1      45.234 -16.198 -35.586  0.00  0.00    -0.048 A 
ATOM     13  C   UNL A   1      45.202 -17.599 -35.661  0.00  0.00    +0.058 A 
BRANCH   8  14
ATOM     14  N   UNL A   1      45.103 -19.673 -37.003  0.00  0.00    -0.314 N 
ATOM     15  H   UNL A   1      45.965 -20.140 -36.921  0.00  0.00    +0.000 HD
BRANCH  14  21
ATOM     16  C   UNL A   1      41.923 -21.985 -40.099  0.00  0.00    -0.039 C 
ATOM     17  C   UNL A   1      42.364 -21.553 -38.725  0.00  0.00    -0.046 A 
ATOM     18  C   UNL A   1      41.535 -21.844 -37.631  0.00  0.00    -0.058 A 
ATOM     19  C   UNL A   1      41.886 -21.441 -36.347  0.00  0.00    -0.060 A 
ATOM     20  C   UNL A   1      43.075 -20.749 -36.138  0.00  0.00    -0.040 A 
ATOM     21  C   UNL A   1      43.952 -20.487 -37.202  0.00  0.00    +0.035 A 
ATOM     22  C   UNL A   1      43.591 -20.880 -38.512  0.00  0.00    -0.026 A 
ATOM     23  C   UNL A   1      44.491 -20.533 -39.673  0.00  0.00    -0.038 C 
ENDBRANCH  14  21
ENDBRANCH   8  14
ENDBRANCH   4  13
ENDBRANCH   3   6
ENDBRANCH   2   3
ENDBRANCH   1   2
BRANCH   1  24
ATOM     24  C   UNL A   1      41.313 -17.420 -35.728  0.00  0.00    -0.053 C 
BRANCH  24  25
ATOM     25  C   UNL A   1      41.484 -16.884 -37.150  0.00  0.00    -0.053 C 
BRANCH  25  26
ATOM     26  C   UNL A   1      41.311 -17.987 -38.198  0.00  0.00    -0.053 C 
BRANCH  26  27
ATOM     27  C   UNL A   1      39.930 -17.901 -38.855  0.00  0.00    -0.053 C 
BRANCH  27  28
ATOM     28  C   UNL A   1      39.244 -19.262 -39.010  0.00  0.00    -0.052 C 
BRANCH  28  29
ATOM     29  C   UNL A   1      38.724 -19.871 -37.703  0.00  0.00    -0.037 C 
BRANCH  29  30
ATOM     30  C   UNL A   1      38.025 -18.869 -36.786  0.00  0.00    +0.009 C 
BRANCH  30  31
ATOM     31  N   UNL A   1      37.376 -19.520 -35.635  0.00  0.00    -0.343 N 
ATOM     32  H   UNL A   1      36.456 -19.870 -35.675  0.00  0.00    +0.000 HD
BRANCH  31  33
ATOM     33  C   UNL A   1      38.175 -19.606 -34.464  0.00  0.00    +0.041 A 
ATOM     34  C   UNL A   1      38.389 -18.445 -33.689  0.00  0.00    -0.005 A 
ATOM     35  C   UNL A   1      39.240 -18.545 -32.586  0.00  0.00    +0.047 A 
ATOM     36  N   UNL A   1      39.883 -19.686 -32.248  0.00  0.00    -0.251 NA
ATOM     37  C   UNL A   1      39.668 -20.791 -32.969  0.00  0.00    +0.073 A 
ATOM     38  C   UNL A   1      40.324 -21.950 -32.575  0.00  0.00    -0.036 A 
ATOM     39  C   UNL A   1      40.167 -23.160 -33.252  0.00  0.00    -0.060 A 
ATOM     40  C   UNL A   1      39.331 -23.218 -34.354  0.00  0.00    -0.061 A 
ATOM     41  C   UNL A   1      38.662 -22.066 -34.769  0.00  0.00    -0.051 A 
ATOM     42  C   UNL A   1      38.818 -20.826 -34.093  0.00  0.00    +0.021 A 
ATOM     43  C   UNL A   1      39.549 -17.358 -31.710  0.00  0.00    -0.010 C 
ATOM     44  C   UNL A   1      38.487 -16.269 -31.773  0.00  0.00    -0.047 C 
ATOM     45  C   UNL A   1      38.168 -15.945 -33.225  0.00  0.00    -0.049 C 
ATOM     46  C   UNL A   1      37.601 -17.176 -33.934  0.00  0.00    -0.024 C 
ENDBRANCH  31  33
ENDBRANCH  30  31
ENDBRANCH  29  30
ENDBRANCH  28  29
ENDBRANCH  27  28
ENDBRANCH  26  27
ENDBRANCH  25  26
ENDBRANCH  24  25
ENDBRANCH   1  24
TORSDOF 15
ENDMDL
MODEL 14
REMARK VINA RESULT:    -5.877      2.092      5.197
REMARK INTER + INTRA:         -17.199
REMARK INTER:                 -11.147
REMARK INTRA:                  -6.051
REMARK UNBOUND:                -6.168
REMARK  Name = cpd27.pdb
REMARK  17 active torsions:
REMARK  status: ('A' for Active; 'I' for Inactive)
REMARK    1  A    between atoms: C_1  and  C_2
REMARK    2  A    between atoms: C_6  and  N_7
REMARK    3  A    between atoms: N_7  and  C_8
REMARK    4  A    between atoms: C_13  and  C_14
REMARK    5  A    between atoms: N_16  and  C_17
REMARK    6  A    between atoms: C_17  and  C_18
REMARK    7  A    between atoms: C_18  and  C_19
REMARK    8  A    between atoms: C_19  and  C_20
REMARK    9  A    between atoms: C_20  and  C_21
REMARK   10  A    between atoms: C_21  and  C_22
REMARK   11  A    between atoms: C_22  and  C_23
REMARK   12  A    between atoms: C_23  and  C_24
REMARK   13  A    between atoms: C_24  and  C_25
REMARK   14  A    between atoms: C_25  and  C_26
REMARK   15  A    between atoms: C_26  and  N_27
REMARK   16  A    between atoms: N_27  and  C_28
REMARK   17  A    between atoms: C_42  and  C_43
REMARK                            x       y       z     vdW  Elec       q    Type
REMARK                         _______ _______ _______ _____ _____    ______ ____
ROOT
ATOM      1  C   UNL A   1      42.946 -17.456 -36.671  0.00  0.00    -0.052 C 
ENDROOT
BRANCH   1   2
ATOM      2  C   UNL A   1      43.216 -17.011 -38.112  0.00  0.00    -0.037 C 
BRANCH   2   3
ATOM      3  C   UNL A   1      43.198 -18.176 -39.102  0.00  0.00    +0.012 C 
BRANCH   3   6
ATOM      4  C   UNL A   1      44.798 -18.297 -41.044  0.00  0.00    +0.246 C 
ATOM      5  O   UNL A   1      45.447 -17.584 -41.808  0.00  0.00    -0.270 OA
ATOM      6  N   UNL A   1      43.687 -17.781 -40.415  0.00  0.00    -0.311 N 
ATOM      7  H   UNL A   1      43.181 -17.086 -40.895  0.00  0.00    +0.000 HD
BRANCH   4  13
ATOM      8  C   UNL A   1      46.441 -19.932 -40.096  0.00  0.00    +0.044 A 
ATOM      9  C   UNL A   1      46.787 -21.267 -39.834  0.00  0.00    -0.040 A 
ATOM     10  C   UNL A   1      46.026 -22.325 -40.340  0.00  0.00    -0.060 A 
ATOM     11  C   UNL A   1      44.891 -22.068 -41.102  0.00  0.00    -0.061 A 
ATOM     12  C   UNL A   1      44.495 -20.751 -41.330  0.00  0.00    -0.048 A 
ATOM     13  C   UNL A   1      45.237 -19.689 -40.791  0.00  0.00    +0.058 A 
BRANCH   8  14
ATOM     14  N   UNL A   1      47.206 -18.864 -39.544  0.00  0.00    -0.314 N 
ATOM     15  H   UNL A   1      48.009 -18.592 -40.043  0.00  0.00    +0.000 HD
BRANCH  14  21
ATOM     16  C   UNL A   1      46.999 -14.542 -37.030  0.00  0.00    -0.039 C 
ATOM     17  C   UNL A   1      46.898 -16.042 -37.104  0.00  0.00    -0.046 A 
ATOM     18  C   UNL A   1      46.663 -16.760 -35.922  0.00  0.00    -0.058 A 
ATOM     19  C   UNL A   1      46.590 -18.149 -35.935  0.00  0.00    -0.060 A 
ATOM     20  C   UNL A   1      46.743 -18.839 -37.135  0.00  0.00    -0.040 A 
ATOM     21  C   UNL A   1      46.928 -18.150 -38.343  0.00  0.00    +0.035 A 
ATOM     22  C   UNL A   1      47.020 -16.739 -38.331  0.00  0.00    -0.026 A 
ATOM     23  C   UNL A   1      47.297 -15.995 -39.614  0.00  0.00    -0.038 C 
ENDBRANCH  14  21
ENDBRANCH   8  14
ENDBRANCH   4  13
ENDBRANCH   3   6
ENDBRANCH   2   3
ENDBRANCH   1   2
BRANCH   1  24
ATOM     24  C   UNL A   1      41.707 -16.767 -36.093  0.00  0.00    -0.053 C 
BRANCH  24  25
ATOM     25  C   UNL A   1      41.923 -16.394 -34.626  0.00  0.00    -0.053 C 
BRANCH  25  26
ATOM     26  C   UNL A   1      43.228 -15.619 -34.422  0.00  0.00    -0.053 C 
BRANCH  26  27
ATOM     27  C   UNL A   1      44.133 -16.333 -33.414  0.00  0.00    -0.053 C 
BRANCH  27  28
ATOM     28  C   UNL A   1      43.479 -17.561 -32.771  0.00  0.00    -0.052 C 
BRANCH  28  29
ATOM     29  C   UNL A   1      44.274 -18.862 -32.923  0.00  0.00    -0.037 C 
BRANCH  29  30
ATOM     30  C   UNL A   1      43.958 -19.639 -34.199  0.00  0.00    +0.009 C 
BRANCH  30  31
ATOM     31  N   UNL A   1      42.932 -20.674 -33.987  0.00  0.00    -0.343 N 
ATOM     32  H   UNL A   1      43.096 -21.480 -33.446  0.00  0.00    +0.000 HD
BRANCH  31  33
ATOM     33  C   UNL A   1      41.685 -20.423 -34.622  0.00  0.00    +0.041 A 
ATOM     34  C   UNL A   1      41.543 -20.710 -35.997  0.00  0.00    -0.005 A 
ATOM     35  C   UNL A   1      40.331 -20.382 -36.609  0.00  0.00    +0.047 A 
ATOM     36  N   UNL A   1      39.309 -19.783 -35.955  0.00  0.00    -0.251 NA
ATOM     37  C   UNL A   1      39.435 -19.527 -34.649  0.00  0.00    +0.073 A 
ATOM     38  C   UNL A   1      38.355 -18.936 -34.006  0.00  0.00    -0.036 A 
ATOM     39  C   UNL A   1      38.377 -18.630 -32.644  0.00  0.00    -0.060 A 
ATOM     40  C   UNL A   1      39.508 -18.924 -31.901  0.00  0.00    -0.061 A 
ATOM     41  C   UNL A   1      40.605 -19.517 -32.526  0.00  0.00    -0.051 A 
ATOM     42  C   UNL A   1      40.599 -19.826 -33.913  0.00  0.00    +0.021 A 
ATOM     43  C   UNL A   1      40.088 -20.629 -38.076  0.00  0.00    -0.010 C 
ATOM     44  C   UNL A   1      40.984 -21.712 -38.662  0.00  0.00    -0.047 C 
ATOM     45  C   UNL A   1      42.431 -21.448 -38.273  0.00  0.00    -0.049 C 
ATOM     46  C   UNL A   1      42.592 -21.496 -36.753  0.00  0.00    -0.024 C 
ENDBRANCH  31  33
ENDBRANCH  30  31
ENDBRANCH  29  30
ENDBRANCH  28  29
ENDBRANCH  27  28
ENDBRANCH  26  27
ENDBRANCH  25  26
ENDBRANCH  24  25
ENDBRANCH   1  24
TORSDOF 15
ENDMDL
MODEL 15
REMARK VINA RESULT:    -5.837      2.104      3.781
REMARK INTER + INTRA:         -17.124
REMARK INTER:                 -11.743
REMARK INTRA:                  -5.381
REMARK UNBOUND:                -6.168
REMARK  Name = cpd27.pdb
REMARK  17 active torsions:
REMARK  status: ('A' for Active; 'I' for Inactive)
REMARK    1  A    between atoms: C_1  and  C_2
REMARK    2  A    between atoms: C_6  and  N_7
REMARK    3  A    between atoms: N_7  and  C_8
REMARK    4  A    between atoms: C_13  and  C_14
REMARK    5  A    between atoms: N_16  and  C_17
REMARK    6  A    between atoms: C_17  and  C_18
REMARK    7  A    between atoms: C_18  and  C_19
REMARK    8  A    between atoms: C_19  and  C_20
REMARK    9  A    between atoms: C_20  and  C_21
REMARK   10  A    between atoms: C_21  and  C_22
REMARK   11  A    between atoms: C_22  and  C_23
REMARK   12  A    between atoms: C_23  and  C_24
REMARK   13  A    between atoms: C_24  and  C_25
REMARK   14  A    between atoms: C_25  and  C_26
REMARK   15  A    between atoms: C_26  and  N_27
REMARK   16  A    between atoms: N_27  and  C_28
REMARK   17  A    between atoms: C_42  and  C_43
REMARK                            x       y       z     vdW  Elec       q    Type
REMARK                         _______ _______ _______ _____ _____    ______ ____
ROOT
ATOM      1  C   UNL A   1      42.730 -16.795 -35.199  0.00  0.00    -0.052 C 
ENDROOT
BRANCH   1   2
ATOM      2  C   UNL A   1      43.450 -17.689 -34.184  0.00  0.00    -0.037 C 
BRANCH   2   3
ATOM      3  C   UNL A   1      43.961 -18.990 -34.803  0.00  0.00    +0.012 C 
BRANCH   3   6
ATOM      4  C   UNL A   1      46.431 -19.482 -34.841  0.00  0.00    +0.246 C 
ATOM      5  O   UNL A   1      47.253 -20.332 -34.501  0.00  0.00    -0.270 OA
ATOM      6  N   UNL A   1      45.214 -19.423 -34.201  0.00  0.00    -0.311 N 
ATOM      7  H   UNL A   1      45.188 -19.697 -33.256  0.00  0.00    +0.000 HD
BRANCH   4  13
ATOM      8  C   UNL A   1      46.830 -19.041 -37.274  0.00  0.00    +0.044 A 
ATOM      9  C   UNL A   1      47.084 -18.113 -38.297  0.00  0.00    -0.040 A 
ATOM     10  C   UNL A   1      47.364 -16.774 -38.009  0.00  0.00    -0.060 A 
ATOM     11  C   UNL A   1      47.374 -16.331 -36.690  0.00  0.00    -0.061 A 
ATOM     12  C   UNL A   1      47.070 -17.219 -35.660  0.00  0.00    -0.048 A 
ATOM     13  C   UNL A   1      46.753 -18.555 -35.951  0.00  0.00    +0.058 A 
BRANCH   8  14
ATOM     14  N   UNL A   1      46.511 -20.394 -37.586  0.00  0.00    -0.314 N 
ATOM     15  H   UNL A   1      46.446 -21.018 -36.828  0.00  0.00    +0.000 HD
BRANCH  14  21
ATOM     16  C   UNL A   1      43.366 -21.420 -41.340  0.00  0.00    -0.039 C 
ATOM     17  C   UNL A   1      44.717 -21.496 -40.680  0.00  0.00    -0.046 A 
ATOM     18  C   UNL A   1      45.728 -22.245 -41.301  0.00  0.00    -0.058 A 
ATOM     19  C   UNL A   1      46.983 -22.368 -40.715  0.00  0.00    -0.060 A 
ATOM     20  C   UNL A   1      47.247 -21.735 -39.503  0.00  0.00    -0.040 A 
ATOM     21  C   UNL A   1      46.276 -20.936 -38.881  0.00  0.00    +0.035 A 
ATOM     22  C   UNL A   1      44.993 -20.823 -39.466  0.00  0.00    -0.026 A 
ATOM     23  C   UNL A   1      43.918 -20.030 -38.763  0.00  0.00    -0.038 C 
ENDBRANCH  14  21
ENDBRANCH   8  14
ENDBRANCH   4  13
ENDBRANCH   3   6
ENDBRANCH   2   3
ENDBRANCH   1   2
BRANCH   1  24
ATOM     24  C   UNL A   1      43.722 -16.056 -36.100  0.00  0.00    -0.053 C 
BRANCH  24  25
ATOM     25  C   UNL A   1      43.047 -15.591 -37.392  0.00  0.00    -0.053 C 
BRANCH  25  26
ATOM     26  C   UNL A   1      43.515 -16.403 -38.602  0.00  0.00    -0.053 C 
BRANCH  26  27
ATOM     27  C   UNL A   1      42.326 -16.809 -39.477  0.00  0.00    -0.053 C 
BRANCH  27  28
ATOM     28  C   UNL A   1      40.985 -16.260 -38.977  0.00  0.00    -0.052 C 
BRANCH  28  29
ATOM     29  C   UNL A   1      39.823 -17.258 -39.033  0.00  0.00    -0.037 C 
BRANCH  29  30
ATOM     30  C   UNL A   1      38.878 -17.180 -37.836  0.00  0.00    +0.009 C 
BRANCH  30  31
ATOM     31  N   UNL A   1      38.289 -18.487 -37.500  0.00  0.00    -0.343 N 
ATOM     32  H   UNL A   1      37.383 -18.749 -37.784  0.00  0.00    +0.000 HD
BRANCH  31  33
ATOM     33  C   UNL A   1      39.126 -19.344 -36.735  0.00  0.00    +0.041 A 
ATOM     34  C   UNL A   1      39.329 -19.065 -35.366  0.00  0.00    -0.005 A 
ATOM     35  C   UNL A   1      40.216 -19.881 -34.659  0.00  0.00    +0.047 A 
ATOM     36  N   UNL A   1      40.902 -20.898 -35.230  0.00  0.00    -0.251 NA
ATOM     37  C   UNL A   1      40.697 -21.175 -36.522  0.00  0.00    +0.073 A 
ATOM     38  C   UNL A   1      41.398 -22.244 -37.066  0.00  0.00    -0.036 A 
ATOM     39  C   UNL A   1      41.256 -22.623 -38.402  0.00  0.00    -0.060 A 
ATOM     40  C   UNL A   1      40.388 -21.919 -39.219  0.00  0.00    -0.061 A 
ATOM     41  C   UNL A   1      39.674 -20.841 -38.695  0.00  0.00    -0.051 A 
ATOM     42  C   UNL A   1      39.815 -20.439 -37.339  0.00  0.00    +0.021 A 
ATOM     43  C   UNL A   1      40.517 -19.652 -33.201  0.00  0.00    -0.010 C 
ATOM     44  C   UNL A   1      39.423 -18.884 -32.472  0.00  0.00    -0.047 C 
ATOM     45  C   UNL A   1      39.051 -17.641 -33.267  0.00  0.00    -0.049 C 
ATOM     46  C   UNL A   1      38.498 -18.031 -34.638  0.00  0.00    -0.024 C 
ENDBRANCH  31  33
ENDBRANCH  30  31
ENDBRANCH  29  30
ENDBRANCH  28  29
ENDBRANCH  27  28
ENDBRANCH  26  27
ENDBRANCH  25  26
ENDBRANCH  24  25
ENDBRANCH   1  24
TORSDOF 15
ENDMDL
MODEL 16
REMARK VINA RESULT:    -5.796      1.849      4.540
REMARK INTER + INTRA:         -17.047
REMARK INTER:                 -11.235
REMARK INTRA:                  -5.812
REMARK UNBOUND:                -6.168
REMARK  Name = cpd27.pdb
REMARK  17 active torsions:
REMARK  status: ('A' for Active; 'I' for Inactive)
REMARK    1  A    between atoms: C_1  and  C_2
REMARK    2  A    between atoms: C_6  and  N_7
REMARK    3  A    between atoms: N_7  and  C_8
REMARK    4  A    between atoms: C_13  and  C_14
REMARK    5  A    between atoms: N_16  and  C_17
REMARK    6  A    between atoms: C_17  and  C_18
REMARK    7  A    between atoms: C_18  and  C_19
REMARK    8  A    between atoms: C_19  and  C_20
REMARK    9  A    between atoms: C_20  and  C_21
REMARK   10  A    between atoms: C_21  and  C_22
REMARK   11  A    between atoms: C_22  and  C_23
REMARK   12  A    between atoms: C_23  and  C_24
REMARK   13  A    between atoms: C_24  and  C_25
REMARK   14  A    between atoms: C_25  and  C_26
REMARK   15  A    between atoms: C_26  and  N_27
REMARK   16  A    between atoms: N_27  and  C_28
REMARK   17  A    between atoms: C_42  and  C_43
REMARK                            x       y       z     vdW  Elec       q    Type
REMARK                         _______ _______ _______ _____ _____    ______ ____
ROOT
ATOM      1  C   UNL A   1      42.971 -19.966 -34.552  0.00  0.00    -0.052 C 
ENDROOT
BRANCH   1   2
ATOM      2  C   UNL A   1      43.322 -18.939 -35.633  0.00  0.00    -0.037 C 
BRANCH   2   3
ATOM      3  C   UNL A   1      44.499 -19.380 -36.504  0.00  0.00    +0.012 C 
BRANCH   3   6
ATOM      4  C   UNL A   1      45.736 -17.488 -37.616  0.00  0.00    +0.246 C 
ATOM      5  O   UNL A   1      46.874 -17.089 -37.864  0.00  0.00    -0.270 OA
ATOM      6  N   UNL A   1      45.538 -18.360 -36.570  0.00  0.00    -0.311 N 
ATOM      7  H   UNL A   1      46.149 -18.289 -35.802  0.00  0.00    +0.000 HD
BRANCH   4  13
ATOM      8  C   UNL A   1      44.595 -17.349 -39.840  0.00  0.00    +0.044 A 
ATOM      9  C   UNL A   1      43.474 -16.954 -40.589  0.00  0.00    -0.040 A 
ATOM     10  C   UNL A   1      42.454 -16.187 -40.018  0.00  0.00    -0.060 A 
ATOM     11  C   UNL A   1      42.525 -15.817 -38.679  0.00  0.00    -0.061 A 
ATOM     12  C   UNL A   1      43.599 -16.243 -37.899  0.00  0.00    -0.048 A 
ATOM     13  C   UNL A   1      44.604 -17.044 -38.463  0.00  0.00    +0.058 A 
BRANCH   8  14
ATOM     14  N   UNL A   1      45.609 -18.160 -40.427  0.00  0.00    -0.314 N 
ATOM     15  H   UNL A   1      46.518 -17.786 -40.444  0.00  0.00    +0.000 HD
BRANCH  14  21
ATOM     16  C   UNL A   1      47.015 -22.952 -40.754  0.00  0.00    -0.039 C 
ATOM     17  C   UNL A   1      46.181 -21.778 -41.195  0.00  0.00    -0.046 A 
ATOM     18  C   UNL A   1      45.317 -21.940 -42.289  0.00  0.00    -0.058 A 
ATOM     19  C   UNL A   1      44.548 -20.877 -42.751  0.00  0.00    -0.060 A 
ATOM     20  C   UNL A   1      44.626 -19.640 -42.119  0.00  0.00    -0.040 A 
ATOM     21  C   UNL A   1      45.440 -19.457 -40.991  0.00  0.00    +0.035 A 
ATOM     22  C   UNL A   1      46.237 -20.530 -40.529  0.00  0.00    -0.026 A 
ATOM     23  C   UNL A   1      47.173 -20.320 -39.365  0.00  0.00    -0.038 C 
ENDBRANCH  14  21
ENDBRANCH   8  14
ENDBRANCH   4  13
ENDBRANCH   3   6
ENDBRANCH   2   3
ENDBRANCH   1   2
BRANCH   1  24
ATOM     24  C   UNL A   1      42.528 -19.287 -33.253  0.00  0.00    -0.053 C 
BRANCH  24  25
ATOM     25  C   UNL A   1      41.129 -19.747 -32.844  0.00  0.00    -0.053 C 
BRANCH  25  26
ATOM     26  C   UNL A   1      40.149 -18.575 -32.748  0.00  0.00    -0.053 C 
BRANCH  26  27
ATOM     27  C   UNL A   1      40.814 -17.273 -33.204  0.00  0.00    -0.053 C 
BRANCH  27  28
ATOM     28  C   UNL A   1      40.104 -16.609 -34.389  0.00  0.00    -0.052 C 
BRANCH  28  29
ATOM     29  C   UNL A   1      39.995 -17.483 -35.642  0.00  0.00    -0.037 C 
BRANCH  29  30
ATOM     30  C   UNL A   1      38.561 -17.846 -36.025  0.00  0.00    +0.009 C 
BRANCH  30  31
ATOM     31  N   UNL A   1      38.504 -18.905 -37.047  0.00  0.00    -0.343 N 
ATOM     32  H   UNL A   1      37.949 -18.830 -37.856  0.00  0.00    +0.000 HD
BRANCH  31  33
ATOM     33  C   UNL A   1      39.310 -20.044 -36.777  0.00  0.00    +0.041 A 
ATOM     34  C   UNL A   1      40.377 -20.355 -37.648  0.00  0.00    -0.005 A 
ATOM     35  C   UNL A   1      41.103 -21.522 -37.399  0.00  0.00    +0.047 A 
ATOM     36  N   UNL A   1      40.814 -22.372 -36.386  0.00  0.00    -0.251 NA
ATOM     37  C   UNL A   1      39.816 -22.070 -35.549  0.00  0.00    +0.073 A 
ATOM     38  C   UNL A   1      39.568 -22.952 -34.505  0.00  0.00    -0.036 A 
ATOM     39  C   UNL A   1      38.555 -22.731 -33.571  0.00  0.00    -0.060 A 
ATOM     40  C   UNL A   1      37.767 -21.598 -33.678  0.00  0.00    -0.061 A 
ATOM     41  C   UNL A   1      37.998 -20.698 -34.719  0.00  0.00    -0.051 A 
ATOM     42  C   UNL A   1      39.021 -20.914 -35.682  0.00  0.00    +0.021 A 
ATOM     43  C   UNL A   1      42.245 -21.952 -38.283  0.00  0.00    -0.010 C 
ATOM     44  C   UNL A   1      42.868 -20.804 -39.065  0.00  0.00    -0.047 C 
ATOM     45  C   UNL A   1      41.776 -19.998 -39.752  0.00  0.00    -0.049 C 
ATOM     46  C   UNL A   1      40.833 -19.385 -38.715  0.00  0.00    -0.024 C 
ENDBRANCH  31  33
ENDBRANCH  30  31
ENDBRANCH  29  30
ENDBRANCH  28  29
ENDBRANCH  27  28
ENDBRANCH  26  27
ENDBRANCH  25  26
ENDBRANCH  24  25
ENDBRANCH   1  24
TORSDOF 15
ENDMDL
MODEL 17
REMARK VINA RESULT:    -5.772      1.746      2.634
REMARK INTER + INTRA:         -17.001
REMARK INTER:                 -10.974
REMARK INTRA:                  -6.027
REMARK UNBOUND:                -6.168
REMARK  Name = cpd27.pdb
REMARK  17 active torsions:
REMARK  status: ('A' for Active; 'I' for Inactive)
REMARK    1  A    between atoms: C_1  and  C_2
REMARK    2  A    between atoms: C_6  and  N_7
REMARK    3  A    between atoms: N_7  and  C_8
REMARK    4  A    between atoms: C_13  and  C_14
REMARK    5  A    between atoms: N_16  and  C_17
REMARK    6  A    between atoms: C_17  and  C_18
REMARK    7  A    between atoms: C_18  and  C_19
REMARK    8  A    between atoms: C_19  and  C_20
REMARK    9  A    between atoms: C_20  and  C_21
REMARK   10  A    between atoms: C_21  and  C_22
REMARK   11  A    between atoms: C_22  and  C_23
REMARK   12  A    between atoms: C_23  and  C_24
REMARK   13  A    between atoms: C_24  and  C_25
REMARK   14  A    between atoms: C_25  and  C_26
REMARK   15  A    between atoms: C_26  and  N_27
REMARK   16  A    between atoms: N_27  and  C_28
REMARK   17  A    between atoms: C_42  and  C_43
REMARK                            x       y       z     vdW  Elec       q    Type
REMARK                         _______ _______ _______ _____ _____    ______ ____
ROOT
ATOM      1  C   UNL A   1      43.782 -15.188 -36.896  0.00  0.00    -0.052 C 
ENDROOT
BRANCH   1   2
ATOM      2  C   UNL A   1      45.145 -15.866 -37.073  0.00  0.00    -0.037 C 
BRANCH   2   3
ATOM      3  C   UNL A   1      45.719 -16.388 -35.756  0.00  0.00    +0.012 C 
BRANCH   3   6
ATOM      4  C   UNL A   1      46.665 -18.722 -35.721  0.00  0.00    +0.246 C 
ATOM      5  O   UNL A   1      47.667 -19.355 -35.389  0.00  0.00    -0.270 OA
ATOM      6  N   UNL A   1      46.770 -17.373 -35.973  0.00  0.00    -0.311 N 
ATOM      7  H   UNL A   1      47.627 -17.046 -36.331  0.00  0.00    +0.000 HD
BRANCH   4  13
ATOM      8  C   UNL A   1      44.873 -19.829 -37.075  0.00  0.00    +0.044 A 
ATOM      9  C   UNL A   1      43.656 -20.530 -37.107  0.00  0.00    -0.040 A 
ATOM     10  C   UNL A   1      42.895 -20.715 -35.949  0.00  0.00    -0.060 A 
ATOM     11  C   UNL A   1      43.347 -20.219 -34.730  0.00  0.00    -0.061 A 
ATOM     12  C   UNL A   1      44.578 -19.569 -34.661  0.00  0.00    -0.048 A 
ATOM     13  C   UNL A   1      45.359 -19.416 -35.816  0.00  0.00    +0.058 A 
BRANCH   8  14
ATOM     14  N   UNL A   1      45.654 -19.680 -38.257  0.00  0.00    -0.314 N 
ATOM     15  H   UNL A   1      46.628 -19.605 -38.136  0.00  0.00    +0.000 HD
BRANCH  14  21
ATOM     16  C   UNL A   1      45.212 -21.773 -42.781  0.00  0.00    -0.039 C 
ATOM     17  C   UNL A   1      45.022 -20.628 -41.822  0.00  0.00    -0.046 A 
ATOM     18  C   UNL A   1      44.482 -19.428 -42.307  0.00  0.00    -0.058 A 
ATOM     19  C   UNL A   1      44.313 -18.333 -41.466  0.00  0.00    -0.060 A 
ATOM     20  C   UNL A   1      44.676 -18.427 -40.125  0.00  0.00    -0.040 A 
ATOM     21  C   UNL A   1      45.171 -19.628 -39.595  0.00  0.00    +0.035 A 
ATOM     22  C   UNL A   1      45.360 -20.738 -40.451  0.00  0.00    -0.026 A 
ATOM     23  C   UNL A   1      45.966 -22.008 -39.907  0.00  0.00    -0.038 C 
ENDBRANCH  14  21
ENDBRANCH   8  14
ENDBRANCH   4  13
ENDBRANCH   3   6
ENDBRANCH   2   3
ENDBRANCH   1   2
BRANCH   1  24
ATOM     24  C   UNL A   1      42.741 -16.159 -36.332  0.00  0.00    -0.053 C 
BRANCH  24  25
ATOM     25  C   UNL A   1      42.290 -17.158 -37.398  0.00  0.00    -0.053 C 
BRANCH  25  26
ATOM     26  C   UNL A   1      41.788 -16.454 -38.661  0.00  0.00    -0.053 C 
BRANCH  26  27
ATOM     27  C   UNL A   1      40.828 -17.356 -39.441  0.00  0.00    -0.053 C 
BRANCH  27  28
ATOM     28  C   UNL A   1      40.938 -18.837 -39.061  0.00  0.00    -0.052 C 
BRANCH  28  29
ATOM     29  C   UNL A   1      39.673 -19.661 -39.321  0.00  0.00    -0.037 C 
BRANCH  29  30
ATOM     30  C   UNL A   1      39.377 -20.703 -38.244  0.00  0.00    +0.009 C 
BRANCH  30  31
ATOM     31  N   UNL A   1      38.398 -20.225 -37.253  0.00  0.00    -0.343 N 
ATOM     32  H   UNL A   1      37.434 -20.166 -37.447  0.00  0.00    +0.000 HD
BRANCH  31  33
ATOM     33  C   UNL A   1      38.947 -19.854 -35.997  0.00  0.00    +0.041 A 
ATOM     34  C   UNL A   1      39.283 -20.862 -35.067  0.00  0.00    -0.005 A 
ATOM     35  C   UNL A   1      39.750 -20.463 -33.813  0.00  0.00    +0.047 A 
ATOM     36  N   UNL A   1      39.867 -19.166 -33.444  0.00  0.00    -0.251 NA
ATOM     37  C   UNL A   1      39.567 -18.210 -34.329  0.00  0.00    +0.073 A 
ATOM     38  C   UNL A   1      39.727 -16.891 -33.924  0.00  0.00    -0.036 A 
ATOM     39  C   UNL A   1      39.448 -15.815 -34.768  0.00  0.00    -0.060 A 
ATOM     40  C   UNL A   1      39.000 -16.060 -36.055  0.00  0.00    -0.061 A 
ATOM     41  C   UNL A   1      38.832 -17.377 -36.484  0.00  0.00    -0.051 A 
ATOM     42  C   UNL A   1      39.104 -18.482 -35.632  0.00  0.00    +0.021 A 
ATOM     43  C   UNL A   1      40.114 -21.462 -32.745  0.00  0.00    -0.010 C 
ATOM     44  C   UNL A   1      40.458 -22.838 -33.298  0.00  0.00    -0.047 C 
ATOM     45  C   UNL A   1      39.379 -23.285 -34.272  0.00  0.00    -0.049 C 
ATOM     46  C   UNL A   1      39.300 -22.323 -35.459  0.00  0.00    -0.024 C 
ENDBRANCH  31  33
ENDBRANCH  30  31
ENDBRANCH  29  30
ENDBRANCH  28  29
ENDBRANCH  27  28
ENDBRANCH  26  27
ENDBRANCH  25  26
ENDBRANCH  24  25
ENDBRANCH   1  24
TORSDOF 15
ENDMDL
MODEL 18
REMARK VINA RESULT:    -5.750      1.704      3.456
REMARK INTER + INTRA:         -16.960
REMARK INTER:                 -11.609
REMARK INTRA:                  -5.351
REMARK UNBOUND:                -6.168
REMARK  Name = cpd27.pdb
REMARK  17 active torsions:
REMARK  status: ('A' for Active; 'I' for Inactive)
REMARK    1  A    between atoms: C_1  and  C_2
REMARK    2  A    between atoms: C_6  and  N_7
REMARK    3  A    between atoms: N_7  and  C_8
REMARK    4  A    between atoms: C_13  and  C_14
REMARK    5  A    between atoms: N_16  and  C_17
REMARK    6  A    between atoms: C_17  and  C_18
REMARK    7  A    between atoms: C_18  and  C_19
REMARK    8  A    between atoms: C_19  and  C_20
REMARK    9  A    between atoms: C_20  and  C_21
REMARK   10  A    between atoms: C_21  and  C_22
REMARK   11  A    between atoms: C_22  and  C_23
REMARK   12  A    between atoms: C_23  and  C_24
REMARK   13  A    between atoms: C_24  and  C_25
REMARK   14  A    between atoms: C_25  and  C_26
REMARK   15  A    between atoms: C_26  and  N_27
REMARK   16  A    between atoms: N_27  and  C_28
REMARK   17  A    between atoms: C_42  and  C_43
REMARK                            x       y       z     vdW  Elec       q    Type
REMARK                         _______ _______ _______ _____ _____    ______ ____
ROOT
ATOM      1  C   UNL A   1      43.829 -15.727 -38.482  0.00  0.00    -0.052 C 
ENDROOT
BRANCH   1   2
ATOM      2  C   UNL A   1      45.328 -15.435 -38.351  0.00  0.00    -0.037 C 
BRANCH   2   3
ATOM      3  C   UNL A   1      45.883 -15.811 -36.977  0.00  0.00    +0.012 C 
BRANCH   3   6
ATOM      4  C   UNL A   1      47.076 -17.978 -36.501  0.00  0.00    +0.246 C 
ATOM      5  O   UNL A   1      48.168 -18.424 -36.151  0.00  0.00    -0.270 OA
ATOM      6  N   UNL A   1      47.008 -16.731 -37.079  0.00  0.00    -0.311 N 
ATOM      7  H   UNL A   1      47.785 -16.436 -37.606  0.00  0.00    +0.000 HD
BRANCH   4  13
ATOM      8  C   UNL A   1      45.319 -19.570 -37.307  0.00  0.00    +0.044 A 
ATOM      9  C   UNL A   1      44.188 -20.351 -37.021  0.00  0.00    -0.040 A 
ATOM     10  C   UNL A   1      43.540 -20.262 -35.785  0.00  0.00    -0.060 A 
ATOM     11  C   UNL A   1      44.024 -19.404 -34.802  0.00  0.00    -0.061 A 
ATOM     12  C   UNL A   1      45.178 -18.660 -35.041  0.00  0.00    -0.048 A 
ATOM     13  C   UNL A   1      45.850 -18.777 -36.268  0.00  0.00    +0.058 A 
BRANCH   8  14
ATOM     14  N   UNL A   1      45.990 -19.698 -38.558  0.00  0.00    -0.314 N 
ATOM     15  H   UNL A   1      46.971 -19.763 -38.528  0.00  0.00    +0.000 HD
BRANCH  14  21
ATOM     16  C   UNL A   1      45.083 -22.144 -42.828  0.00  0.00    -0.039 C 
ATOM     17  C   UNL A   1      45.009 -20.918 -41.957  0.00  0.00    -0.046 A 
ATOM     18  C   UNL A   1      44.452 -19.746 -42.491  0.00  0.00    -0.058 A 
ATOM     19  C   UNL A   1      44.387 -18.581 -41.735  0.00  0.00    -0.060 A 
ATOM     20  C   UNL A   1      44.871 -18.575 -40.429  0.00  0.00    -0.040 A 
ATOM     21  C   UNL A   1      45.386 -19.743 -39.846  0.00  0.00    +0.035 A 
ATOM     22  C   UNL A   1      45.470 -20.925 -40.619  0.00  0.00    -0.026 A 
ATOM     23  C   UNL A   1      46.095 -22.163 -40.025  0.00  0.00    -0.038 C 
ENDBRANCH  14  21
ENDBRANCH   8  14
ENDBRANCH   4  13
ENDBRANCH   3   6
ENDBRANCH   2   3
ENDBRANCH   1   2
BRANCH   1  24
ATOM     24  C   UNL A   1      43.254 -16.306 -37.187  0.00  0.00    -0.053 C 
BRANCH  24  25
ATOM     25  C   UNL A   1      42.171 -15.393 -36.612  0.00  0.00    -0.053 C 
BRANCH  25  26
ATOM     26  C   UNL A   1      42.558 -14.849 -35.234  0.00  0.00    -0.053 C 
BRANCH  26  27
ATOM     27  C   UNL A   1      41.467 -15.152 -34.204  0.00  0.00    -0.053 C 
BRANCH  27  28
ATOM     28  C   UNL A   1      40.220 -15.805 -34.811  0.00  0.00    -0.052 C 
BRANCH  28  29
ATOM     29  C   UNL A   1      39.878 -17.186 -34.241  0.00  0.00    -0.037 C 
BRANCH  29  30
ATOM     30  C   UNL A   1      40.466 -18.350 -35.036  0.00  0.00    +0.009 C 
BRANCH  30  31
ATOM     31  N   UNL A   1      39.502 -18.917 -35.995  0.00  0.00    -0.343 N 
ATOM     32  H   UNL A   1      38.784 -18.381 -36.404  0.00  0.00    +0.000 HD
BRANCH  31  33
ATOM     33  C   UNL A   1      39.686 -20.296 -36.287  0.00  0.00    +0.041 A 
ATOM     34  C   UNL A   1      39.212 -21.262 -35.373  0.00  0.00    -0.005 A 
ATOM     35  C   UNL A   1      39.474 -22.605 -35.651  0.00  0.00    +0.047 A 
ATOM     36  N   UNL A   1      40.180 -23.015 -36.731  0.00  0.00    -0.251 NA
ATOM     37  C   UNL A   1      40.614 -22.103 -37.607  0.00  0.00    +0.073 A 
ATOM     38  C   UNL A   1      41.310 -22.563 -38.717  0.00  0.00    -0.036 A 
ATOM     39  C   UNL A   1      41.803 -21.699 -39.695  0.00  0.00    -0.060 A 
ATOM     40  C   UNL A   1      41.595 -20.336 -39.566  0.00  0.00    -0.061 A 
ATOM     41  C   UNL A   1      40.899 -19.851 -38.458  0.00  0.00    -0.051 A 
ATOM     42  C   UNL A   1      40.398 -20.719 -37.450  0.00  0.00    +0.021 A 
ATOM     43  C   UNL A   1      39.028 -23.710 -34.728  0.00  0.00    -0.010 C 
ATOM     44  C   UNL A   1      37.857 -23.317 -33.838  0.00  0.00    -0.047 C 
ATOM     45  C   UNL A   1      38.145 -21.981 -33.170  0.00  0.00    -0.049 C 
ATOM     46  C   UNL A   1      38.307 -20.883 -34.221  0.00  0.00    -0.024 C 
ENDBRANCH  31  33
ENDBRANCH  30  31
ENDBRANCH  29  30
ENDBRANCH  28  29
ENDBRANCH  27  28
ENDBRANCH  26  27
ENDBRANCH  25  26
ENDBRANCH  24  25
ENDBRANCH   1  24
TORSDOF 15
ENDMDL
MODEL 19
REMARK VINA RESULT:    -5.742      2.066      3.899
REMARK INTER + INTRA:         -16.946
REMARK INTER:                 -11.469
REMARK INTRA:                  -5.477
REMARK UNBOUND:                -6.168
REMARK  Name = cpd27.pdb
REMARK  17 active torsions:
REMARK  status: ('A' for Active; 'I' for Inactive)
REMARK    1  A    between atoms: C_1  and  C_2
REMARK    2  A    between atoms: C_6  and  N_7
REMARK    3  A    between atoms: N_7  and  C_8
REMARK    4  A    between atoms: C_13  and  C_14
REMARK    5  A    between atoms: N_16  and  C_17
REMARK    6  A    between atoms: C_17  and  C_18
REMARK    7  A    between atoms: C_18  and  C_19
REMARK    8  A    between atoms: C_19  and  C_20
REMARK    9  A    between atoms: C_20  and  C_21
REMARK   10  A    between atoms: C_21  and  C_22
REMARK   11  A    between atoms: C_22  and  C_23
REMARK   12  A    between atoms: C_23  and  C_24
REMARK   13  A    between atoms: C_24  and  C_25
REMARK   14  A    between atoms: C_25  and  C_26
REMARK   15  A    between atoms: C_26  and  N_27
REMARK   16  A    between atoms: N_27  and  C_28
REMARK   17  A    between atoms: C_42  and  C_43
REMARK                            x       y       z     vdW  Elec       q    Type
REMARK                         _______ _______ _______ _____ _____    ______ ____
ROOT
ATOM      1  C   UNL A   1      40.961 -17.320 -37.498  0.00  0.00    -0.052 C 
ENDROOT
BRANCH   1   2
ATOM      2  C   UNL A   1      42.292 -17.513 -38.233  0.00  0.00    -0.037 C 
BRANCH   2   3
ATOM      3  C   UNL A   1      43.382 -16.564 -37.735  0.00  0.00    +0.012 C 
BRANCH   3   6
ATOM      4  C   UNL A   1      45.625 -17.330 -36.881  0.00  0.00    +0.246 C 
ATOM      5  O   UNL A   1      46.188 -18.303 -36.379  0.00  0.00    -0.270 OA
ATOM      6  N   UNL A   1      44.259 -17.205 -36.765  0.00  0.00    -0.311 N 
ATOM      7  H   UNL A   1      43.839 -17.580 -35.957  0.00  0.00    +0.000 HD
BRANCH   4  13
ATOM      8  C   UNL A   1      47.143 -16.712 -38.773  0.00  0.00    +0.044 A 
ATOM      9  C   UNL A   1      47.838 -15.713 -39.474  0.00  0.00    -0.040 A 
ATOM     10  C   UNL A   1      47.908 -14.403 -38.990  0.00  0.00    -0.060 A 
ATOM     11  C   UNL A   1      47.265 -14.061 -37.805  0.00  0.00    -0.061 A 
ATOM     12  C   UNL A   1      46.522 -15.021 -37.119  0.00  0.00    -0.048 A 
ATOM     13  C   UNL A   1      46.421 -16.326 -37.624  0.00  0.00    +0.058 A 
BRANCH   8  14
ATOM     14  N   UNL A   1      47.051 -18.034 -39.298  0.00  0.00    -0.314 N 
ATOM     15  H   UNL A   1      47.731 -18.677 -38.995  0.00  0.00    +0.000 HD
BRANCH  14  21
ATOM     16  C   UNL A   1      45.349 -21.677 -42.275  0.00  0.00    -0.039 C 
ATOM     17  C   UNL A   1      45.291 -20.279 -41.720  0.00  0.00    -0.046 A 
ATOM     18  C   UNL A   1      44.333 -19.391 -42.233  0.00  0.00    -0.058 A 
ATOM     19  C   UNL A   1      44.260 -18.080 -41.772  0.00  0.00    -0.060 A 
ATOM     20  C   UNL A   1      45.140 -17.643 -40.786  0.00  0.00    -0.040 A 
ATOM     21  C   UNL A   1      46.076 -18.519 -40.215  0.00  0.00    +0.035 A 
ATOM     22  C   UNL A   1      46.164 -19.847 -40.693  0.00  0.00    -0.026 A 
ATOM     23  C   UNL A   1      47.220 -20.773 -40.140  0.00  0.00    -0.038 C 
ENDBRANCH  14  21
ENDBRANCH   8  14
ENDBRANCH   4  13
ENDBRANCH   3   6
ENDBRANCH   2   3
ENDBRANCH   1   2
BRANCH   1  24
ATOM     24  C   UNL A   1      40.829 -15.902 -36.938  0.00  0.00    -0.053 C 
BRANCH  24  25
ATOM     25  C   UNL A   1      40.470 -15.932 -35.452  0.00  0.00    -0.053 C 
BRANCH  25  26
ATOM     26  C   UNL A   1      40.593 -17.340 -34.865  0.00  0.00    -0.053 C 
BRANCH  26  27
ATOM     27  C   UNL A   1      41.196 -17.293 -33.459  0.00  0.00    -0.053 C 
BRANCH  27  28
ATOM     28  C   UNL A   1      42.728 -17.263 -33.453  0.00  0.00    -0.052 C 
BRANCH  28  29
ATOM     29  C   UNL A   1      43.391 -18.510 -32.858  0.00  0.00    -0.037 C 
BRANCH  29  30
ATOM     30  C   UNL A   1      43.995 -19.450 -33.899  0.00  0.00    +0.009 C 
BRANCH  30  31
ATOM     31  N   UNL A   1      43.322 -20.760 -33.929  0.00  0.00    -0.343 N 
ATOM     32  H   UNL A   1      43.624 -21.523 -33.383  0.00  0.00    +0.000 HD
BRANCH  31  33
ATOM     33  C   UNL A   1      42.205 -20.842 -34.803  0.00  0.00    +0.041 A 
ATOM     34  C   UNL A   1      40.908 -20.951 -34.256  0.00  0.00    -0.005 A 
ATOM     35  C   UNL A   1      39.838 -21.105 -35.140  0.00  0.00    +0.047 A 
ATOM     36  N   UNL A   1      39.992 -21.182 -36.483  0.00  0.00    -0.251 NA
ATOM     37  C   UNL A   1      41.217 -21.060 -37.004  0.00  0.00    +0.073 A 
ATOM     38  C   UNL A   1      41.332 -21.116 -38.388  0.00  0.00    -0.036 A 
ATOM     39  C   UNL A   1      42.561 -20.994 -39.036  0.00  0.00    -0.060 A 
ATOM     40  C   UNL A   1      43.710 -20.810 -38.286  0.00  0.00    -0.061 A 
ATOM     41  C   UNL A   1      43.619 -20.752 -36.895  0.00  0.00    -0.051 A 
ATOM     42  C   UNL A   1      42.375 -20.882 -36.220  0.00  0.00    +0.021 A 
ATOM     43  C   UNL A   1      38.419 -21.252 -34.654  0.00  0.00    -0.010 C 
ATOM     44  C   UNL A   1      38.197 -20.680 -33.261  0.00  0.00    -0.047 C 
ATOM     45  C   UNL A   1      39.270 -21.197 -32.315  0.00  0.00    -0.049 C 
ATOM     46  C   UNL A   1      40.654 -20.743 -32.779  0.00  0.00    -0.024 C 
ENDBRANCH  31  33
ENDBRANCH  30  31
ENDBRANCH  29  30
ENDBRANCH  28  29
ENDBRANCH  27  28
ENDBRANCH  26  27
ENDBRANCH  25  26
ENDBRANCH  24  25
ENDBRANCH   1  24
TORSDOF 15
ENDMDL
MODEL 20
REMARK VINA RESULT:    -5.742      1.871      3.395
REMARK INTER + INTRA:         -16.945
REMARK INTER:                 -11.973
REMARK INTRA:                  -4.971
REMARK UNBOUND:                -6.168
REMARK  Name = cpd27.pdb
REMARK  17 active torsions:
REMARK  status: ('A' for Active; 'I' for Inactive)
REMARK    1  A    between atoms: C_1  and  C_2
REMARK    2  A    between atoms: C_6  and  N_7
REMARK    3  A    between atoms: N_7  and  C_8
REMARK    4  A    between atoms: C_13  and  C_14
REMARK    5  A    between atoms: N_16  and  C_17
REMARK    6  A    between atoms: C_17  and  C_18
REMARK    7  A    between atoms: C_18  and  C_19
REMARK    8  A    between atoms: C_19  and  C_20
REMARK    9  A    between atoms: C_20  and  C_21
REMARK   10  A    between atoms: C_21  and  C_22
REMARK   11  A    between atoms: C_22  and  C_23
REMARK   12  A    between atoms: C_23  and  C_24
REMARK   13  A    between atoms: C_24  and  C_25
REMARK   14  A    between atoms: C_25  and  C_26
REMARK   15  A    between atoms: C_26  and  N_27
REMARK   16  A    between atoms: N_27  and  C_28
REMARK   17  A    between atoms: C_42  and  C_43
REMARK                            x       y       z     vdW  Elec       q    Type
REMARK                         _______ _______ _______ _____ _____    ______ ____
ROOT
ATOM      1  C   UNL A   1      41.388 -16.100 -38.204  0.00  0.00    -0.052 C 
ENDROOT
BRANCH   1   2
ATOM      2  C   UNL A   1      42.628 -16.828 -38.731  0.00  0.00    -0.037 C 
BRANCH   2   3
ATOM      3  C   UNL A   1      43.914 -16.026 -38.527  0.00  0.00    +0.012 C 
BRANCH   3   6
ATOM      4  C   UNL A   1      46.056 -17.352 -38.535  0.00  0.00    +0.246 C 
ATOM      5  O   UNL A   1      47.192 -17.350 -39.007  0.00  0.00    -0.270 OA
ATOM      6  N   UNL A   1      45.056 -16.655 -39.175  0.00  0.00    -0.311 N 
ATOM      7  H   UNL A   1      45.118 -16.576 -40.155  0.00  0.00    +0.000 HD
BRANCH   4  13
ATOM      8  C   UNL A   1      45.062 -19.287 -37.295  0.00  0.00    +0.044 A 
ATOM      9  C   UNL A   1      44.882 -19.965 -36.079  0.00  0.00    -0.040 A 
ATOM     10  C   UNL A   1      45.308 -19.409 -34.869  0.00  0.00    -0.060 A 
ATOM     11  C   UNL A   1      45.943 -18.172 -34.854  0.00  0.00    -0.061 A 
ATOM     12  C   UNL A   1      46.184 -17.504 -36.053  0.00  0.00    -0.048 A 
ATOM     13  C   UNL A   1      45.789 -18.078 -37.272  0.00  0.00    +0.058 A 
BRANCH   8  14
ATOM     14  N   UNL A   1      44.653 -19.882 -38.524  0.00  0.00    -0.314 N 
ATOM     15  H   UNL A   1      43.723 -19.725 -38.802  0.00  0.00    +0.000 HD
BRANCH  14  21
ATOM     16  C   UNL A   1      45.235 -22.311 -42.860  0.00  0.00    -0.039 C 
ATOM     17  C   UNL A   1      45.699 -21.923 -41.481  0.00  0.00    -0.046 A 
ATOM     18  C   UNL A   1      46.888 -22.483 -40.989  0.00  0.00    -0.058 A 
ATOM     19  C   UNL A   1      47.343 -22.177 -39.711  0.00  0.00    -0.060 A 
ATOM     20  C   UNL A   1      46.618 -21.299 -38.910  0.00  0.00    -0.040 A 
ATOM     21  C   UNL A   1      45.453 -20.681 -39.389  0.00  0.00    +0.035 A 
ATOM     22  C   UNL A   1      44.979 -21.003 -40.682  0.00  0.00    -0.026 A 
ATOM     23  C   UNL A   1      43.685 -20.403 -41.175  0.00  0.00    -0.038 C 
ENDBRANCH  14  21
ENDBRANCH   8  14
ENDBRANCH   4  13
ENDBRANCH   3   6
ENDBRANCH   2   3
ENDBRANCH   1   2
BRANCH   1  24
ATOM     24  C   UNL A   1      40.651 -16.934 -37.152  0.00  0.00    -0.053 C 
BRANCH  24  25
ATOM     25  C   UNL A   1      41.639 -17.683 -36.257  0.00  0.00    -0.053 C 
BRANCH  25  26
ATOM     26  C   UNL A   1      41.030 -18.016 -34.892  0.00  0.00    -0.053 C 
BRANCH  26  27
ATOM     27  C   UNL A   1      42.085 -17.912 -33.787  0.00  0.00    -0.053 C 
BRANCH  27  28
ATOM     28  C   UNL A   1      42.105 -19.124 -32.848  0.00  0.00    -0.052 C 
BRANCH  28  29
ATOM     29  C   UNL A   1      42.204 -20.480 -33.555  0.00  0.00    -0.037 C 
BRANCH  29  30
ATOM     30  C   UNL A   1      41.265 -21.545 -32.991  0.00  0.00    +0.009 C 
BRANCH  30  31
ATOM     31  N   UNL A   1      40.538 -22.269 -34.048  0.00  0.00    -0.343 N 
ATOM     32  H   UNL A   1      40.586 -23.247 -34.149  0.00  0.00    +0.000 HD
BRANCH  31  33
ATOM     33  C   UNL A   1      39.762 -21.450 -34.912  0.00  0.00    +0.041 A 
ATOM     34  C   UNL A   1      38.554 -20.897 -34.436  0.00  0.00    -0.005 A 
ATOM     35  C   UNL A   1      37.777 -20.159 -35.332  0.00  0.00    +0.047 A 
ATOM     36  N   UNL A   1      38.115 -19.976 -36.629  0.00  0.00    -0.251 NA
ATOM     37  C   UNL A   1      39.268 -20.483 -37.078  0.00  0.00    +0.073 A 
ATOM     38  C   UNL A   1      39.595 -20.250 -38.408  0.00  0.00    -0.036 A 
ATOM     39  C   UNL A   1      40.776 -20.728 -38.977  0.00  0.00    -0.060 A 
ATOM     40  C   UNL A   1      41.659 -21.457 -38.198  0.00  0.00    -0.061 A 
ATOM     41  C   UNL A   1      41.351 -21.704 -36.860  0.00  0.00    -0.051 A 
ATOM     42  C   UNL A   1      40.149 -21.230 -36.269  0.00  0.00    +0.021 A 
ATOM     43  C   UNL A   1      36.461 -19.547 -34.926  0.00  0.00    -0.010 C 
ATOM     44  C   UNL A   1      36.336 -19.323 -33.426  0.00  0.00    -0.047 C 
ATOM     45  C   UNL A   1      36.726 -20.592 -32.682  0.00  0.00    -0.049 C 
ATOM     46  C   UNL A   1      38.183 -20.953 -32.970  0.00  0.00    -0.024 C 
ENDBRANCH  31  33
ENDBRANCH  30  31
ENDBRANCH  29  30
ENDBRANCH  28  29
ENDBRANCH  27  28
ENDBRANCH  26  27
ENDBRANCH  25  26
ENDBRANCH  24  25
ENDBRANCH   1  24
TORSDOF 15
ENDMDL
