REMARK  Name = cpd27.pdb
REMARK  17 active torsions:
REMARK  status: ('A' for Active; 'I' for Inactive)
REMARK    1  A    between atoms: C_1  and  C_2
REMARK    2  A    between atoms: C_6  and  N_7
REMARK    3  A    between atoms: N_7  and  C_8
REMARK    4  A    between atoms: C_13  and  C_14
REMARK    5  A    between atoms: N_16  and  C_17
REMARK    6  A    between atoms: C_17  and  C_18
REMARK    7  A    between atoms: C_18  and  C_19
REMARK    8  A    between atoms: C_19  and  C_20
REMARK    9  A    between atoms: C_20  and  C_21
REMARK   10  A    between atoms: C_21  and  C_22
REMARK   11  A    between atoms: C_22  and  C_23
REMARK   12  A    between atoms: C_23  and  C_24
REMARK   13  A    between atoms: C_24  and  C_25
REMARK   14  A    between atoms: C_25  and  C_26
REMARK   15  A    between atoms: C_26  and  N_27
REMARK   16  A    between atoms: N_27  and  C_28
REMARK   17  A    between atoms: C_42  and  C_43
REMARK                            x       y       z     vdW  Elec       q    Type
REMARK                         _______ _______ _______ _____ _____    ______ ____
ROOT
ATOM      1  C   UNL A   1      -5.053  -3.793  -0.159  0.00  0.00    -0.052 C 
ENDROOT
BRANCH   1   2
ATOM      2  C   UNL A   1      -4.027  -4.918   0.013  0.00  0.00    -0.037 C 
BRANCH   2   3
ATOM      3  C   UNL A   1      -2.600  -4.394   0.176  0.00  0.00    +0.012 C 
BRANCH   3   6
ATOM      4  C   UNL A   1      -0.803  -3.356  -1.252  0.00  0.00    +0.246 C 
ATOM      5  O   UNL A   1      -0.621  -2.466  -2.082  0.00  0.00    -0.270 OA
ATOM      6  N   UNL A   1      -2.069  -3.866  -1.073  0.00  0.00    -0.311 N 
ATOM      7  H   UNL A   1      -2.666  -3.875  -1.856  0.00  0.00    +0.000 HD
BRANCH   4  13
ATOM      8  C   UNL A   1       1.264  -2.925   0.094  0.00  0.00    +0.044 A 
ATOM      9  C   UNL A   1       2.295  -3.432   0.902  0.00  0.00    -0.040 A 
ATOM     10  C   UNL A   1       2.466  -4.808   1.080  0.00  0.00    -0.060 A 
ATOM     11  C   UNL A   1       1.595  -5.705   0.470  0.00  0.00    -0.061 A 
ATOM     12  C   UNL A   1       0.530  -5.226  -0.291  0.00  0.00    -0.048 A 
ATOM     13  C   UNL A   1       0.336  -3.844  -0.440  0.00  0.00    +0.058 A 
BRANCH   8  14
ATOM     14  N   UNL A   1       1.081  -1.519  -0.049  0.00  0.00    -0.314 N 
ATOM     15  H   UNL A   1       0.155  -1.203  -0.153  0.00  0.00    +0.000 HD
BRANCH  14  21
ATOM     16  C   UNL A   1       2.541   3.186   0.829  0.00  0.00    -0.039 C 
ATOM     17  C   UNL A   1       2.784   1.794   0.309  0.00  0.00    -0.046 A 
ATOM     18  C   UNL A   1       4.003   1.518  -0.329  0.00  0.00    -0.058 A 
ATOM     19  C   UNL A   1       4.262   0.255  -0.851  0.00  0.00    -0.060 A 
ATOM     20  C   UNL A   1       3.308  -0.752  -0.734  0.00  0.00    -0.040 A 
ATOM     21  C   UNL A   1       2.100  -0.525  -0.057  0.00  0.00    +0.035 A 
ATOM     22  C   UNL A   1       1.826   0.763   0.460  0.00  0.00    -0.026 A 
ATOM     23  C   UNL A   1       0.497   1.037   1.120  0.00  0.00    -0.038 C 
ENDBRANCH  14  21
ENDBRANCH   8  14
ENDBRANCH   4  13
ENDBRANCH   3   6
ENDBRANCH   2   3
ENDBRANCH   1   2
BRANCH   1  24
ATOM     24  C   UNL A   1      -6.457  -4.347  -0.415  0.00  0.00    -0.053 C 
BRANCH  24  25
ATOM     25  C   UNL A   1      -7.466  -3.214  -0.606  0.00  0.00    -0.053 C 
BRANCH  25  26
ATOM     26  C   UNL A   1      -8.847  -3.743  -1.002  0.00  0.00    -0.053 C 
BRANCH  26  27
ATOM     27  C   UNL A   1      -9.829  -2.589  -1.221  0.00  0.00    -0.053 C 
BRANCH  27  28
ATOM     28  C   UNL A   1     -11.193  -3.042  -1.753  0.00  0.00    -0.052 C 
BRANCH  28  29
ATOM     29  C   UNL A   1     -12.290  -3.156  -0.689  0.00  0.00    -0.037 C 
BRANCH  29  30
ATOM     30  C   UNL A   1     -12.097  -4.320   0.281  0.00  0.00    +0.009 C 
BRANCH  30  31
ATOM     31  N   UNL A   1     -13.171  -4.397   1.286  0.00  0.00    -0.343 N 
ATOM     32  H   UNL A   1     -13.067  -4.046   2.200  0.00  0.00    +0.000 HD
BRANCH  31  33
ATOM     33  C   UNL A   1     -14.369  -5.016   0.838  0.00  0.00    +0.041 A 
ATOM     34  C   UNL A   1     -14.428  -6.424   0.756  0.00  0.00    -0.005 A 
ATOM     35  C   UNL A   1     -15.592  -6.999   0.241  0.00  0.00    +0.047 A 
ATOM     36  N   UNL A   1     -16.643  -6.272  -0.204  0.00  0.00    -0.251 NA
ATOM     37  C   UNL A   1     -16.597  -4.939  -0.110  0.00  0.00    +0.073 A 
ATOM     38  C   UNL A   1     -17.706  -4.228  -0.551  0.00  0.00    -0.036 A 
ATOM     39  C   UNL A   1     -17.766  -2.835  -0.494  0.00  0.00    -0.060 A 
ATOM     40  C   UNL A   1     -16.691  -2.129   0.019  0.00  0.00    -0.061 A 
ATOM     41  C   UNL A   1     -15.566  -2.822   0.467  0.00  0.00    -0.051 A 
ATOM     42  C   UNL A   1     -15.488  -4.240   0.408  0.00  0.00    +0.021 A 
ATOM     43  C   UNL A   1     -15.744  -8.491   0.093  0.00  0.00    -0.010 C 
ATOM     44  C   UNL A   1     -14.831  -9.285   1.017  0.00  0.00    -0.047 C 
ATOM     45  C   UNL A   1     -13.408  -8.758   0.911  0.00  0.00    -0.049 C 
ATOM     46  C   UNL A   1     -13.346  -7.296   1.355  0.00  0.00    -0.024 C 
ENDBRANCH  31  33
ENDBRANCH  30  31
ENDBRANCH  29  30
ENDBRANCH  28  29
ENDBRANCH  27  28
ENDBRANCH  26  27
ENDBRANCH  25  26
ENDBRANCH  24  25
ENDBRANCH   1  24
TORSDOF 15
