REMARK  Name = cpd144.pdb
REMARK  8 active torsions:
REMARK  status: ('A' for Active; 'I' for Inactive)
REMARK    1  A    between atoms: C_1  and  C_2
REMARK    2  A    between atoms: C_2  and  C_4
REMARK    3  A    between atoms: C_4  and  C_5
REMARK    4  A    between atoms: N_7  and  C_8
REMARK    5  A    between atoms: C_8  and  C_9
REMARK    6  A    between atoms: C_9  and  C_10
REMARK    7  A    between atoms: C_10  and  N_11
REMARK    8  A    between atoms: N_11  and  C_12
REMARK                            x       y       z     vdW  Elec       q    Type
REMARK                         _______ _______ _______ _____ _____    ______ ____
ROOT
ATOM      1  C   UNL A   1       1.688   0.581  -0.520  0.00  0.00    +0.041 A 
ATOM      2  C   UNL A   1       0.561   1.429  -0.487  0.00  0.00    -0.005 A 
ATOM      3  C   UNL A   1       0.764   2.755  -0.093  0.00  0.00    +0.047 A 
ATOM      4  N   UNL A   1       1.980   3.260   0.226  0.00  0.00    -0.251 NA
ATOM      5  C   UNL A   1       3.052   2.459   0.175  0.00  0.00    +0.073 A 
ATOM      6  C   UNL A   1       4.291   2.994   0.501  0.00  0.00    -0.036 A 
ATOM      7  C   UNL A   1       5.460   2.230   0.469  0.00  0.00    -0.060 A 
ATOM      8  C   UNL A   1       5.395   0.895   0.097  0.00  0.00    -0.061 A 
ATOM      9  C   UNL A   1       4.161   0.338  -0.232  0.00  0.00    -0.051 A 
ATOM     10  C   UNL A   1       2.970   1.103  -0.191  0.00  0.00    +0.021 A 
ATOM     11  C   UNL A   1      -0.367   3.750  -0.036  0.00  0.00    -0.010 C 
ATOM     12  C   UNL A   1      -1.740   3.097   0.060  0.00  0.00    -0.047 C 
ATOM     13  C   UNL A   1      -1.868   2.023  -1.009  0.00  0.00    -0.049 C 
ATOM     14  C   UNL A   1      -0.830   0.923  -0.792  0.00  0.00    -0.024 C 
ENDROOT
BRANCH   1  15
ATOM     15  N   UNL A   1       1.545  -0.818  -0.766  0.00  0.00    -0.343 N 
ATOM     16  H   UNL A   1       1.541  -1.224  -1.663  0.00  0.00    +0.000 HD
BRANCH  15  17
ATOM     17  C   UNL A   1       1.404  -1.577   0.484  0.00  0.00    +0.011 C 
BRANCH  17  18
ATOM     18  C   UNL A   1       1.391  -3.070   0.163  0.00  0.00    -0.022 C 
BRANCH  18  19
ATOM     19  C   UNL A   1       1.338  -3.899   1.442  0.00  0.00    +0.013 C 
BRANCH  19  22
ATOM     20  C   UNL A   1       0.113  -5.963   0.861  0.00  0.00    +0.220 C 
ATOM     21  O   UNL A   1      -0.977  -5.399   0.865  0.00  0.00    -0.275 OA
ATOM     22  N   UNL A   1       1.295  -5.321   1.157  0.00  0.00    -0.315 N 
ATOM     23  H   UNL A   1       2.131  -5.840   1.176  0.00  0.00    +0.000 HD
BRANCH  20  24
ATOM     24  C   UNL A   1       0.256  -7.427   0.548  0.00  0.00    +0.082 C 
BRANCH  24  26
ATOM     25  C   UNL A   1      -1.776  -7.754  -1.009  0.00  0.00    -0.006 C 
ATOM     26  C   UNL A   1      -0.284  -7.789  -0.809  0.00  0.00    +0.139 C 
ATOM     27  O   UNL A   1       0.478  -8.083  -1.733  0.00  0.00    -0.297 OA
ENDBRANCH  24  26
ENDBRANCH  20  24
ENDBRANCH  19  22
ENDBRANCH  18  19
ENDBRANCH  17  18
ENDBRANCH  15  17
ENDBRANCH   1  15
TORSDOF 7
