MODEL 1
REMARK VINA RESULT:    -8.169      0.000      0.000
REMARK INTER + INTRA:         -12.335
REMARK INTER:                 -11.512
REMARK INTRA:                  -0.823
REMARK UNBOUND:                -0.823
REMARK  Name = cpd144.pdb
REMARK  8 active torsions:
REMARK  status: ('A' for Active; 'I' for Inactive)
REMARK    1  A    between atoms: C_1  and  C_2
REMARK    2  A    between atoms: C_2  and  C_4
REMARK    3  A    between atoms: C_4  and  C_5
REMARK    4  A    between atoms: N_7  and  C_8
REMARK    5  A    between atoms: C_8  and  C_9
REMARK    6  A    between atoms: C_9  and  C_10
REMARK    7  A    between atoms: C_10  and  N_11
REMARK    8  A    between atoms: N_11  and  C_12
REMARK                            x       y       z     vdW  Elec       q    Type
REMARK                         _______ _______ _______ _____ _____    ______ ____
ROOT
ATOM      1  C   UNL A   1      37.137 -35.789 -30.859  0.00  0.00    +0.041 A 
ATOM      2  C   UNL A   1      38.435 -36.046 -31.347  0.00  0.00    -0.005 A 
ATOM      3  C   UNL A   1      39.274 -36.840 -30.559  0.00  0.00    +0.047 A 
ATOM      4  N   UNL A   1      38.891 -37.387 -29.380  0.00  0.00    -0.251 NA
ATOM      5  C   UNL A   1      37.651 -37.158 -28.928  0.00  0.00    +0.073 A 
ATOM      6  C   UNL A   1      37.274 -37.729 -27.720  0.00  0.00    -0.036 A 
ATOM      7  C   UNL A   1      36.000 -37.545 -27.179  0.00  0.00    -0.060 A 
ATOM      8  C   UNL A   1      35.071 -36.774 -27.862  0.00  0.00    -0.061 A 
ATOM      9  C   UNL A   1      35.430 -36.189 -29.075  0.00  0.00    -0.051 A 
ATOM     10  C   UNL A   1      36.724 -36.362 -29.624  0.00  0.00    +0.021 A 
ATOM     11  C   UNL A   1      40.675 -37.190 -30.991  0.00  0.00    -0.010 C 
ATOM     12  C   UNL A   1      41.240 -36.235 -32.034  0.00  0.00    -0.047 C 
ATOM     13  C   UNL A   1      40.234 -36.059 -33.161  0.00  0.00    -0.049 C 
ATOM     14  C   UNL A   1      38.941 -35.437 -32.634  0.00  0.00    -0.024 C 
ENDROOT
BRANCH   1  15
ATOM     15  N   UNL A   1      36.272 -34.869 -31.527  0.00  0.00    -0.343 N 
ATOM     16  H   UNL A   1      35.657 -35.118 -32.254  0.00  0.00    +0.000 HD
BRANCH  15  17
ATOM     17  C   UNL A   1      36.415 -33.507 -30.996  0.00  0.00    +0.011 C 
BRANCH  17  18
ATOM     18  C   UNL A   1      35.070 -32.791 -31.090  0.00  0.00    -0.022 C 
BRANCH  18  19
ATOM     19  C   UNL A   1      34.432 -32.653 -29.712  0.00  0.00    +0.013 C 
BRANCH  19  22
ATOM     20  C   UNL A   1      32.056 -32.458 -29.065  0.00  0.00    +0.220 C 
ATOM     21  O   UNL A   1      32.094 -33.464 -28.364  0.00  0.00    -0.275 OA
ATOM     22  N   UNL A   1      33.138 -31.999 -29.783  0.00  0.00    -0.315 N 
ATOM     23  H   UNL A   1      33.031 -31.208 -30.359  0.00  0.00    +0.000 HD
BRANCH  20  24
ATOM     24  C   UNL A   1      30.806 -31.637 -29.222  0.00  0.00    +0.082 C 
BRANCH  24  26
ATOM     25  C   UNL A   1      30.224 -29.748 -30.881  0.00  0.00    -0.006 C 
ATOM     26  C   UNL A   1      30.574 -31.192 -30.640  0.00  0.00    +0.139 C 
ATOM     27  O   UNL A   1      30.689 -31.987 -31.577  0.00  0.00    -0.297 OA
ENDBRANCH  24  26
ENDBRANCH  20  24
ENDBRANCH  19  22
ENDBRANCH  18  19
ENDBRANCH  17  18
ENDBRANCH  15  17
ENDBRANCH   1  15
TORSDOF 7
ENDMDL
MODEL 2
REMARK VINA RESULT:    -7.753      1.906      2.753
REMARK INTER + INTRA:         -11.748
REMARK INTER:                 -10.484
REMARK INTRA:                  -1.264
REMARK UNBOUND:                -0.823
REMARK  Name = cpd144.pdb
REMARK  8 active torsions:
REMARK  status: ('A' for Active; 'I' for Inactive)
REMARK    1  A    between atoms: C_1  and  C_2
REMARK    2  A    between atoms: C_2  and  C_4
REMARK    3  A    between atoms: C_4  and  C_5
REMARK    4  A    between atoms: N_7  and  C_8
REMARK    5  A    between atoms: C_8  and  C_9
REMARK    6  A    between atoms: C_9  and  C_10
REMARK    7  A    between atoms: C_10  and  N_11
REMARK    8  A    between atoms: N_11  and  C_12
REMARK                            x       y       z     vdW  Elec       q    Type
REMARK                         _______ _______ _______ _____ _____    ______ ____
ROOT
ATOM      1  C   UNL A   1      36.998 -35.746 -30.794  0.00  0.00    +0.041 A 
ATOM      2  C   UNL A   1      38.302 -35.972 -31.282  0.00  0.00    -0.005 A 
ATOM      3  C   UNL A   1      39.147 -36.777 -30.513  0.00  0.00    +0.047 A 
ATOM      4  N   UNL A   1      38.765 -37.364 -29.353  0.00  0.00    -0.251 NA
ATOM      5  C   UNL A   1      37.520 -37.165 -28.901  0.00  0.00    +0.073 A 
ATOM      6  C   UNL A   1      37.144 -37.777 -27.713  0.00  0.00    -0.036 A 
ATOM      7  C   UNL A   1      35.864 -37.626 -27.174  0.00  0.00    -0.060 A 
ATOM      8  C   UNL A   1      34.929 -36.846 -27.839  0.00  0.00    -0.061 A 
ATOM      9  C   UNL A   1      35.287 -36.222 -29.032  0.00  0.00    -0.051 A 
ATOM     10  C   UNL A   1      36.586 -36.361 -29.579  0.00  0.00    +0.021 A 
ATOM     11  C   UNL A   1      40.555 -37.096 -30.947  0.00  0.00    -0.010 C 
ATOM     12  C   UNL A   1      41.113 -36.102 -31.958  0.00  0.00    -0.047 C 
ATOM     13  C   UNL A   1      40.111 -35.906 -33.085  0.00  0.00    -0.049 C 
ATOM     14  C   UNL A   1      38.807 -35.318 -32.547  0.00  0.00    -0.024 C 
ENDROOT
BRANCH   1  15
ATOM     15  N   UNL A   1      36.125 -34.818 -31.439  0.00  0.00    -0.343 N 
ATOM     16  H   UNL A   1      35.653 -35.000 -32.284  0.00  0.00    +0.000 HD
BRANCH  15  17
ATOM     17  C   UNL A   1      36.018 -33.561 -30.688  0.00  0.00    +0.011 C 
BRANCH  17  18
ATOM     18  C   UNL A   1      35.232 -32.548 -31.518  0.00  0.00    -0.022 C 
BRANCH  18  19
ATOM     19  C   UNL A   1      33.808 -32.404 -30.992  0.00  0.00    +0.013 C 
BRANCH  19  22
ATOM     20  C   UNL A   1      32.210 -34.246 -31.380  0.00  0.00    +0.220 C 
ATOM     21  O   UNL A   1      31.687 -33.683 -32.337  0.00  0.00    -0.275 OA
ATOM     22  N   UNL A   1      33.233 -33.690 -30.645  0.00  0.00    -0.315 N 
ATOM     23  H   UNL A   1      33.582 -34.177 -29.864  0.00  0.00    +0.000 HD
BRANCH  20  24
ATOM     24  C   UNL A   1      31.764 -35.603 -30.908  0.00  0.00    +0.082 C 
BRANCH  24  26
ATOM     25  C   UNL A   1      32.150 -38.133 -31.236  0.00  0.00    -0.006 C 
ATOM     26  C   UNL A   1      32.620 -36.718 -31.444  0.00  0.00    +0.139 C 
ATOM     27  O   UNL A   1      33.664 -36.474 -32.054  0.00  0.00    -0.297 OA
ENDBRANCH  24  26
ENDBRANCH  20  24
ENDBRANCH  19  22
ENDBRANCH  18  19
ENDBRANCH  17  18
ENDBRANCH  15  17
ENDBRANCH   1  15
TORSDOF 7
ENDMDL
MODEL 3
REMARK VINA RESULT:    -7.337      3.491      5.138
REMARK INTER + INTRA:         -11.162
REMARK INTER:                  -9.484
REMARK INTRA:                  -1.679
REMARK UNBOUND:                -0.823
REMARK  Name = cpd144.pdb
REMARK  8 active torsions:
REMARK  status: ('A' for Active; 'I' for Inactive)
REMARK    1  A    between atoms: C_1  and  C_2
REMARK    2  A    between atoms: C_2  and  C_4
REMARK    3  A    between atoms: C_4  and  C_5
REMARK    4  A    between atoms: N_7  and  C_8
REMARK    5  A    between atoms: C_8  and  C_9
REMARK    6  A    between atoms: C_9  and  C_10
REMARK    7  A    between atoms: C_10  and  N_11
REMARK    8  A    between atoms: N_11  and  C_12
REMARK                            x       y       z     vdW  Elec       q    Type
REMARK                         _______ _______ _______ _____ _____    ______ ____
ROOT
ATOM      1  C   UNL A   1      36.340 -35.999 -29.668  0.00  0.00    +0.041 A 
ATOM      2  C   UNL A   1      37.638 -36.533 -29.809  0.00  0.00    -0.005 A 
ATOM      3  C   UNL A   1      38.067 -37.448 -28.842  0.00  0.00    +0.047 A 
ATOM      4  N   UNL A   1      37.292 -37.859 -27.809  0.00  0.00    -0.251 NA
ATOM      5  C   UNL A   1      36.052 -37.366 -27.689  0.00  0.00    +0.073 A 
ATOM      6  C   UNL A   1      35.271 -37.801 -26.627  0.00  0.00    -0.036 A 
ATOM      7  C   UNL A   1      33.966 -37.342 -26.430  0.00  0.00    -0.060 A 
ATOM      8  C   UNL A   1      33.421 -36.427 -27.319  0.00  0.00    -0.061 A 
ATOM      9  C   UNL A   1      34.190 -35.976 -28.390  0.00  0.00    -0.051 A 
ATOM     10  C   UNL A   1      35.517 -36.428 -28.590  0.00  0.00    +0.021 A 
ATOM     11  C   UNL A   1      39.429 -38.090 -28.903  0.00  0.00    -0.010 C 
ATOM     12  C   UNL A   1      40.425 -37.311 -29.752  0.00  0.00    -0.047 C 
ATOM     13  C   UNL A   1      39.798 -36.981 -31.098  0.00  0.00    -0.049 C 
ATOM     14  C   UNL A   1      38.570 -36.091 -30.913  0.00  0.00    -0.024 C 
ENDROOT
BRANCH   1  15
ATOM     15  N   UNL A   1      35.882 -34.952 -30.524  0.00  0.00    -0.343 N 
ATOM     16  H   UNL A   1      35.882 -33.998 -30.279  0.00  0.00    +0.000 HD
BRANCH  15  17
ATOM     17  C   UNL A   1      35.411 -35.473 -31.814  0.00  0.00    +0.011 C 
BRANCH  17  18
ATOM     18  C   UNL A   1      33.920 -35.175 -31.959  0.00  0.00    -0.022 C 
BRANCH  18  19
ATOM     19  C   UNL A   1      33.142 -36.446 -32.283  0.00  0.00    +0.013 C 
BRANCH  19  22
ATOM     20  C   UNL A   1      33.659 -38.825 -31.870  0.00  0.00    +0.220 C 
ATOM     21  O   UNL A   1      33.445 -39.144 -33.036  0.00  0.00    -0.275 OA
ATOM     22  N   UNL A   1      33.511 -37.538 -31.402  0.00  0.00    -0.315 N 
ATOM     23  H   UNL A   1      33.659 -37.356 -30.446  0.00  0.00    +0.000 HD
BRANCH  20  24
ATOM     24  C   UNL A   1      34.087 -39.825 -30.832  0.00  0.00    +0.082 C 
BRANCH  24  26
ATOM     25  C   UNL A   1      36.138 -40.838 -29.637  0.00  0.00    -0.006 C 
ATOM     26  C   UNL A   1      35.579 -39.860 -30.636  0.00  0.00    +0.139 C 
ATOM     27  O   UNL A   1      36.318 -39.125 -31.294  0.00  0.00    -0.297 OA
ENDBRANCH  24  26
ENDBRANCH  20  24
ENDBRANCH  19  22
ENDBRANCH  18  19
ENDBRANCH  17  18
ENDBRANCH  15  17
ENDBRANCH   1  15
TORSDOF 7
ENDMDL
MODEL 4
REMARK VINA RESULT:    -7.334      3.452      7.350
REMARK INTER + INTRA:         -11.158
REMARK INTER:                 -10.323
REMARK INTRA:                  -0.835
REMARK UNBOUND:                -0.823
REMARK  Name = cpd144.pdb
REMARK  8 active torsions:
REMARK  status: ('A' for Active; 'I' for Inactive)
REMARK    1  A    between atoms: C_1  and  C_2
REMARK    2  A    between atoms: C_2  and  C_4
REMARK    3  A    between atoms: C_4  and  C_5
REMARK    4  A    between atoms: N_7  and  C_8
REMARK    5  A    between atoms: C_8  and  C_9
REMARK    6  A    between atoms: C_9  and  C_10
REMARK    7  A    between atoms: C_10  and  N_11
REMARK    8  A    between atoms: N_11  and  C_12
REMARK                            x       y       z     vdW  Elec       q    Type
REMARK                         _______ _______ _______ _____ _____    ______ ____
ROOT
ATOM      1  C   UNL A   1      37.403 -36.776 -29.264  0.00  0.00    +0.041 A 
ATOM      2  C   UNL A   1      36.318 -35.924 -29.560  0.00  0.00    -0.005 A 
ATOM      3  C   UNL A   1      36.486 -35.005 -30.601  0.00  0.00    +0.047 A 
ATOM      4  N   UNL A   1      37.616 -34.918 -31.343  0.00  0.00    -0.251 NA
ATOM      5  C   UNL A   1      38.638 -35.741 -31.073  0.00  0.00    +0.073 A 
ATOM      6  C   UNL A   1      39.787 -35.641 -31.846  0.00  0.00    -0.036 A 
ATOM      7  C   UNL A   1      40.896 -36.463 -31.636  0.00  0.00    -0.060 A 
ATOM      8  C   UNL A   1      40.859 -37.417 -30.629  0.00  0.00    -0.061 A 
ATOM      9  C   UNL A   1      39.716 -37.533 -29.841  0.00  0.00    -0.051 A 
ATOM     10  C   UNL A   1      38.592 -36.695 -30.040  0.00  0.00    +0.021 A 
ATOM     11  C   UNL A   1      35.387 -34.058 -31.011  0.00  0.00    -0.010 C 
ATOM     12  C   UNL A   1      34.342 -33.841 -29.924  0.00  0.00    -0.047 C 
ATOM     13  C   UNL A   1      33.878 -35.186 -29.388  0.00  0.00    -0.049 C 
ATOM     14  C   UNL A   1      35.043 -35.940 -28.748  0.00  0.00    -0.024 C 
ENDROOT
BRANCH   1  15
ATOM     15  N   UNL A   1      37.368 -37.637 -28.125  0.00  0.00    -0.343 N 
ATOM     16  H   UNL A   1      37.817 -37.441 -27.271  0.00  0.00    +0.000 HD
BRANCH  15  17
ATOM     17  C   UNL A   1      36.582 -38.850 -28.386  0.00  0.00    +0.011 C 
BRANCH  17  18
ATOM     18  C   UNL A   1      37.532 -40.034 -28.556  0.00  0.00    -0.022 C 
BRANCH  18  19
ATOM     19  C   UNL A   1      36.755 -41.342 -28.662  0.00  0.00    +0.013 C 
BRANCH  19  22
ATOM     20  C   UNL A   1      35.019 -42.092 -27.073  0.00  0.00    +0.220 C 
ATOM     21  O   UNL A   1      35.700 -43.028 -26.665  0.00  0.00    -0.275 OA
ATOM     22  N   UNL A   1      35.438 -41.231 -28.064  0.00  0.00    -0.315 N 
ATOM     23  H   UNL A   1      34.827 -40.525 -28.375  0.00  0.00    +0.000 HD
BRANCH  20  24
ATOM     24  C   UNL A   1      33.644 -41.807 -26.536  0.00  0.00    +0.082 C 
BRANCH  24  26
ATOM     25  C   UNL A   1      33.579 -40.183 -24.532  0.00  0.00    -0.006 C 
ATOM     26  C   UNL A   1      33.498 -40.402 -26.019  0.00  0.00    +0.139 C 
ATOM     27  O   UNL A   1      33.340 -39.458 -26.797  0.00  0.00    -0.297 OA
ENDBRANCH  24  26
ENDBRANCH  20  24
ENDBRANCH  19  22
ENDBRANCH  18  19
ENDBRANCH  17  18
ENDBRANCH  15  17
ENDBRANCH   1  15
TORSDOF 7
ENDMDL
MODEL 5
REMARK VINA RESULT:    -7.172      2.893      5.202
REMARK INTER + INTRA:         -10.930
REMARK INTER:                  -9.813
REMARK INTRA:                  -1.117
REMARK UNBOUND:                -0.823
REMARK  Name = cpd144.pdb
REMARK  8 active torsions:
REMARK  status: ('A' for Active; 'I' for Inactive)
REMARK    1  A    between atoms: C_1  and  C_2
REMARK    2  A    between atoms: C_2  and  C_4
REMARK    3  A    between atoms: C_4  and  C_5
REMARK    4  A    between atoms: N_7  and  C_8
REMARK    5  A    between atoms: C_8  and  C_9
REMARK    6  A    between atoms: C_9  and  C_10
REMARK    7  A    between atoms: C_10  and  N_11
REMARK    8  A    between atoms: N_11  and  C_12
REMARK                            x       y       z     vdW  Elec       q    Type
REMARK                         _______ _______ _______ _____ _____    ______ ____
ROOT
ATOM      1  C   UNL A   1      37.466 -36.662 -29.734  0.00  0.00    +0.041 A 
ATOM      2  C   UNL A   1      38.566 -36.404 -30.578  0.00  0.00    -0.005 A 
ATOM      3  C   UNL A   1      38.479 -35.300 -31.431  0.00  0.00    +0.047 A 
ATOM      4  N   UNL A   1      37.413 -34.465 -31.462  0.00  0.00    -0.251 NA
ATOM      5  C   UNL A   1      36.377 -34.700 -30.647  0.00  0.00    +0.073 A 
ATOM      6  C   UNL A   1      35.294 -33.831 -30.689  0.00  0.00    -0.036 A 
ATOM      7  C   UNL A   1      34.176 -34.000 -29.869  0.00  0.00    -0.060 A 
ATOM      8  C   UNL A   1      34.136 -35.062 -28.977  0.00  0.00    -0.061 A 
ATOM      9  C   UNL A   1      35.211 -35.947 -28.921  0.00  0.00    -0.051 A 
ATOM     10  C   UNL A   1      36.343 -35.788 -29.756  0.00  0.00    +0.021 A 
ATOM     11  C   UNL A   1      39.602 -34.924 -32.364  0.00  0.00    -0.010 C 
ATOM     12  C   UNL A   1      40.554 -36.077 -32.656  0.00  0.00    -0.047 C 
ATOM     13  C   UNL A   1      40.980 -36.729 -31.349  0.00  0.00    -0.049 C 
ATOM     14  C   UNL A   1      39.771 -37.316 -30.623  0.00  0.00    -0.024 C 
ENDROOT
BRANCH   1  15
ATOM     15  N   UNL A   1      37.412 -37.849 -28.943  0.00  0.00    -0.343 N 
ATOM     16  H   UNL A   1      37.805 -37.933 -28.044  0.00  0.00    +0.000 HD
BRANCH  15  17
ATOM     17  C   UNL A   1      36.697 -38.931 -29.635  0.00  0.00    +0.011 C 
BRANCH  17  18
ATOM     18  C   UNL A   1      36.380 -40.040 -28.635  0.00  0.00    -0.022 C 
BRANCH  18  19
ATOM     19  C   UNL A   1      34.892 -40.058 -28.300  0.00  0.00    +0.013 C 
BRANCH  19  22
ATOM     20  C   UNL A   1      34.130 -38.969 -26.219  0.00  0.00    +0.220 C 
ATOM     21  O   UNL A   1      34.061 -40.031 -25.607  0.00  0.00    -0.275 OA
ATOM     22  N   UNL A   1      34.499 -38.885 -27.543  0.00  0.00    -0.315 N 
ATOM     23  H   UNL A   1      34.495 -38.006 -27.987  0.00  0.00    +0.000 HD
BRANCH  20  24
ATOM     24  C   UNL A   1      33.796 -37.651 -25.576  0.00  0.00    +0.082 C 
BRANCH  24  26
ATOM     25  C   UNL A   1      32.127 -35.683 -25.607  0.00  0.00    -0.006 C 
ATOM     26  C   UNL A   1      32.551 -37.024 -26.144  0.00  0.00    +0.139 C 
ATOM     27  O   UNL A   1      31.913 -37.586 -27.037  0.00  0.00    -0.297 OA
ENDBRANCH  24  26
ENDBRANCH  20  24
ENDBRANCH  19  22
ENDBRANCH  18  19
ENDBRANCH  17  18
ENDBRANCH  15  17
ENDBRANCH   1  15
TORSDOF 7
ENDMDL
MODEL 6
REMARK VINA RESULT:    -7.110      3.061      4.941
REMARK INTER + INTRA:         -10.843
REMARK INTER:                  -9.305
REMARK INTRA:                  -1.538
REMARK UNBOUND:                -0.823
REMARK  Name = cpd144.pdb
REMARK  8 active torsions:
REMARK  status: ('A' for Active; 'I' for Inactive)
REMARK    1  A    between atoms: C_1  and  C_2
REMARK    2  A    between atoms: C_2  and  C_4
REMARK    3  A    between atoms: C_4  and  C_5
REMARK    4  A    between atoms: N_7  and  C_8
REMARK    5  A    between atoms: C_8  and  C_9
REMARK    6  A    between atoms: C_9  and  C_10
REMARK    7  A    between atoms: C_10  and  N_11
REMARK    8  A    between atoms: N_11  and  C_12
REMARK                            x       y       z     vdW  Elec       q    Type
REMARK                         _______ _______ _______ _____ _____    ______ ____
ROOT
ATOM      1  C   UNL A   1      37.468 -36.974 -29.090  0.00  0.00    +0.041 A 
ATOM      2  C   UNL A   1      38.655 -36.872 -29.846  0.00  0.00    -0.005 A 
ATOM      3  C   UNL A   1      38.668 -35.960 -30.905  0.00  0.00    +0.047 A 
ATOM      4  N   UNL A   1      37.618 -35.162 -31.214  0.00  0.00    -0.251 NA
ATOM      5  C   UNL A   1      36.499 -35.245 -30.484  0.00  0.00    +0.073 A 
ATOM      6  C   UNL A   1      35.434 -34.417 -30.812  0.00  0.00    -0.036 A 
ATOM      7  C   UNL A   1      34.233 -34.437 -30.099  0.00  0.00    -0.060 A 
ATOM      8  C   UNL A   1      34.089 -35.302 -29.024  0.00  0.00    -0.061 A 
ATOM      9  C   UNL A   1      35.145 -36.143 -28.680  0.00  0.00    -0.051 A 
ATOM     10  C   UNL A   1      36.361 -36.137 -29.404  0.00  0.00    +0.021 A 
ATOM     11  C   UNL A   1      39.888 -35.760 -31.768  0.00  0.00    -0.010 C 
ATOM     12  C   UNL A   1      40.857 -36.935 -31.723  0.00  0.00    -0.047 C 
ATOM     13  C   UNL A   1      41.135 -37.310 -30.276  0.00  0.00    -0.049 C 
ATOM     14  C   UNL A   1      39.850 -37.759 -29.581  0.00  0.00    -0.024 C 
ENDROOT
BRANCH   1  15
ATOM     15  N   UNL A   1      37.320 -37.983 -28.090  0.00  0.00    -0.343 N 
ATOM     16  H   UNL A   1      37.341 -37.808 -27.122  0.00  0.00    +0.000 HD
BRANCH  15  17
ATOM     17  C   UNL A   1      37.134 -39.313 -28.685  0.00  0.00    +0.011 C 
BRANCH  17  18
ATOM     18  C   UNL A   1      35.666 -39.714 -28.562  0.00  0.00    -0.022 C 
BRANCH  18  19
ATOM     19  C   UNL A   1      35.148 -40.288 -29.877  0.00  0.00    +0.013 C 
BRANCH  19  22
ATOM     20  C   UNL A   1      33.927 -38.533 -31.113  0.00  0.00    +0.220 C 
ATOM     21  O   UNL A   1      32.891 -38.711 -30.478  0.00  0.00    -0.275 OA
ATOM     22  N   UNL A   1      35.071 -39.272 -30.910  0.00  0.00    -0.315 N 
ATOM     23  H   UNL A   1      35.856 -39.107 -31.481  0.00  0.00    +0.000 HD
BRANCH  20  24
ATOM     24  C   UNL A   1      34.035 -37.494 -32.195  0.00  0.00    +0.082 C 
BRANCH  24  26
ATOM     25  C   UNL A   1      31.974 -36.037 -32.734  0.00  0.00    -0.006 C 
ATOM     26  C   UNL A   1      32.750 -37.308 -32.956  0.00  0.00    +0.139 C 
ATOM     27  O   UNL A   1      32.360 -38.165 -33.753  0.00  0.00    -0.297 OA
ENDBRANCH  24  26
ENDBRANCH  20  24
ENDBRANCH  19  22
ENDBRANCH  18  19
ENDBRANCH  17  18
ENDBRANCH  15  17
ENDBRANCH   1  15
TORSDOF 7
ENDMDL
MODEL 7
REMARK VINA RESULT:    -7.063      1.683      2.530
REMARK INTER + INTRA:         -10.777
REMARK INTER:                  -9.573
REMARK INTRA:                  -1.204
REMARK UNBOUND:                -0.823
REMARK  Name = cpd144.pdb
REMARK  8 active torsions:
REMARK  status: ('A' for Active; 'I' for Inactive)
REMARK    1  A    between atoms: C_1  and  C_2
REMARK    2  A    between atoms: C_2  and  C_4
REMARK    3  A    between atoms: C_4  and  C_5
REMARK    4  A    between atoms: N_7  and  C_8
REMARK    5  A    between atoms: C_8  and  C_9
REMARK    6  A    between atoms: C_9  and  C_10
REMARK    7  A    between atoms: C_10  and  N_11
REMARK    8  A    between atoms: N_11  and  C_12
REMARK                            x       y       z     vdW  Elec       q    Type
REMARK                         _______ _______ _______ _____ _____    ______ ____
ROOT
ATOM      1  C   UNL A   1      35.140 -35.791 -29.176  0.00  0.00    +0.041 A 
ATOM      2  C   UNL A   1      36.410 -36.311 -29.506  0.00  0.00    -0.005 A 
ATOM      3  C   UNL A   1      36.965 -37.254 -28.636  0.00  0.00    +0.047 A 
ATOM      4  N   UNL A   1      36.336 -37.704 -27.524  0.00  0.00    -0.251 NA
ATOM      5  C   UNL A   1      35.122 -37.224 -27.223  0.00  0.00    +0.073 A 
ATOM      6  C   UNL A   1      34.490 -37.699 -26.082  0.00  0.00    -0.036 A 
ATOM      7  C   UNL A   1      33.222 -37.256 -25.698  0.00  0.00    -0.060 A 
ATOM      8  C   UNL A   1      32.561 -36.315 -26.475  0.00  0.00    -0.061 A 
ATOM      9  C   UNL A   1      33.179 -35.824 -27.623  0.00  0.00    -0.051 A 
ATOM     10  C   UNL A   1      34.469 -36.260 -28.013  0.00  0.00    +0.021 A 
ATOM     11  C   UNL A   1      38.309 -37.884 -28.899  0.00  0.00    -0.010 C 
ATOM     12  C   UNL A   1      39.181 -37.070 -29.846  0.00  0.00    -0.047 C 
ATOM     13  C   UNL A   1      38.380 -36.701 -31.084  0.00  0.00    -0.049 C 
ATOM     14  C   UNL A   1      37.185 -35.825 -30.709  0.00  0.00    -0.024 C 
ENDROOT
BRANCH   1  15
ATOM     15  N   UNL A   1      34.570 -34.719 -29.928  0.00  0.00    -0.343 N 
ATOM     16  H   UNL A   1      34.727 -33.766 -29.737  0.00  0.00    +0.000 HD
BRANCH  15  17
ATOM     17  C   UNL A   1      33.720 -35.214 -31.019  0.00  0.00    +0.011 C 
BRANCH  17  18
ATOM     18  C   UNL A   1      33.590 -34.126 -32.083  0.00  0.00    -0.022 C 
BRANCH  18  19
ATOM     19  C   UNL A   1      34.267 -32.838 -31.627  0.00  0.00    +0.013 C 
BRANCH  19  22
ATOM     20  C   UNL A   1      32.728 -31.576 -30.165  0.00  0.00    +0.220 C 
ATOM     21  O   UNL A   1      32.949 -32.297 -29.196  0.00  0.00    -0.275 OA
ATOM     22  N   UNL A   1      33.303 -31.778 -31.400  0.00  0.00    -0.315 N 
ATOM     23  H   UNL A   1      33.053 -31.188 -32.147  0.00  0.00    +0.000 HD
BRANCH  20  24
ATOM     24  C   UNL A   1      31.785 -30.407 -30.095  0.00  0.00    +0.082 C 
BRANCH  24  26
ATOM     25  C   UNL A   1      29.238 -30.044 -30.298  0.00  0.00    -0.006 C 
ATOM     26  C   UNL A   1      30.504 -30.645 -30.849  0.00  0.00    +0.139 C 
ATOM     27  O   UNL A   1      30.501 -31.294 -31.897  0.00  0.00    -0.297 OA
ENDBRANCH  24  26
ENDBRANCH  20  24
ENDBRANCH  19  22
ENDBRANCH  18  19
ENDBRANCH  17  18
ENDBRANCH  15  17
ENDBRANCH   1  15
TORSDOF 7
ENDMDL
MODEL 8
REMARK VINA RESULT:    -6.935      2.934      5.824
REMARK INTER + INTRA:         -10.596
REMARK INTER:                  -8.717
REMARK INTRA:                  -1.879
REMARK UNBOUND:                -0.823
REMARK  Name = cpd144.pdb
REMARK  8 active torsions:
REMARK  status: ('A' for Active; 'I' for Inactive)
REMARK    1  A    between atoms: C_1  and  C_2
REMARK    2  A    between atoms: C_2  and  C_4
REMARK    3  A    between atoms: C_4  and  C_5
REMARK    4  A    between atoms: N_7  and  C_8
REMARK    5  A    between atoms: C_8  and  C_9
REMARK    6  A    between atoms: C_9  and  C_10
REMARK    7  A    between atoms: C_10  and  N_11
REMARK    8  A    between atoms: N_11  and  C_12
REMARK                            x       y       z     vdW  Elec       q    Type
REMARK                         _______ _______ _______ _____ _____    ______ ____
ROOT
ATOM      1  C   UNL A   1      35.108 -35.726 -28.950  0.00  0.00    +0.041 A 
ATOM      2  C   UNL A   1      34.579 -34.583 -29.585  0.00  0.00    -0.005 A 
ATOM      3  C   UNL A   1      35.348 -33.991 -30.591  0.00  0.00    +0.047 A 
ATOM      4  N   UNL A   1      36.546 -34.475 -30.996  0.00  0.00    -0.251 NA
ATOM      5  C   UNL A   1      37.038 -35.573 -30.407  0.00  0.00    +0.073 A 
ATOM      6  C   UNL A   1      38.265 -36.058 -30.837  0.00  0.00    -0.036 A 
ATOM      7  C   UNL A   1      38.848 -37.199 -30.280  0.00  0.00    -0.060 A 
ATOM      8  C   UNL A   1      38.187 -37.880 -29.268  0.00  0.00    -0.061 A 
ATOM      9  C   UNL A   1      36.956 -37.408 -28.820  0.00  0.00    -0.051 A 
ATOM     10  C   UNL A   1      36.364 -36.246 -29.372  0.00  0.00    +0.021 A 
ATOM     11  C   UNL A   1      34.872 -32.774 -31.344  0.00  0.00    -0.010 C 
ATOM     12  C   UNL A   1      33.798 -31.989 -30.603  0.00  0.00    -0.047 C 
ATOM     13  C   UNL A   1      32.704 -32.937 -30.137  0.00  0.00    -0.049 C 
ATOM     14  C   UNL A   1      33.267 -33.965 -29.157  0.00  0.00    -0.024 C 
ENDROOT
BRANCH   1  15
ATOM     15  N   UNL A   1      34.459 -36.301 -27.816  0.00  0.00    -0.343 N 
ATOM     16  H   UNL A   1      34.727 -36.137 -26.883  0.00  0.00    +0.000 HD
BRANCH  15  17
ATOM     17  C   UNL A   1      33.341 -37.168 -28.213  0.00  0.00    +0.011 C 
BRANCH  17  18
ATOM     18  C   UNL A   1      33.639 -38.600 -27.771  0.00  0.00    -0.022 C 
BRANCH  18  19
ATOM     19  C   UNL A   1      33.985 -39.476 -28.970  0.00  0.00    +0.013 C 
BRANCH  19  22
ATOM     20  C   UNL A   1      34.262 -38.810 -31.332  0.00  0.00    +0.220 C 
ATOM     21  O   UNL A   1      35.447 -39.127 -31.354  0.00  0.00    -0.275 OA
ATOM     22  N   UNL A   1      33.474 -38.917 -30.208  0.00  0.00    -0.315 N 
ATOM     23  H   UNL A   1      32.541 -38.607 -30.244  0.00  0.00    +0.000 HD
BRANCH  20  24
ATOM     24  C   UNL A   1      33.560 -38.249 -32.538  0.00  0.00    +0.082 C 
BRANCH  24  26
ATOM     25  C   UNL A   1      33.753 -35.782 -33.270  0.00  0.00    -0.006 C 
ATOM     26  C   UNL A   1      33.145 -36.814 -32.358  0.00  0.00    +0.139 C 
ATOM     27  O   UNL A   1      32.314 -36.501 -31.502  0.00  0.00    -0.297 OA
ENDBRANCH  24  26
ENDBRANCH  20  24
ENDBRANCH  19  22
ENDBRANCH  18  19
ENDBRANCH  17  18
ENDBRANCH  15  17
ENDBRANCH   1  15
TORSDOF 7
ENDMDL
MODEL 9
REMARK VINA RESULT:    -6.861      1.606      4.238
REMARK INTER + INTRA:         -10.491
REMARK INTER:                  -9.414
REMARK INTRA:                  -1.077
REMARK UNBOUND:                -0.823
REMARK  Name = cpd144.pdb
REMARK  8 active torsions:
REMARK  status: ('A' for Active; 'I' for Inactive)
REMARK    1  A    between atoms: C_1  and  C_2
REMARK    2  A    between atoms: C_2  and  C_4
REMARK    3  A    between atoms: C_4  and  C_5
REMARK    4  A    between atoms: N_7  and  C_8
REMARK    5  A    between atoms: C_8  and  C_9
REMARK    6  A    between atoms: C_9  and  C_10
REMARK    7  A    between atoms: C_10  and  N_11
REMARK    8  A    between atoms: N_11  and  C_12
REMARK                            x       y       z     vdW  Elec       q    Type
REMARK                         _______ _______ _______ _____ _____    ______ ____
ROOT
ATOM      1  C   UNL A   1      37.410 -35.913 -30.876  0.00  0.00    +0.041 A 
ATOM      2  C   UNL A   1      36.841 -36.915 -30.061  0.00  0.00    -0.005 A 
ATOM      3  C   UNL A   1      37.715 -37.813 -29.440  0.00  0.00    +0.047 A 
ATOM      4  N   UNL A   1      39.063 -37.746 -29.562  0.00  0.00    -0.251 NA
ATOM      5  C   UNL A   1      39.602 -36.782 -30.319  0.00  0.00    +0.073 A 
ATOM      6  C   UNL A   1      40.985 -36.726 -30.429  0.00  0.00    -0.036 A 
ATOM      7  C   UNL A   1      41.629 -35.750 -31.194  0.00  0.00    -0.060 A 
ATOM      8  C   UNL A   1      40.874 -34.799 -31.866  0.00  0.00    -0.061 A 
ATOM      9  C   UNL A   1      39.485 -34.839 -31.770  0.00  0.00    -0.051 A 
ATOM     10  C   UNL A   1      38.824 -35.832 -31.006  0.00  0.00    +0.021 A 
ATOM     11  C   UNL A   1      37.217 -38.913 -28.538  0.00  0.00    -0.010 C 
ATOM     12  C   UNL A   1      35.752 -39.264 -28.769  0.00  0.00    -0.047 C 
ATOM     13  C   UNL A   1      34.918 -37.993 -28.771  0.00  0.00    -0.049 C 
ATOM     14  C   UNL A   1      35.346 -37.072 -29.913  0.00  0.00    -0.024 C 
ENDROOT
BRANCH   1  15
ATOM     15  N   UNL A   1      36.585 -35.052 -31.661  0.00  0.00    -0.343 N 
ATOM     16  H   UNL A   1      36.250 -35.276 -32.559  0.00  0.00    +0.000 HD
BRANCH  15  17
ATOM     17  C   UNL A   1      36.299 -33.791 -30.965  0.00  0.00    +0.011 C 
BRANCH  17  18
ATOM     18  C   UNL A   1      34.807 -33.484 -31.080  0.00  0.00    -0.022 C 
BRANCH  18  19
ATOM     19  C   UNL A   1      34.337 -32.633 -29.905  0.00  0.00    +0.013 C 
BRANCH  19  22
ATOM     20  C   UNL A   1      32.181 -33.043 -28.771  0.00  0.00    +0.220 C 
ATOM     21  O   UNL A   1      31.652 -32.055 -29.272  0.00  0.00    -0.275 OA
ATOM     22  N   UNL A   1      33.494 -33.391 -28.999  0.00  0.00    -0.315 N 
ATOM     23  H   UNL A   1      33.870 -34.173 -28.534  0.00  0.00    +0.000 HD
BRANCH  20  24
ATOM     24  C   UNL A   1      31.441 -33.962 -27.839  0.00  0.00    +0.082 C 
BRANCH  24  26
ATOM     25  C   UNL A   1      31.440 -36.309 -28.913  0.00  0.00    -0.006 C 
ATOM     26  C   UNL A   1      31.973 -35.369 -27.863  0.00  0.00    +0.139 C 
ATOM     27  O   UNL A   1      32.835 -35.732 -27.060  0.00  0.00    -0.297 OA
ENDBRANCH  24  26
ENDBRANCH  20  24
ENDBRANCH  19  22
ENDBRANCH  18  19
ENDBRANCH  17  18
ENDBRANCH  15  17
ENDBRANCH   1  15
TORSDOF 7
ENDMDL
MODEL 10
REMARK VINA RESULT:    -6.795      1.218      3.784
REMARK INTER + INTRA:         -10.399
REMARK INTER:                  -9.731
REMARK INTRA:                  -0.668
REMARK UNBOUND:                -0.823
REMARK  Name = cpd144.pdb
REMARK  8 active torsions:
REMARK  status: ('A' for Active; 'I' for Inactive)
REMARK    1  A    between atoms: C_1  and  C_2
REMARK    2  A    between atoms: C_2  and  C_4
REMARK    3  A    between atoms: C_4  and  C_5
REMARK    4  A    between atoms: N_7  and  C_8
REMARK    5  A    between atoms: C_8  and  C_9
REMARK    6  A    between atoms: C_9  and  C_10
REMARK    7  A    between atoms: C_10  and  N_11
REMARK    8  A    between atoms: N_11  and  C_12
REMARK                            x       y       z     vdW  Elec       q    Type
REMARK                         _______ _______ _______ _____ _____    ______ ____
ROOT
ATOM      1  C   UNL A   1      37.281 -35.889 -30.881  0.00  0.00    +0.041 A 
ATOM      2  C   UNL A   1      36.764 -36.934 -30.087  0.00  0.00    -0.005 A 
ATOM      3  C   UNL A   1      37.677 -37.845 -29.547  0.00  0.00    +0.047 A 
ATOM      4  N   UNL A   1      39.017 -37.753 -29.728  0.00  0.00    -0.251 NA
ATOM      5  C   UNL A   1      39.507 -36.749 -30.466  0.00  0.00    +0.073 A 
ATOM      6  C   UNL A   1      40.883 -36.667 -30.637  0.00  0.00    -0.036 A 
ATOM      7  C   UNL A   1      41.477 -35.649 -31.387  0.00  0.00    -0.060 A 
ATOM      8  C   UNL A   1      40.680 -34.681 -31.980  0.00  0.00    -0.061 A 
ATOM      9  C   UNL A   1      39.297 -34.746 -31.822  0.00  0.00    -0.051 A 
ATOM     10  C   UNL A   1      38.686 -35.781 -31.073  0.00  0.00    +0.021 A 
ATOM     11  C   UNL A   1      37.236 -38.991 -28.673  0.00  0.00    -0.010 C 
ATOM     12  C   UNL A   1      35.767 -39.354 -28.851  0.00  0.00    -0.047 C 
ATOM     13  C   UNL A   1      34.918 -38.096 -28.758  0.00  0.00    -0.049 C 
ATOM     14  C   UNL A   1      35.279 -37.120 -29.876  0.00  0.00    -0.024 C 
ENDROOT
BRANCH   1  15
ATOM     15  N   UNL A   1      36.409 -35.007 -31.588  0.00  0.00    -0.343 N 
ATOM     16  H   UNL A   1      35.973 -35.228 -32.443  0.00  0.00    +0.000 HD
BRANCH  15  17
ATOM     17  C   UNL A   1      36.241 -33.729 -30.883  0.00  0.00    +0.011 C 
BRANCH  17  18
ATOM     18  C   UNL A   1      34.941 -33.072 -31.341  0.00  0.00    -0.022 C 
BRANCH  18  19
ATOM     19  C   UNL A   1      33.835 -33.284 -30.312  0.00  0.00    +0.013 C 
BRANCH  19  22
ATOM     20  C   UNL A   1      31.906 -31.824 -30.804  0.00  0.00    +0.220 C 
ATOM     21  O   UNL A   1      31.480 -32.568 -31.683  0.00  0.00    -0.275 OA
ATOM     22  N   UNL A   1      33.062 -32.075 -30.100  0.00  0.00    -0.315 N 
ATOM     23  H   UNL A   1      33.372 -31.418 -29.436  0.00  0.00    +0.000 HD
BRANCH  20  24
ATOM     24  C   UNL A   1      31.207 -30.546 -30.428  0.00  0.00    +0.082 C 
BRANCH  24  26
ATOM     25  C   UNL A   1      29.462 -29.591 -28.784  0.00  0.00    -0.006 C 
ATOM     26  C   UNL A   1      30.494 -30.639 -29.106  0.00  0.00    +0.139 C 
ATOM     27  O   UNL A   1      30.735 -31.560 -28.323  0.00  0.00    -0.297 OA
ENDBRANCH  24  26
ENDBRANCH  20  24
ENDBRANCH  19  22
ENDBRANCH  18  19
ENDBRANCH  17  18
ENDBRANCH  15  17
ENDBRANCH   1  15
TORSDOF 7
ENDMDL
MODEL 11
REMARK VINA RESULT:    -6.776      1.587      4.240
REMARK INTER + INTRA:         -10.371
REMARK INTER:                  -9.556
REMARK INTRA:                  -0.815
REMARK UNBOUND:                -0.823
REMARK  Name = cpd144.pdb
REMARK  8 active torsions:
REMARK  status: ('A' for Active; 'I' for Inactive)
REMARK    1  A    between atoms: C_1  and  C_2
REMARK    2  A    between atoms: C_2  and  C_4
REMARK    3  A    between atoms: C_4  and  C_5
REMARK    4  A    between atoms: N_7  and  C_8
REMARK    5  A    between atoms: C_8  and  C_9
REMARK    6  A    between atoms: C_9  and  C_10
REMARK    7  A    between atoms: C_10  and  N_11
REMARK    8  A    between atoms: N_11  and  C_12
REMARK                            x       y       z     vdW  Elec       q    Type
REMARK                         _______ _______ _______ _____ _____    ______ ____
ROOT
ATOM      1  C   UNL A   1      35.814 -35.825 -29.717  0.00  0.00    +0.041 A 
ATOM      2  C   UNL A   1      35.046 -36.222 -28.602  0.00  0.00    -0.005 A 
ATOM      3  C   UNL A   1      35.625 -37.130 -27.711  0.00  0.00    +0.047 A 
ATOM      4  N   UNL A   1      36.882 -37.616 -27.854  0.00  0.00    -0.251 NA
ATOM      5  C   UNL A   1      37.617 -37.223 -28.903  0.00  0.00    +0.073 A 
ATOM      6  C   UNL A   1      38.904 -37.728 -29.032  0.00  0.00    -0.036 A 
ATOM      7  C   UNL A   1      39.739 -37.367 -30.092  0.00  0.00    -0.060 A 
ATOM      8  C   UNL A   1      39.282 -36.473 -31.049  0.00  0.00    -0.061 A 
ATOM      9  C   UNL A   1      37.992 -35.956 -30.939  0.00  0.00    -0.051 A 
ATOM     10  C   UNL A   1      37.136 -36.326 -29.874  0.00  0.00    +0.021 A 
ATOM     11  C   UNL A   1      34.900 -37.610 -26.480  0.00  0.00    -0.010 C 
ATOM     12  C   UNL A   1      33.388 -37.441 -26.567  0.00  0.00    -0.047 C 
ATOM     13  C   UNL A   1      33.060 -36.023 -27.008  0.00  0.00    -0.049 C 
ATOM     14  C   UNL A   1      33.624 -35.750 -28.401  0.00  0.00    -0.024 C 
ENDROOT
BRANCH   1  15
ATOM     15  N   UNL A   1      35.244 -35.020 -30.750  0.00  0.00    -0.343 N 
ATOM     16  H   UNL A   1      34.740 -35.379 -31.516  0.00  0.00    +0.000 HD
BRANCH  15  17
ATOM     17  C   UNL A   1      35.503 -33.591 -30.528  0.00  0.00    +0.011 C 
BRANCH  17  18
ATOM     18  C   UNL A   1      34.594 -32.771 -31.442  0.00  0.00    -0.022 C 
BRANCH  18  19
ATOM     19  C   UNL A   1      33.134 -33.171 -31.254  0.00  0.00    +0.013 C 
BRANCH  19  22
ATOM     20  C   UNL A   1      31.302 -32.923 -29.617  0.00  0.00    +0.220 C 
ATOM     21  O   UNL A   1      30.476 -33.444 -30.361  0.00  0.00    -0.275 OA
ATOM     22  N   UNL A   1      32.617 -32.722 -29.976  0.00  0.00    -0.315 N 
ATOM     23  H   UNL A   1      33.219 -32.261 -29.349  0.00  0.00    +0.000 HD
BRANCH  20  24
ATOM     24  C   UNL A   1      30.945 -32.435 -28.241  0.00  0.00    +0.082 C 
BRANCH  24  26
ATOM     25  C   UNL A   1      28.499 -31.650 -28.002  0.00  0.00    -0.006 C 
ATOM     26  C   UNL A   1      29.943 -31.313 -28.261  0.00  0.00    +0.139 C 
ATOM     27  O   UNL A   1      30.302 -30.150 -28.462  0.00  0.00    -0.297 OA
ENDBRANCH  24  26
ENDBRANCH  20  24
ENDBRANCH  19  22
ENDBRANCH  18  19
ENDBRANCH  17  18
ENDBRANCH  15  17
ENDBRANCH   1  15
TORSDOF 7
ENDMDL
MODEL 12
REMARK VINA RESULT:    -6.735      3.316      6.830
REMARK INTER + INTRA:         -10.314
REMARK INTER:                  -8.743
REMARK INTRA:                  -1.571
REMARK UNBOUND:                -0.823
REMARK  Name = cpd144.pdb
REMARK  8 active torsions:
REMARK  status: ('A' for Active; 'I' for Inactive)
REMARK    1  A    between atoms: C_1  and  C_2
REMARK    2  A    between atoms: C_2  and  C_4
REMARK    3  A    between atoms: C_4  and  C_5
REMARK    4  A    between atoms: N_7  and  C_8
REMARK    5  A    between atoms: C_8  and  C_9
REMARK    6  A    between atoms: C_9  and  C_10
REMARK    7  A    between atoms: C_10  and  N_11
REMARK    8  A    between atoms: N_11  and  C_12
REMARK                            x       y       z     vdW  Elec       q    Type
REMARK                         _______ _______ _______ _____ _____    ______ ____
ROOT
ATOM      1  C   UNL A   1      34.921 -35.649 -28.866  0.00  0.00    +0.041 A 
ATOM      2  C   UNL A   1      34.236 -34.596 -29.508  0.00  0.00    -0.005 A 
ATOM      3  C   UNL A   1      34.841 -34.025 -30.632  0.00  0.00    +0.047 A 
ATOM      4  N   UNL A   1      36.022 -34.452 -31.141  0.00  0.00    -0.251 NA
ATOM      5  C   UNL A   1      36.661 -35.466 -30.542  0.00  0.00    +0.073 A 
ATOM      6  C   UNL A   1      37.868 -35.893 -31.078  0.00  0.00    -0.036 A 
ATOM      7  C   UNL A   1      38.596 -36.946 -30.519  0.00  0.00    -0.060 A 
ATOM      8  C   UNL A   1      38.106 -37.596 -29.396  0.00  0.00    -0.061 A 
ATOM      9  C   UNL A   1      36.898 -37.181 -28.840  0.00  0.00    -0.051 A 
ATOM     10  C   UNL A   1      36.160 -36.108 -29.395  0.00  0.00    +0.021 A 
ATOM     11  C   UNL A   1      34.191 -32.904 -31.402  0.00  0.00    -0.010 C 
ATOM     12  C   UNL A   1      33.146 -32.145 -30.595  0.00  0.00    -0.047 C 
ATOM     13  C   UNL A   1      32.189 -33.132 -29.946  0.00  0.00    -0.049 C 
ATOM     14  C   UNL A   1      32.935 -34.043 -28.973  0.00  0.00    -0.024 C 
ENDROOT
BRANCH   1  15
ATOM     15  N   UNL A   1      34.447 -36.184 -27.630  0.00  0.00    -0.343 N 
ATOM     16  H   UNL A   1      34.609 -35.772 -26.751  0.00  0.00    +0.000 HD
BRANCH  15  17
ATOM     17  C   UNL A   1      33.689 -37.427 -27.832  0.00  0.00    +0.011 C 
BRANCH  17  18
ATOM     18  C   UNL A   1      33.852 -38.316 -26.601  0.00  0.00    -0.022 C 
BRANCH  18  19
ATOM     19  C   UNL A   1      33.947 -39.785 -27.003  0.00  0.00    +0.013 C 
BRANCH  19  22
ATOM     20  C   UNL A   1      35.507 -40.417 -28.809  0.00  0.00    +0.220 C 
ATOM     21  O   UNL A   1      36.408 -40.702 -28.025  0.00  0.00    -0.275 OA
ATOM     22  N   UNL A   1      34.282 -39.935 -28.407  0.00  0.00    -0.315 N 
ATOM     23  H   UNL A   1      33.616 -39.687 -29.088  0.00  0.00    +0.000 HD
BRANCH  20  24
ATOM     24  C   UNL A   1      35.670 -40.551 -30.298  0.00  0.00    +0.082 C 
BRANCH  24  26
ATOM     25  C   UNL A   1      34.703 -38.492 -31.519  0.00  0.00    -0.006 C 
ATOM     26  C   UNL A   1      34.541 -39.920 -31.068  0.00  0.00    +0.139 C 
ATOM     27  O   UNL A   1      33.525 -40.564 -31.338  0.00  0.00    -0.297 OA
ENDBRANCH  24  26
ENDBRANCH  20  24
ENDBRANCH  19  22
ENDBRANCH  18  19
ENDBRANCH  17  18
ENDBRANCH  15  17
ENDBRANCH   1  15
TORSDOF 7
ENDMDL
MODEL 13
REMARK VINA RESULT:    -6.682     18.582     19.959
REMARK INTER + INTRA:         -10.240
REMARK INTER:                  -9.007
REMARK INTRA:                  -1.232
REMARK UNBOUND:                -0.823
REMARK  Name = cpd144.pdb
REMARK  8 active torsions:
REMARK  status: ('A' for Active; 'I' for Inactive)
REMARK    1  A    between atoms: C_1  and  C_2
REMARK    2  A    between atoms: C_2  and  C_4
REMARK    3  A    between atoms: C_4  and  C_5
REMARK    4  A    between atoms: N_7  and  C_8
REMARK    5  A    between atoms: C_8  and  C_9
REMARK    6  A    between atoms: C_9  and  C_10
REMARK    7  A    between atoms: C_10  and  N_11
REMARK    8  A    between atoms: N_11  and  C_12
REMARK                            x       y       z     vdW  Elec       q    Type
REMARK                         _______ _______ _______ _____ _____    ______ ____
ROOT
ATOM      1  C   UNL A   1      45.843 -20.973 -38.658  0.00  0.00    +0.041 A 
ATOM      2  C   UNL A   1      44.466 -20.670 -38.703  0.00  0.00    -0.005 A 
ATOM      3  C   UNL A   1      43.770 -21.007 -39.867  0.00  0.00    +0.047 A 
ATOM      4  N   UNL A   1      44.344 -21.628 -40.926  0.00  0.00    -0.251 NA
ATOM      5  C   UNL A   1      45.647 -21.933 -40.874  0.00  0.00    +0.073 A 
ATOM      6  C   UNL A   1      46.218 -22.573 -41.965  0.00  0.00    -0.036 A 
ATOM      7  C   UNL A   1      47.568 -22.931 -41.992  0.00  0.00    -0.060 A 
ATOM      8  C   UNL A   1      48.373 -22.649 -40.897  0.00  0.00    -0.061 A 
ATOM      9  C   UNL A   1      47.819 -22.006 -39.792  0.00  0.00    -0.051 A 
ATOM     10  C   UNL A   1      46.454 -21.629 -39.762  0.00  0.00    +0.021 A 
ATOM     11  C   UNL A   1      42.293 -20.741 -40.017  0.00  0.00    -0.010 C 
ATOM     12  C   UNL A   1      41.775 -19.669 -39.067  0.00  0.00    -0.047 C 
ATOM     13  C   UNL A   1      42.244 -19.973 -37.653  0.00  0.00    -0.049 C 
ATOM     14  C   UNL A   1      43.769 -19.944 -37.575  0.00  0.00    -0.024 C 
ENDROOT
BRANCH   1  15
ATOM     15  N   UNL A   1      46.655 -20.530 -37.571  0.00  0.00    -0.343 N 
ATOM     16  H   UNL A   1      46.655 -20.942 -36.676  0.00  0.00    +0.000 HD
BRANCH  15  17
ATOM     17  C   UNL A   1      47.492 -19.384 -37.951  0.00  0.00    +0.011 C 
BRANCH  17  18
ATOM     18  C   UNL A   1      46.802 -18.094 -37.509  0.00  0.00    -0.022 C 
BRANCH  18  19
ATOM     19  C   UNL A   1      47.151 -17.761 -36.062  0.00  0.00    +0.013 C 
BRANCH  19  22
ATOM     20  C   UNL A   1      45.653 -18.883 -34.451  0.00  0.00    +0.220 C 
ATOM     21  O   UNL A   1      46.296 -19.928 -34.476  0.00  0.00    -0.275 OA
ATOM     22  N   UNL A   1      45.976 -17.781 -35.211  0.00  0.00    -0.315 N 
ATOM     23  H   UNL A   1      45.396 -16.987 -35.175  0.00  0.00    +0.000 HD
BRANCH  20  24
ATOM     24  C   UNL A   1      44.429 -18.717 -33.593  0.00  0.00    +0.082 C 
BRANCH  24  26
ATOM     25  C   UNL A   1      45.085 -17.117 -31.677  0.00  0.00    -0.006 C 
ATOM     26  C   UNL A   1      44.339 -17.353 -32.964  0.00  0.00    +0.139 C 
ATOM     27  O   UNL A   1      43.691 -16.452 -33.501  0.00  0.00    -0.297 OA
ENDBRANCH  24  26
ENDBRANCH  20  24
ENDBRANCH  19  22
ENDBRANCH  18  19
ENDBRANCH  17  18
ENDBRANCH  15  17
ENDBRANCH   1  15
TORSDOF 7
ENDMDL
MODEL 14
REMARK VINA RESULT:    -6.636     19.066     20.800
REMARK INTER + INTRA:         -10.175
REMARK INTER:                  -8.460
REMARK INTRA:                  -1.715
REMARK UNBOUND:                -0.823
REMARK  Name = cpd144.pdb
REMARK  8 active torsions:
REMARK  status: ('A' for Active; 'I' for Inactive)
REMARK    1  A    between atoms: C_1  and  C_2
REMARK    2  A    between atoms: C_2  and  C_4
REMARK    3  A    between atoms: C_4  and  C_5
REMARK    4  A    between atoms: N_7  and  C_8
REMARK    5  A    between atoms: C_8  and  C_9
REMARK    6  A    between atoms: C_9  and  C_10
REMARK    7  A    between atoms: C_10  and  N_11
REMARK    8  A    between atoms: N_11  and  C_12
REMARK                            x       y       z     vdW  Elec       q    Type
REMARK                         _______ _______ _______ _____ _____    ______ ____
ROOT
ATOM      1  C   UNL A   1      45.720 -20.964 -38.918  0.00  0.00    +0.041 A 
ATOM      2  C   UNL A   1      46.138 -21.512 -40.149  0.00  0.00    -0.005 A 
ATOM      3  C   UNL A   1      45.165 -21.698 -41.135  0.00  0.00    +0.047 A 
ATOM      4  N   UNL A   1      43.864 -21.356 -40.973  0.00  0.00    -0.251 NA
ATOM      5  C   UNL A   1      43.472 -20.818 -39.811  0.00  0.00    +0.073 A 
ATOM      6  C   UNL A   1      42.136 -20.469 -39.663  0.00  0.00    -0.036 A 
ATOM      7  C   UNL A   1      41.645 -19.898 -38.487  0.00  0.00    -0.060 A 
ATOM      8  C   UNL A   1      42.509 -19.663 -37.427  0.00  0.00    -0.061 A 
ATOM      9  C   UNL A   1      43.853 -20.008 -37.554  0.00  0.00    -0.051 A 
ATOM     10  C   UNL A   1      44.357 -20.598 -38.739  0.00  0.00    +0.021 A 
ATOM     11  C   UNL A   1      45.504 -22.262 -42.491  0.00  0.00    -0.010 C 
ATOM     12  C   UNL A   1      46.808 -23.049 -42.508  0.00  0.00    -0.047 C 
ATOM     13  C   UNL A   1      47.906 -22.228 -41.848  0.00  0.00    -0.049 C 
ATOM     14  C   UNL A   1      47.564 -21.953 -40.385  0.00  0.00    -0.024 C 
ENDROOT
BRANCH   1  15
ATOM     15  N   UNL A   1      46.617 -20.880 -37.811  0.00  0.00    -0.343 N 
ATOM     16  H   UNL A   1      46.677 -21.554 -37.095  0.00  0.00    +0.000 HD
BRANCH  15  17
ATOM     17  C   UNL A   1      47.440 -19.664 -37.871  0.00  0.00    +0.011 C 
BRANCH  17  18
ATOM     18  C   UNL A   1      47.253 -18.871 -36.579  0.00  0.00    -0.022 C 
BRANCH  18  19
ATOM     19  C   UNL A   1      47.057 -17.388 -36.878  0.00  0.00    +0.013 C 
BRANCH  19  22
ATOM     20  C   UNL A   1      46.942 -16.200 -39.039  0.00  0.00    +0.220 C 
ATOM     21  O   UNL A   1      47.835 -15.415 -38.734  0.00  0.00    -0.275 OA
ATOM     22  N   UNL A   1      46.475 -17.179 -38.190  0.00  0.00    -0.315 N 
ATOM     23  H   UNL A   1      45.728 -17.750 -38.481  0.00  0.00    +0.000 HD
BRANCH  20  24
ATOM     24  C   UNL A   1      46.255 -16.150 -40.376  0.00  0.00    +0.082 C 
BRANCH  24  26
ATOM     25  C   UNL A   1      44.663 -17.863 -41.467  0.00  0.00    -0.006 C 
ATOM     26  C   UNL A   1      46.042 -17.514 -40.974  0.00  0.00    +0.139 C 
ATOM     27  O   UNL A   1      46.977 -18.311 -41.076  0.00  0.00    -0.297 OA
ENDBRANCH  24  26
ENDBRANCH  20  24
ENDBRANCH  19  22
ENDBRANCH  18  19
ENDBRANCH  17  18
ENDBRANCH  15  17
ENDBRANCH   1  15
TORSDOF 7
ENDMDL
MODEL 15
REMARK VINA RESULT:    -6.624     15.696     17.487
REMARK INTER + INTRA:         -10.157
REMARK INTER:                  -8.971
REMARK INTRA:                  -1.186
REMARK UNBOUND:                -0.823
REMARK  Name = cpd144.pdb
REMARK  8 active torsions:
REMARK  status: ('A' for Active; 'I' for Inactive)
REMARK    1  A    between atoms: C_1  and  C_2
REMARK    2  A    between atoms: C_2  and  C_4
REMARK    3  A    between atoms: C_4  and  C_5
REMARK    4  A    between atoms: N_7  and  C_8
REMARK    5  A    between atoms: C_8  and  C_9
REMARK    6  A    between atoms: C_9  and  C_10
REMARK    7  A    between atoms: C_10  and  N_11
REMARK    8  A    between atoms: N_11  and  C_12
REMARK                            x       y       z     vdW  Elec       q    Type
REMARK                         _______ _______ _______ _____ _____    ______ ____
ROOT
ATOM      1  C   UNL A   1      43.327 -20.417 -37.916  0.00  0.00    +0.041 A 
ATOM      2  C   UNL A   1      44.555 -19.725 -37.846  0.00  0.00    -0.005 A 
ATOM      3  C   UNL A   1      45.295 -19.606 -39.026  0.00  0.00    +0.047 A 
ATOM      4  N   UNL A   1      44.879 -20.093 -40.220  0.00  0.00    -0.251 NA
ATOM      5  C   UNL A   1      43.705 -20.732 -40.289  0.00  0.00    +0.073 A 
ATOM      6  C   UNL A   1      43.292 -21.222 -41.521  0.00  0.00    -0.036 A 
ATOM      7  C   UNL A   1      42.079 -21.896 -41.682  0.00  0.00    -0.060 A 
ATOM      8  C   UNL A   1      41.250 -22.085 -40.586  0.00  0.00    -0.061 A 
ATOM      9  C   UNL A   1      41.647 -21.604 -39.340  0.00  0.00    -0.051 A 
ATOM     10  C   UNL A   1      42.880 -20.929 -39.166  0.00  0.00    +0.021 A 
ATOM     11  C   UNL A   1      46.613 -18.874 -39.068  0.00  0.00    -0.010 C 
ATOM     12  C   UNL A   1      47.274 -18.746 -37.702  0.00  0.00    -0.047 C 
ATOM     13  C   UNL A   1      46.264 -18.216 -36.696  0.00  0.00    -0.049 C 
ATOM     14  C   UNL A   1      45.098 -19.190 -36.541  0.00  0.00    -0.024 C 
ENDROOT
BRANCH   1  15
ATOM     15  N   UNL A   1      42.584 -20.713 -36.734  0.00  0.00    -0.343 N 
ATOM     16  H   UNL A   1      42.719 -21.518 -36.183  0.00  0.00    +0.000 HD
BRANCH  15  17
ATOM     17  C   UNL A   1      41.594 -19.667 -36.440  0.00  0.00    +0.011 C 
BRANCH  17  18
ATOM     18  C   UNL A   1      41.364 -19.608 -34.932  0.00  0.00    -0.022 C 
BRANCH  18  19
ATOM     19  C   UNL A   1      41.486 -20.994 -34.309  0.00  0.00    +0.013 C 
BRANCH  19  22
ATOM     20  C   UNL A   1      39.971 -22.787 -35.076  0.00  0.00    +0.220 C 
ATOM     21  O   UNL A   1      40.786 -23.227 -35.881  0.00  0.00    -0.275 OA
ATOM     22  N   UNL A   1      40.210 -21.685 -34.285  0.00  0.00    -0.315 N 
ATOM     23  H   UNL A   1      39.499 -21.358 -33.689  0.00  0.00    +0.000 HD
BRANCH  20  24
ATOM     24  C   UNL A   1      38.612 -23.406 -34.894  0.00  0.00    +0.082 C 
BRANCH  24  26
ATOM     25  C   UNL A   1      37.367 -25.169 -33.479  0.00  0.00    -0.006 C 
ATOM     26  C   UNL A   1      38.489 -24.173 -33.605  0.00  0.00    +0.139 C 
ATOM     27  O   UNL A   1      39.300 -24.005 -32.691  0.00  0.00    -0.297 OA
ENDBRANCH  24  26
ENDBRANCH  20  24
ENDBRANCH  19  22
ENDBRANCH  18  19
ENDBRANCH  17  18
ENDBRANCH  15  17
ENDBRANCH   1  15
TORSDOF 7
ENDMDL
MODEL 16
REMARK VINA RESULT:    -6.611     18.412     20.435
REMARK INTER + INTRA:         -10.139
REMARK INTER:                  -8.331
REMARK INTRA:                  -1.809
REMARK UNBOUND:                -0.823
REMARK  Name = cpd144.pdb
REMARK  8 active torsions:
REMARK  status: ('A' for Active; 'I' for Inactive)
REMARK    1  A    between atoms: C_1  and  C_2
REMARK    2  A    between atoms: C_2  and  C_4
REMARK    3  A    between atoms: C_4  and  C_5
REMARK    4  A    between atoms: N_7  and  C_8
REMARK    5  A    between atoms: C_8  and  C_9
REMARK    6  A    between atoms: C_9  and  C_10
REMARK    7  A    between atoms: C_10  and  N_11
REMARK    8  A    between atoms: N_11  and  C_12
REMARK                            x       y       z     vdW  Elec       q    Type
REMARK                         _______ _______ _______ _____ _____    ______ ____
ROOT
ATOM      1  C   UNL A   1      46.642 -19.842 -39.733  0.00  0.00    +0.041 A 
ATOM      2  C   UNL A   1      45.842 -18.745 -40.116  0.00  0.00    -0.005 A 
ATOM      3  C   UNL A   1      45.145 -18.846 -41.324  0.00  0.00    +0.047 A 
ATOM      4  N   UNL A   1      45.182 -19.944 -42.116  0.00  0.00    -0.251 NA
ATOM      5  C   UNL A   1      45.926 -20.993 -41.742  0.00  0.00    +0.073 A 
ATOM      6  C   UNL A   1      45.948 -22.112 -42.563  0.00  0.00    -0.036 A 
ATOM      7  C   UNL A   1      46.693 -23.250 -42.245  0.00  0.00    -0.060 A 
ATOM      8  C   UNL A   1      47.434 -23.277 -41.073  0.00  0.00    -0.061 A 
ATOM      9  C   UNL A   1      47.427 -22.164 -40.235  0.00  0.00    -0.051 A 
ATOM     10  C   UNL A   1      46.683 -21.002 -40.556  0.00  0.00    +0.021 A 
ATOM     11  C   UNL A   1      44.251 -17.739 -41.821  0.00  0.00    -0.010 C 
ATOM     12  C   UNL A   1      44.567 -16.384 -41.200  0.00  0.00    -0.047 C 
ATOM     13  C   UNL A   1      44.652 -16.525 -39.689  0.00  0.00    -0.049 C 
ATOM     14  C   UNL A   1      45.786 -17.473 -39.301  0.00  0.00    -0.024 C 
ENDROOT
BRANCH   1  15
ATOM     15  N   UNL A   1      47.499 -19.762 -38.594  0.00  0.00    -0.343 N 
ATOM     16  H   UNL A   1      48.411 -19.393 -38.614  0.00  0.00    +0.000 HD
BRANCH  15  17
ATOM     17  C   UNL A   1      46.851 -20.298 -37.390  0.00  0.00    +0.011 C 
BRANCH  17  18
ATOM     18  C   UNL A   1      46.996 -19.289 -36.253  0.00  0.00    -0.022 C 
BRANCH  18  19
ATOM     19  C   UNL A   1      45.629 -18.815 -35.771  0.00  0.00    +0.013 C 
BRANCH  19  22
ATOM     20  C   UNL A   1      43.650 -20.282 -35.942  0.00  0.00    +0.220 C 
ATOM     21  O   UNL A   1      43.718 -20.625 -34.766  0.00  0.00    -0.275 OA
ATOM     22  N   UNL A   1      44.553 -19.424 -36.530  0.00  0.00    -0.315 N 
ATOM     23  H   UNL A   1      44.466 -19.220 -37.489  0.00  0.00    +0.000 HD
BRANCH  20  24
ATOM     24  C   UNL A   1      42.574 -20.787 -36.863  0.00  0.00    +0.082 C 
BRANCH  24  26
ATOM     25  C   UNL A   1      43.158 -21.366 -39.310  0.00  0.00    -0.006 C 
ATOM     26  C   UNL A   1      42.764 -20.335 -38.286  0.00  0.00    +0.139 C 
ATOM     27  O   UNL A   1      42.579 -19.158 -38.603  0.00  0.00    -0.297 OA
ENDBRANCH  24  26
ENDBRANCH  20  24
ENDBRANCH  19  22
ENDBRANCH  18  19
ENDBRANCH  17  18
ENDBRANCH  15  17
ENDBRANCH   1  15
TORSDOF 7
ENDMDL
MODEL 17
REMARK VINA RESULT:    -6.358     16.330     18.046
REMARK INTER + INTRA:          -9.783
REMARK INTER:                  -8.804
REMARK INTRA:                  -0.978
REMARK UNBOUND:                -0.823
REMARK  Name = cpd144.pdb
REMARK  8 active torsions:
REMARK  status: ('A' for Active; 'I' for Inactive)
REMARK    1  A    between atoms: C_1  and  C_2
REMARK    2  A    between atoms: C_2  and  C_4
REMARK    3  A    between atoms: C_4  and  C_5
REMARK    4  A    between atoms: N_7  and  C_8
REMARK    5  A    between atoms: C_8  and  C_9
REMARK    6  A    between atoms: C_9  and  C_10
REMARK    7  A    between atoms: C_10  and  N_11
REMARK    8  A    between atoms: N_11  and  C_12
REMARK                            x       y       z     vdW  Elec       q    Type
REMARK                         _______ _______ _______ _____ _____    ______ ____
ROOT
ATOM      1  C   UNL A   1      44.007 -20.555 -38.581  0.00  0.00    +0.041 A 
ATOM      2  C   UNL A   1      44.320 -20.583 -39.957  0.00  0.00    -0.005 A 
ATOM      3  C   UNL A   1      45.536 -20.018 -40.353  0.00  0.00    +0.047 A 
ATOM      4  N   UNL A   1      46.425 -19.479 -39.484  0.00  0.00    -0.251 NA
ATOM      5  C   UNL A   1      46.136 -19.471 -38.177  0.00  0.00    +0.073 A 
ATOM      6  C   UNL A   1      47.061 -18.918 -37.301  0.00  0.00    -0.036 A 
ATOM      7  C   UNL A   1      46.841 -18.874 -35.922  0.00  0.00    -0.060 A 
ATOM      8  C   UNL A   1      45.668 -19.399 -35.399  0.00  0.00    -0.061 A 
ATOM      9  C   UNL A   1      44.726 -19.956 -36.261  0.00  0.00    -0.051 A 
ATOM     10  C   UNL A   1      44.937 -19.995 -37.661  0.00  0.00    +0.021 A 
ATOM     11  C   UNL A   1      45.975 -20.006 -41.795  0.00  0.00    -0.010 C 
ATOM     12  C   UNL A   1      44.824 -20.176 -42.777  0.00  0.00    -0.047 C 
ATOM     13  C   UNL A   1      43.973 -21.366 -42.363  0.00  0.00    -0.049 C 
ATOM     14  C   UNL A   1      43.358 -21.133 -40.984  0.00  0.00    -0.024 C 
ENDROOT
BRANCH   1  15
ATOM     15  N   UNL A   1      42.726 -20.974 -38.112  0.00  0.00    -0.343 N 
ATOM     16  H   UNL A   1      42.526 -21.882 -37.788  0.00  0.00    +0.000 HD
BRANCH  15  17
ATOM     17  C   UNL A   1      41.742 -19.885 -38.174  0.00  0.00    +0.011 C 
BRANCH  17  18
ATOM     18  C   UNL A   1      40.475 -20.394 -38.856  0.00  0.00    -0.022 C 
BRANCH  18  19
ATOM     19  C   UNL A   1      40.357 -21.908 -38.721  0.00  0.00    +0.013 C 
BRANCH  19  22
ATOM     20  C   UNL A   1      39.822 -22.854 -36.504  0.00  0.00    +0.220 C 
ATOM     21  O   UNL A   1      40.993 -23.132 -36.263  0.00  0.00    -0.275 OA
ATOM     22  N   UNL A   1      39.410 -22.281 -37.686  0.00  0.00    -0.315 N 
ATOM     23  H   UNL A   1      38.451 -22.121 -37.833  0.00  0.00    +0.000 HD
BRANCH  20  24
ATOM     24  C   UNL A   1      38.715 -23.137 -35.525  0.00  0.00    +0.082 C 
BRANCH  24  26
ATOM     25  C   UNL A   1      39.303 -21.629 -33.515  0.00  0.00    -0.006 C 
ATOM     26  C   UNL A   1      39.157 -23.012 -34.092  0.00  0.00    +0.139 C 
ATOM     27  O   UNL A   1      39.370 -24.016 -33.409  0.00  0.00    -0.297 OA
ENDBRANCH  24  26
ENDBRANCH  20  24
ENDBRANCH  19  22
ENDBRANCH  18  19
ENDBRANCH  17  18
ENDBRANCH  15  17
ENDBRANCH   1  15
TORSDOF 7
ENDMDL
MODEL 18
REMARK VINA RESULT:    -6.269     16.330     18.693
REMARK INTER + INTRA:          -9.658
REMARK INTER:                  -8.451
REMARK INTRA:                  -1.206
REMARK UNBOUND:                -0.823
REMARK  Name = cpd144.pdb
REMARK  8 active torsions:
REMARK  status: ('A' for Active; 'I' for Inactive)
REMARK    1  A    between atoms: C_1  and  C_2
REMARK    2  A    between atoms: C_2  and  C_4
REMARK    3  A    between atoms: C_4  and  C_5
REMARK    4  A    between atoms: N_7  and  C_8
REMARK    5  A    between atoms: C_8  and  C_9
REMARK    6  A    between atoms: C_9  and  C_10
REMARK    7  A    between atoms: C_10  and  N_11
REMARK    8  A    between atoms: N_11  and  C_12
REMARK                            x       y       z     vdW  Elec       q    Type
REMARK                         _______ _______ _______ _____ _____    ______ ____
ROOT
ATOM      1  C   UNL A   1      42.427 -20.677 -36.390  0.00  0.00    +0.041 A 
ATOM      2  C   UNL A   1      41.753 -21.222 -35.277  0.00  0.00    -0.005 A 
ATOM      3  C   UNL A   1      40.751 -22.165 -35.529  0.00  0.00    +0.047 A 
ATOM      4  N   UNL A   1      40.425 -22.591 -36.773  0.00  0.00    -0.251 NA
ATOM      5  C   UNL A   1      41.079 -22.087 -37.827  0.00  0.00    +0.073 A 
ATOM      6  C   UNL A   1      40.734 -22.538 -39.094  0.00  0.00    -0.036 A 
ATOM      7  C   UNL A   1      41.370 -22.069 -40.247  0.00  0.00    -0.060 A 
ATOM      8  C   UNL A   1      42.382 -21.127 -40.134  0.00  0.00    -0.061 A 
ATOM      9  C   UNL A   1      42.741 -20.659 -38.872  0.00  0.00    -0.051 A 
ATOM     10  C   UNL A   1      42.094 -21.121 -37.700  0.00  0.00    +0.021 A 
ATOM     11  C   UNL A   1      39.978 -22.821 -34.414  0.00  0.00    -0.010 C 
ATOM     12  C   UNL A   1      40.014 -22.033 -33.111  0.00  0.00    -0.047 C 
ATOM     13  C   UNL A   1      41.452 -21.664 -32.780  0.00  0.00    -0.049 C 
ATOM     14  C   UNL A   1      42.039 -20.764 -33.866  0.00  0.00    -0.024 C 
ENDROOT
BRANCH   1  15
ATOM     15  N   UNL A   1      43.356 -19.605 -36.231  0.00  0.00    -0.343 N 
ATOM     16  H   UNL A   1      43.120 -18.652 -36.313  0.00  0.00    +0.000 HD
BRANCH  15  17
ATOM     17  C   UNL A   1      44.707 -20.097 -35.931  0.00  0.00    +0.011 C 
BRANCH  17  18
ATOM     18  C   UNL A   1      45.687 -19.520 -36.950  0.00  0.00    -0.022 C 
BRANCH  18  19
ATOM     19  C   UNL A   1      46.308 -20.629 -37.793  0.00  0.00    +0.013 C 
BRANCH  19  22
ATOM     20  C   UNL A   1      46.995 -21.070 -40.123  0.00  0.00    +0.220 C 
ATOM     21  O   UNL A   1      47.543 -22.130 -39.834  0.00  0.00    -0.275 OA
ATOM     22  N   UNL A   1      46.390 -20.255 -39.193  0.00  0.00    -0.315 N 
ATOM     23  H   UNL A   1      46.004 -19.398 -39.484  0.00  0.00    +0.000 HD
BRANCH  20  24
ATOM     24  C   UNL A   1      46.952 -20.550 -41.534  0.00  0.00    +0.082 C 
BRANCH  24  26
ATOM     25  C   UNL A   1      44.896 -21.435 -42.819  0.00  0.00    -0.006 C 
ATOM     26  C   UNL A   1      45.550 -20.330 -42.032  0.00  0.00    +0.139 C 
ATOM     27  O   UNL A   1      44.949 -19.283 -41.781  0.00  0.00    -0.297 OA
ENDBRANCH  24  26
ENDBRANCH  20  24
ENDBRANCH  19  22
ENDBRANCH  18  19
ENDBRANCH  17  18
ENDBRANCH  15  17
ENDBRANCH   1  15
TORSDOF 7
ENDMDL
MODEL 19
REMARK VINA RESULT:    -6.188     18.335     20.283
REMARK INTER + INTRA:          -9.542
REMARK INTER:                  -7.815
REMARK INTRA:                  -1.727
REMARK UNBOUND:                -0.823
REMARK  Name = cpd144.pdb
REMARK  8 active torsions:
REMARK  status: ('A' for Active; 'I' for Inactive)
REMARK    1  A    between atoms: C_1  and  C_2
REMARK    2  A    between atoms: C_2  and  C_4
REMARK    3  A    between atoms: C_4  and  C_5
REMARK    4  A    between atoms: N_7  and  C_8
REMARK    5  A    between atoms: C_8  and  C_9
REMARK    6  A    between atoms: C_9  and  C_10
REMARK    7  A    between atoms: C_10  and  N_11
REMARK    8  A    between atoms: N_11  and  C_12
REMARK                            x       y       z     vdW  Elec       q    Type
REMARK                         _______ _______ _______ _____ _____    ______ ____
ROOT
ATOM      1  C   UNL A   1      46.868 -19.884 -39.551  0.00  0.00    +0.041 A 
ATOM      2  C   UNL A   1      47.038 -21.019 -40.372  0.00  0.00    -0.005 A 
ATOM      3  C   UNL A   1      46.210 -21.133 -41.493  0.00  0.00    +0.047 A 
ATOM      4  N   UNL A   1      45.287 -20.202 -41.836  0.00  0.00    -0.251 NA
ATOM      5  C   UNL A   1      45.141 -19.115 -41.067  0.00  0.00    +0.073 A 
ATOM      6  C   UNL A   1      44.194 -18.169 -41.434  0.00  0.00    -0.036 A 
ATOM      7  C   UNL A   1      43.981 -17.005 -40.692  0.00  0.00    -0.060 A 
ATOM      8  C   UNL A   1      44.737 -16.774 -39.551  0.00  0.00    -0.061 A 
ATOM      9  C   UNL A   1      45.691 -17.712 -39.163  0.00  0.00    -0.051 A 
ATOM     10  C   UNL A   1      45.905 -18.899 -39.905  0.00  0.00    +0.021 A 
ATOM     11  C   UNL A   1      46.315 -22.296 -42.445  0.00  0.00    -0.010 C 
ATOM     12  C   UNL A   1      46.990 -23.517 -41.833  0.00  0.00    -0.047 C 
ATOM     13  C   UNL A   1      48.291 -23.099 -41.167  0.00  0.00    -0.049 C 
ATOM     14  C   UNL A   1      48.020 -22.116 -40.029  0.00  0.00    -0.024 C 
ENDROOT
BRANCH   1  15
ATOM     15  N   UNL A   1      47.567 -19.766 -38.312  0.00  0.00    -0.343 N 
ATOM     16  H   UNL A   1      48.421 -19.291 -38.202  0.00  0.00    +0.000 HD
BRANCH  15  17
ATOM     17  C   UNL A   1      46.853 -20.443 -37.220  0.00  0.00    +0.011 C 
BRANCH  17  18
ATOM     18  C   UNL A   1      47.149 -19.722 -35.907  0.00  0.00    -0.022 C 
BRANCH  18  19
ATOM     19  C   UNL A   1      45.864 -19.193 -35.277  0.00  0.00    +0.013 C 
BRANCH  19  22
ATOM     20  C   UNL A   1      43.766 -18.674 -36.472  0.00  0.00    +0.220 C 
ATOM     21  O   UNL A   1      43.838 -17.476 -36.218  0.00  0.00    -0.275 OA
ATOM     22  N   UNL A   1      44.693 -19.594 -36.034  0.00  0.00    -0.315 N 
ATOM     23  H   UNL A   1      44.556 -20.547 -36.238  0.00  0.00    +0.000 HD
BRANCH  20  24
ATOM     24  C   UNL A   1      42.638 -19.256 -37.279  0.00  0.00    +0.082 C 
BRANCH  24  26
ATOM     25  C   UNL A   1      43.313 -21.343 -38.638  0.00  0.00    -0.006 C 
ATOM     26  C   UNL A   1      42.712 -20.755 -37.389  0.00  0.00    +0.139 C 
ATOM     27  O   UNL A   1      42.312 -21.475 -36.472  0.00  0.00    -0.297 OA
ENDBRANCH  24  26
ENDBRANCH  20  24
ENDBRANCH  19  22
ENDBRANCH  18  19
ENDBRANCH  17  18
ENDBRANCH  15  17
ENDBRANCH   1  15
TORSDOF 7
ENDMDL
MODEL 20
REMARK VINA RESULT:    -5.809     16.058     17.990
REMARK INTER + INTRA:          -9.009
REMARK INTER:                  -7.431
REMARK INTRA:                  -1.579
REMARK UNBOUND:                -0.823
REMARK  Name = cpd144.pdb
REMARK  8 active torsions:
REMARK  status: ('A' for Active; 'I' for Inactive)
REMARK    1  A    between atoms: C_1  and  C_2
REMARK    2  A    between atoms: C_2  and  C_4
REMARK    3  A    between atoms: C_4  and  C_5
REMARK    4  A    between atoms: N_7  and  C_8
REMARK    5  A    between atoms: C_8  and  C_9
REMARK    6  A    between atoms: C_9  and  C_10
REMARK    7  A    between atoms: C_10  and  N_11
REMARK    8  A    between atoms: N_11  and  C_12
REMARK                            x       y       z     vdW  Elec       q    Type
REMARK                         _______ _______ _______ _____ _____    ______ ____
ROOT
ATOM      1  C   UNL A   1      43.234 -20.480 -38.534  0.00  0.00    +0.041 A 
ATOM      2  C   UNL A   1      43.891 -20.154 -37.329  0.00  0.00    -0.005 A 
ATOM      3  C   UNL A   1      45.280 -20.001 -37.373  0.00  0.00    +0.047 A 
ATOM      4  N   UNL A   1      46.008 -20.123 -38.509  0.00  0.00    -0.251 NA
ATOM      5  C   UNL A   1      45.381 -20.413 -39.656  0.00  0.00    +0.073 A 
ATOM      6  C   UNL A   1      46.142 -20.530 -40.812  0.00  0.00    -0.036 A 
ATOM      7  C   UNL A   1      45.567 -20.826 -42.051  0.00  0.00    -0.060 A 
ATOM      8  C   UNL A   1      44.195 -21.005 -42.143  0.00  0.00    -0.061 A 
ATOM      9  C   UNL A   1      43.413 -20.894 -40.995  0.00  0.00    -0.051 A 
ATOM     10  C   UNL A   1      43.989 -20.606 -39.734  0.00  0.00    +0.021 A 
ATOM     11  C   UNL A   1      46.079 -19.639 -36.147  0.00  0.00    -0.010 C 
ATOM     12  C   UNL A   1      45.358 -19.953 -34.843  0.00  0.00    -0.047 C 
ATOM     13  C   UNL A   1      43.947 -19.388 -34.893  0.00  0.00    -0.049 C 
ATOM     14  C   UNL A   1      43.147 -20.041 -36.018  0.00  0.00    -0.024 C 
ENDROOT
BRANCH   1  15
ATOM     15  N   UNL A   1      41.843 -20.798 -38.548  0.00  0.00    -0.343 N 
ATOM     16  H   UNL A   1      41.484 -21.711 -38.463  0.00  0.00    +0.000 HD
BRANCH  15  17
ATOM     17  C   UNL A   1      41.012 -19.597 -38.704  0.00  0.00    +0.011 C 
BRANCH  17  18
ATOM     18  C   UNL A   1      39.950 -19.577 -37.607  0.00  0.00    -0.022 C 
BRANCH  18  19
ATOM     19  C   UNL A   1      39.309 -20.951 -37.449  0.00  0.00    +0.013 C 
BRANCH  19  22
ATOM     20  C   UNL A   1      40.380 -22.379 -35.742  0.00  0.00    +0.220 C 
ATOM     21  O   UNL A   1      41.148 -22.889 -36.551  0.00  0.00    -0.275 OA
ATOM     22  N   UNL A   1      39.429 -21.445 -36.090  0.00  0.00    -0.315 N 
ATOM     23  H   UNL A   1      38.816 -21.105 -35.400  0.00  0.00    +0.000 HD
BRANCH  20  24
ATOM     24  C   UNL A   1      40.393 -22.746 -34.283  0.00  0.00    +0.082 C 
BRANCH  24  26
ATOM     25  C   UNL A   1      41.233 -20.818 -32.788  0.00  0.00    -0.006 C 
ATOM     26  C   UNL A   1      40.080 -21.580 -33.385  0.00  0.00    +0.139 C 
ATOM     27  O   UNL A   1      38.912 -21.248 -33.166  0.00  0.00    -0.297 OA
ENDBRANCH  24  26
ENDBRANCH  20  24
ENDBRANCH  19  22
ENDBRANCH  18  19
ENDBRANCH  17  18
ENDBRANCH  15  17
ENDBRANCH   1  15
TORSDOF 7
ENDMDL
