@<TRIPOS>MOLECULE
*****
 25 27 0 0 0
SMALL
GASTEIGER

@<TRIPOS>ATOM
      1 C          -0.8660   -5.5000    0.0000 C.3     1  UNL1        0.0728
      2 C           0.0000   -6.0000    0.0000 C.2     1  UNL1        0.1603
      3 O           0.0000   -7.0000    0.0000 O.2     1  UNL1       -0.2955
      4 C           0.8660   -5.5000    0.0000 C.3     1  UNL1        0.1510
      5 C           0.8660   -4.5000    0.0000 C.2     1  UNL1        0.2489
      6 O           1.7321   -4.0000    0.0000 O.2     1  UNL1       -0.2729
      7 N           0.0000   -4.0000    0.0000 N.am    1  UNL1       -0.2050
      8 C           0.0000   -3.0000    0.0000 C.3     1  UNL1        0.1170
      9 C           0.8660   -2.5000    0.0000 C.3     1  UNL1        0.0467
     10 C           0.8660   -1.5000    0.0000 C.3     1  UNL1        0.1140
     11 N           1.7321   -1.0000    0.0000 N.pl3   1  UNL1       -0.2378
     12 C           1.7321    0.0000    0.0000 C.ar    1  UNL1        0.0638
     13 C           0.8660    0.5000    0.0000 C.ar    1  UNL1        0.0062
     14 C           0.8660    1.5000    0.0000 C.ar    1  UNL1        0.0562
     15 N           1.7321    2.0000    0.0000 N.ar    1  UNL1       -0.2499
     16 C           2.5981    1.5000    0.0000 C.ar    1  UNL1        0.0821
     17 C           3.4641    2.0000    0.0000 C.ar    1  UNL1        0.0191
     18 C           4.3301    1.5000    0.0000 C.ar    1  UNL1        0.0015
     19 C           4.3301    0.5000    0.0000 C.ar    1  UNL1        0.0001
     20 C           3.4641    0.0000    0.0000 C.ar    1  UNL1        0.0028
     21 C           2.5981    0.5000    0.0000 C.ar    1  UNL1        0.0322
     22 C           0.0000    2.0000    0.0000 C.3     1  UNL1        0.0455
     23 C          -0.8660    1.5000    0.0000 C.3     1  UNL1        0.0066
     24 C          -0.8660    0.5000    0.0000 C.3     1  UNL1        0.0052
     25 C           0.0000   -0.0000    0.0000 C.3     1  UNL1        0.0289
@<TRIPOS>BOND
     1     1     2    1
     2     2     3    2
     3     2     4    1
     4     4     5    1
     5     5     6    2
     6     5     7   am
     7     7     8    1
     8     8     9    1
     9     9    10    1
    10    10    11    1
    11    11    12    1
    12    12    13   ar
    13    13    14   ar
    14    14    15   ar
    15    15    16   ar
    16    16    17   ar
    17    17    18   ar
    18    18    19   ar
    19    19    20   ar
    20    20    21   ar
    21    12    21   ar
    22    16    21   ar
    23    14    22    1
    24    22    23    1
    25    23    24    1
    26    24    25    1
    27    13    25    1
