@<TRIPOS>MOLECULE
*****
 37 42 0 0 0
SMALL
GASTEIGER

@<TRIPOS>ATOM
      1 C           4.0488   -1.0597    0.0000 C.3     1  UNL1        0.2526
      2 O           3.2782   -1.6015    0.0000 O.3     1  UNL1       -0.4684
      3 C           2.4699   -1.1179    0.0000 C.ar    1  UNL1        0.1721
      4 C           2.4845   -0.1761    0.0000 C.ar    1  UNL1        0.0397
      5 C           1.6757    0.3078    0.0000 C.ar    1  UNL1        0.0001
      6 C           0.8527   -0.1503    0.0000 C.ar    1  UNL1       -0.0066
      7 C           0.8378   -1.0926    0.0000 C.ar    1  UNL1        0.0187
      8 C           1.6467   -1.5765    0.0000 C.ar    1  UNL1        0.1682
      9 O           1.6321   -2.5183    0.0000 O.3     1  UNL1       -0.4757
     10 C           0.8088   -2.9769    0.0000 C.3     1  UNL1        0.1762
     11 C           0.7940   -3.9192    0.0000 C.3     1  UNL1        0.0816
     12 C          -0.0290   -4.3773    0.0000 C.3     1  UNL1        0.1773
     13 O          -0.0441   -5.3483    0.0000 O.3     1  UNL1       -0.2182
     14 C          -0.8378   -3.8935    0.0000 C.2     1  UNL1        0.0021
     15 C          -0.8232   -2.9516    0.0000 C.2     1  UNL1       -0.0211
     16 C          -0.0000   -2.4930    0.0000 C.3     1  UNL1        0.0780
     17 C          -0.7498   -2.0601    0.0000 C.3     1  UNL1        0.0290
     18 C          -1.0459   -1.2465    0.0000 C.3     1  UNL1        0.0732
     19 N          -0.7498   -0.4329    0.0000 N.3     1  UNL1       -0.2689
     20 C          -1.5069    0.2023    0.0000 C.3     1  UNL1        0.0724
     21 C          -2.4355   -0.1357    0.0000 C.3     1  UNL1        0.0173
     22 C          -3.1925    0.4995    0.0000 C.3     1  UNL1        0.0019
     23 C          -4.1212    0.1615    0.0000 C.3     1  UNL1        0.0097
     24 C          -4.8782    0.7968    0.0000 C.3     1  UNL1        0.0872
     25 C          -5.8068    0.4588    0.0000 C.2     1  UNL1        0.2456
     26 O          -6.5639    1.0940    0.0000 O.2     1  UNL1       -0.2730
     27 N          -5.9784   -0.5144    0.0000 N.am    1  UNL1       -0.1792
     28 C          -6.9071   -0.8524    0.0000 C.ar    1  UNL1        0.0735
     29 C          -7.0787   -1.8257    0.0000 C.ar    1  UNL1        0.0181
     30 C          -8.0073   -2.1637    0.0000 C.ar    1  UNL1        0.0204
     31 C          -8.7643   -1.5284    0.0000 C.ar    1  UNL1        0.0814
     32 N          -9.7430   -1.6660    0.0000 N.ar    1  UNL1       -0.2438
     33 C         -10.1762   -0.7777    0.0000 C.ar    1  UNL1        0.0989
     34 C          -9.4653   -0.0913    0.0000 C.ar    1  UNL1        0.0222
     35 C          -8.5927   -0.5552    0.0000 C.ar    1  UNL1        0.0205
     36 C          -7.6641   -0.2172    0.0000 C.ar    1  UNL1        0.0181
     37 C           0.0000    0.0000    0.0000 C.3     1  UNL1        0.0989
@<TRIPOS>BOND
     1     1     2    1
     2     2     3    1
     3     3     4   ar
     4     4     5   ar
     5     5     6   ar
     6     6     7   ar
     7     7     8   ar
     8     3     8   ar
     9     8     9    1
    10     9    10    1
    11    10    11    1
    12    11    12    1
    13    12    13    1
    14    12    14    1
    15    14    15    2
    16    15    16    1
    17     7    16    1
    18    10    16    1
    19    16    17    1
    20    17    18    1
    21    18    19    1
    22    19    20    1
    23    20    21    1
    24    21    22    1
    25    22    23    1
    26    23    24    1
    27    24    25    1
    28    25    26    2
    29    25    27   am
    30    27    28    1
    31    28    29   ar
    32    29    30   ar
    33    30    31   ar
    34    31    32   ar
    35    32    33   ar
    36    33    34   ar
    37    34    35   ar
    38    31    35   ar
    39    35    36   ar
    40    28    36   ar
    41    19    37    1
    42     6    37    1
