REMARK  Name = cpd57.pdb
REMARK  10 active torsions:
REMARK  status: ('A' for Active; 'I' for Inactive)
REMARK    1  A    between atoms: C_1  and  O_2
REMARK    2  A    between atoms: O_2  and  C_3
REMARK    3  A    between atoms: C_12  and  O_13
REMARK    4  A    between atoms: N_19  and  C_20
REMARK    5  A    between atoms: C_20  and  C_21
REMARK    6  A    between atoms: C_21  and  C_22
REMARK    7  A    between atoms: C_22  and  C_23
REMARK    8  A    between atoms: C_23  and  C_24
REMARK    9  A    between atoms: C_24  and  C_25
REMARK   10  A    between atoms: N_27  and  C_28
REMARK                            x       y       z     vdW  Elec       q    Type
REMARK                         _______ _______ _______ _____ _____    ______ ____
ROOT
ATOM      1  C   UNL     1       4.559  -1.322  -0.312  0.00  0.00    +0.162 A 
ATOM      2  C   UNL     1       4.261  -0.053  -0.814  0.00  0.00    -0.016 A 
ATOM      3  C   UNL     1       2.923   0.349  -1.015  0.00  0.00    -0.053 A 
ATOM      4  C   UNL     1       1.852  -0.525  -0.767  0.00  0.00    -0.026 A 
ATOM      5  C   UNL     1       2.165  -1.822  -0.397  0.00  0.00    +0.016 A 
ATOM      6  C   UNL     1       3.490  -2.178  -0.103  0.00  0.00    +0.167 A 
ATOM      7  O   UNL     1       3.579  -3.406   0.542  0.00  0.00    -0.484 OA
ATOM      8  C   UNL     1       2.336  -3.994   0.142  0.00  0.00    +0.116 C 
ATOM      9  C   UNL     1       1.865  -5.203   0.936  0.00  0.00    +0.015 C 
ATOM     10  C   UNL     1       0.585  -5.757   0.269  0.00  0.00    +0.077 C 
ATOM     11  C   UNL     1      -0.170  -4.778  -0.608  0.00  0.00    -0.059 C 
ATOM     12  C   UNL     1       0.142  -3.472  -0.729  0.00  0.00    -0.071 C 
ATOM     13  C   UNL     1       1.250  -2.887   0.110  0.00  0.00    +0.056 C 
ATOM     14  C   UNL     1       0.695  -2.352   1.451  0.00  0.00    -0.023 C 
ATOM     15  C   UNL     1      -0.411  -1.277   1.293  0.00  0.00    +0.000 C 
ATOM     16  N   UNL     1      -0.054   0.027   0.696  0.00  0.00    -0.298 N 
ATOM     17  C   UNL     1       0.427  -0.039  -0.697  0.00  0.00    +0.024 C 
ATOM     18  H   UNL     1       0.747   0.348   1.239  0.00  0.00    +0.000 HD
ENDROOT
BRANCH   1  20
ATOM     19  C   UNL     1       6.890  -0.900  -0.150  0.00  0.00    +0.079 C 
ATOM     20  O   UNL     1       5.799  -1.795   0.004  0.00  0.00    -0.491 OA
ENDBRANCH   1  20
BRANCH  10  21
ATOM     21  O   UNL     1       0.939  -6.837  -0.591  0.00  0.00    -0.388 OA
ATOM     22  H   UNL     1       1.509  -6.509  -1.304  0.00  0.00    +0.000 HD
ENDBRANCH  10  21
BRANCH  16  23
ATOM     23  C   UNL     1      -1.151   1.007   0.835  0.00  0.00    -0.001 C 
BRANCH  23  24
ATOM     24  C   UNL     1      -2.496   0.584   0.225  0.00  0.00    -0.040 C 
BRANCH  24  25
ATOM     25  C   UNL     1      -3.534   1.709   0.261  0.00  0.00    -0.051 C 
BRANCH  25  26
ATOM     26  C   UNL     1      -4.916   1.155  -0.091  0.00  0.00    -0.045 C 
BRANCH  26  27
ATOM     27  C   UNL     1      -5.976   2.248  -0.218  0.00  0.00    +0.024 C 
BRANCH  27  28
ATOM     28  C   UNL     1      -7.384   1.713   0.003  0.00  0.00    +0.217 C 
ATOM     29  O   UNL     1      -8.140   2.250   0.807  0.00  0.00    -0.275 OA
ATOM     30  N   UNL     1      -7.694   0.618  -0.786  0.00  0.00    -0.289 N 
ATOM     31  H   UNL     1      -7.026   0.362  -1.462  0.00  0.00    +0.000 HD
BRANCH  30  32
ATOM     32  C   UNL     1      -8.841  -0.157  -0.728  0.00  0.00    +0.015 C 
ATOM     33  C   UNL     1      -8.942  -1.227  -1.545  0.00  0.00    -0.042 C 
ATOM     34  C   UNL     1     -10.093  -2.107  -1.516  0.00  0.00    -0.035 C 
ATOM     35  C   UNL     1     -11.095  -1.877  -0.667  0.00  0.00    +0.067 C 
ATOM     36  N   UNL     1     -12.241  -2.606  -0.501  0.00  0.00    -0.255 NA
ATOM     37  C   UNL     1     -12.878  -1.973   0.438  0.00  0.00    +0.029 C 
ATOM     38  C   UNL     1     -12.219  -0.779   0.975  0.00  0.00    -0.038 C 
ATOM     39  C   UNL     1     -11.101  -0.765   0.246  0.00  0.00    -0.015 C 
ATOM     40  C   UNL     1      -9.948   0.194   0.271  0.00  0.00    +0.013 C 
ENDBRANCH  30  32
ENDBRANCH  27  28
ENDBRANCH  26  27
ENDBRANCH  25  26
ENDBRANCH  24  25
ENDBRANCH  23  24
ENDBRANCH  16  23
TORSDOF 9
