REMARK  Name = cpd212.pdb
REMARK  4 active torsions:
REMARK  status: ('A' for Active; 'I' for Inactive)
REMARK    1  A    between atoms: C_1  and  C_2
REMARK    2  A    between atoms: C_2  and  O_3
REMARK    3  A    between atoms: N_5  and  C_6
REMARK    4  A    between atoms: N_5  and  C_7
REMARK                            x       y       z     vdW  Elec       q    Type
REMARK                         _______ _______ _______ _____ _____    ______ ____
ROOT
ATOM      1  C   UNL     1      -0.209  -2.060   0.703  0.00  0.00    -0.013 C 
ATOM      2  C   UNL     1      -0.619  -0.801  -0.057  0.00  0.00    +0.150 C 
ATOM      3  C   UNL     1      -1.640   0.022   0.786  0.00  0.00    -0.033 C 
ATOM      4  N   UNL     1      -2.107   1.319   0.035  0.00  0.00    +0.381 N 
ATOM      5  C   UNL     1      -2.354   2.427   1.046  0.00  0.00    -0.100 C 
ATOM      6  C   UNL     1      -3.407   1.040  -0.716  0.00  0.00    -0.100 C 
ATOM      7  C   UNL     1      -1.023   1.748  -0.990  0.00  0.00    -0.064 C 
ATOM      8  C   UNL     1       0.373   1.352  -0.495  0.00  0.00    +0.037 C 
ATOM      9  O   UNL     1       0.565  -0.058  -0.342  0.00  0.00    -0.353 OA
ENDROOT
BRANCH   2  10
ATOM     10  O   UNL     1      -1.214  -1.180  -1.293  0.00  0.00    -0.366 OA
ATOM     11  H   UNL     1      -2.022  -1.687  -1.120  0.00  0.00    +0.000 HD
ENDBRANCH   2  10
TORSDOF 1
