@<TRIPOS>MOLECULE
*****
 10 10 0 0 0
SMALL
GASTEIGER

@<TRIPOS>ATOM
      1 C          -0.1589   -1.2071    0.0000 C.3     1  UNL1        0.0707
      2 C          -0.8660   -0.5000    0.0000 C.3     1  UNL1        0.2697
      3 O          -1.7899   -0.8827    0.0000 O.3     1  UNL1       -0.1889
      4 C          -1.7321   -0.0000    0.0000 C.3     1  UNL1        0.1688
      5 N          -1.7321    1.0000    0.0000 N.4     1  UNL1        0.3118
      6 C          -2.2321    1.8660    0.0000 C.3     1  UNL1        0.1710
      7 C          -2.7321    1.0000    0.0000 C.3     1  UNL1        0.1710
      8 C          -0.8660    1.5000    0.0000 C.3     1  UNL1        0.1419
      9 C          -0.0000    1.0000    0.0000 C.3     1  UNL1        0.2055
     10 O          -0.0000   -0.0000    0.0000 O.3     1  UNL1       -0.3214
@<TRIPOS>UNITY_ATOM_ATTR
5 1
charge 1
@<TRIPOS>BOND
     1     1     2    1
     2     2     3    1
     3     2     4    1
     4     4     5    1
     5     5     6    1
     6     5     7    1
     7     5     8    1
     8     8     9    1
     9     9    10    1
    10     2    10    1
