MODEL 1
REMARK VINA RESULT:    -4.935      0.000      0.000
REMARK INTER + INTRA:          -5.080
REMARK INTER:                  -5.080
REMARK INTRA:                   0.000
REMARK UNBOUND:                 0.000
REMARK  Name = cpd212.pdb
REMARK  4 active torsions:
REMARK  status: ('A' for Active; 'I' for Inactive)
REMARK    1  A    between atoms: C_1  and  C_2
REMARK    2  A    between atoms: C_2  and  O_3
REMARK    3  A    between atoms: N_5  and  C_6
REMARK    4  A    between atoms: N_5  and  C_7
REMARK                            x       y       z     vdW  Elec       q    Type
REMARK                         _______ _______ _______ _____ _____    ______ ____
ROOT
ATOM      1  C   UNL     1      63.344 -27.966  -5.865  0.00  0.00    -0.013 C 
ATOM      2  C   UNL     1      64.138 -26.736  -6.299  0.00  0.00    +0.150 C 
ATOM      3  C   UNL     1      63.241 -25.800  -7.165  0.00  0.00    -0.033 C 
ATOM      4  N   UNL     1      64.022 -24.529  -7.652  0.00  0.00    +0.381 N 
ATOM      5  C   UNL     1      63.070 -23.345  -7.716  0.00  0.00    -0.100 C 
ATOM      6  C   UNL     1      64.592 -24.777  -9.047  0.00  0.00    -0.100 C 
ATOM      7  C   UNL     1      65.196 -24.233  -6.680  0.00  0.00    -0.064 C 
ATOM      8  C   UNL     1      64.842 -24.679  -5.257  0.00  0.00    +0.037 C 
ATOM      9  O   UNL     1      64.613 -26.085  -5.121  0.00  0.00    -0.353 OA
ENDROOT
BRANCH   2  10
ATOM     10  O   UNL     1      65.265 -27.157  -7.059  0.00  0.00    -0.366 OA
ATOM     11  H   UNL     1      65.326 -28.124  -7.036  0.00  0.00    +0.000 HD
ENDBRANCH   2  10
TORSDOF 1
ENDMDL
MODEL 2
REMARK VINA RESULT:    -4.830     37.765     39.146
REMARK INTER + INTRA:          -4.971
REMARK INTER:                  -4.971
REMARK INTRA:                   0.000
REMARK UNBOUND:                 0.000
REMARK  Name = cpd212.pdb
REMARK  4 active torsions:
REMARK  status: ('A' for Active; 'I' for Inactive)
REMARK    1  A    between atoms: C_1  and  C_2
REMARK    2  A    between atoms: C_2  and  O_3
REMARK    3  A    between atoms: N_5  and  C_6
REMARK    4  A    between atoms: N_5  and  C_7
REMARK                            x       y       z     vdW  Elec       q    Type
REMARK                         _______ _______ _______ _____ _____    ______ ____
ROOT
ATOM      1  C   UNL     1      48.242 -24.019 -42.721  0.00  0.00    -0.013 C 
ATOM      2  C   UNL     1      47.188 -23.187 -41.993  0.00  0.00    +0.150 C 
ATOM      3  C   UNL     1      47.778 -21.796 -41.609  0.00  0.00    -0.033 C 
ATOM      4  N   UNL     1      46.735 -20.911 -40.839  0.00  0.00    +0.381 N 
ATOM      5  C   UNL     1      46.944 -19.451 -41.204  0.00  0.00    -0.100 C 
ATOM      6  C   UNL     1      46.931 -21.076 -39.334  0.00  0.00    -0.100 C 
ATOM      7  C   UNL     1      45.295 -21.363 -41.205  0.00  0.00    -0.064 C 
ATOM      8  C   UNL     1      45.250 -21.908 -42.638  0.00  0.00    +0.037 C 
ATOM      9  O   UNL     1      46.054 -23.072 -42.850  0.00  0.00    -0.353 OA
ENDROOT
BRANCH   2  10
ATOM     10  O   UNL     1      46.787 -23.878 -40.815  0.00  0.00    -0.366 OA
ATOM     11  H   UNL     1      45.819 -23.912 -40.775  0.00  0.00    +0.000 HD
ENDBRANCH   2  10
TORSDOF 1
ENDMDL
MODEL 3
REMARK VINA RESULT:    -4.655     37.567     38.895
REMARK INTER + INTRA:          -4.791
REMARK INTER:                  -4.791
REMARK INTRA:                   0.000
REMARK UNBOUND:                 0.000
REMARK  Name = cpd212.pdb
REMARK  4 active torsions:
REMARK  status: ('A' for Active; 'I' for Inactive)
REMARK    1  A    between atoms: C_1  and  C_2
REMARK    2  A    between atoms: C_2  and  O_3
REMARK    3  A    between atoms: N_5  and  C_6
REMARK    4  A    between atoms: N_5  and  C_7
REMARK                            x       y       z     vdW  Elec       q    Type
REMARK                         _______ _______ _______ _____ _____    ______ ____
ROOT
ATOM      1  C   UNL     1      47.952 -24.050 -42.665  0.00  0.00    -0.013 C 
ATOM      2  C   UNL     1      47.662 -22.742 -41.933  0.00  0.00    +0.150 C 
ATOM      3  C   UNL     1      46.128 -22.465 -41.925  0.00  0.00    -0.033 C 
ATOM      4  N   UNL     1      45.782 -21.117 -41.198  0.00  0.00    +0.381 N 
ATOM      5  C   UNL     1      44.446 -21.256 -40.485  0.00  0.00    -0.100 C 
ATOM      6  C   UNL     1      45.676 -19.991 -42.224  0.00  0.00    -0.100 C 
ATOM      7  C   UNL     1      46.906 -20.765 -40.187  0.00  0.00    -0.064 C 
ATOM      8  C   UNL     1      47.548 -22.041 -39.630  0.00  0.00    +0.037 C 
ATOM      9  O   UNL     1      48.196 -22.852 -40.615  0.00  0.00    -0.353 OA
ENDROOT
BRANCH   2  10
ATOM     10  O   UNL     1      48.336 -21.681 -42.599  0.00  0.00    -0.366 OA
ATOM     11  H   UNL     1      49.208 -21.986 -42.894  0.00  0.00    +0.000 HD
ENDBRANCH   2  10
TORSDOF 1
ENDMDL
MODEL 4
REMARK VINA RESULT:    -4.382      2.269      3.753
REMARK INTER + INTRA:          -4.510
REMARK INTER:                  -4.510
REMARK INTRA:                   0.000
REMARK UNBOUND:                 0.000
REMARK  Name = cpd212.pdb
REMARK  4 active torsions:
REMARK  status: ('A' for Active; 'I' for Inactive)
REMARK    1  A    between atoms: C_1  and  C_2
REMARK    2  A    between atoms: C_2  and  O_3
REMARK    3  A    between atoms: N_5  and  C_6
REMARK    4  A    between atoms: N_5  and  C_7
REMARK                            x       y       z     vdW  Elec       q    Type
REMARK                         _______ _______ _______ _____ _____    ______ ____
ROOT
ATOM      1  C   UNL     1      63.433 -23.093 -10.606  0.00  0.00    -0.013 C 
ATOM      2  C   UNL     1      63.677 -23.922  -9.348  0.00  0.00    +0.150 C 
ATOM      3  C   UNL     1      63.528 -23.025  -8.081  0.00  0.00    -0.033 C 
ATOM      4  N   UNL     1      63.790 -23.831  -6.760  0.00  0.00    +0.381 N 
ATOM      5  C   UNL     1      62.896 -23.293  -5.654  0.00  0.00    -0.100 C 
ATOM      6  C   UNL     1      65.248 -23.668  -6.337  0.00  0.00    -0.100 C 
ATOM      7  C   UNL     1      63.508 -25.338  -7.003  0.00  0.00    -0.064 C 
ATOM      8  C   UNL     1      62.411 -25.518  -8.058  0.00  0.00    +0.037 C 
ATOM      9  O   UNL     1      62.748 -25.005  -9.351  0.00  0.00    -0.353 OA
ENDROOT
BRANCH   2  10
ATOM     10  O   UNL     1      64.992 -24.464  -9.398  0.00  0.00    -0.366 OA
ATOM     11  H   UNL     1      65.417 -24.359  -8.534  0.00  0.00    +0.000 HD
ENDBRANCH   2  10
TORSDOF 1
ENDMDL
MODEL 5
REMARK VINA RESULT:    -4.304     38.625     39.547
REMARK INTER + INTRA:          -4.430
REMARK INTER:                  -4.430
REMARK INTRA:                   0.000
REMARK UNBOUND:                 0.000
REMARK  Name = cpd212.pdb
REMARK  4 active torsions:
REMARK  status: ('A' for Active; 'I' for Inactive)
REMARK    1  A    between atoms: C_1  and  C_2
REMARK    2  A    between atoms: C_2  and  O_3
REMARK    3  A    between atoms: N_5  and  C_6
REMARK    4  A    between atoms: N_5  and  C_7
REMARK                            x       y       z     vdW  Elec       q    Type
REMARK                         _______ _______ _______ _____ _____    ______ ____
ROOT
ATOM      1  C   UNL     1      47.750 -23.516 -41.243  0.00  0.00    -0.013 C 
ATOM      2  C   UNL     1      46.886 -22.358 -41.737  0.00  0.00    +0.150 C 
ATOM      3  C   UNL     1      45.759 -22.054 -40.704  0.00  0.00    -0.033 C 
ATOM      4  N   UNL     1      44.830 -20.881 -41.180  0.00  0.00    +0.381 N 
ATOM      5  C   UNL     1      44.363 -20.085 -39.973  0.00  0.00    -0.100 C 
ATOM      6  C   UNL     1      43.608 -21.450 -41.897  0.00  0.00    -0.100 C 
ATOM      7  C   UNL     1      45.606 -19.969 -42.168  0.00  0.00    -0.064 C 
ATOM      8  C   UNL     1      47.102 -19.959 -41.830  0.00  0.00    +0.037 C 
ATOM      9  O   UNL     1      47.740 -21.235 -41.947  0.00  0.00    -0.353 OA
ENDROOT
BRANCH   2  10
ATOM     10  O   UNL     1      46.306 -22.715 -42.987  0.00  0.00    -0.366 OA
ATOM     11  H   UNL     1      47.008 -22.841 -43.644  0.00  0.00    +0.000 HD
ENDBRANCH   2  10
TORSDOF 1
ENDMDL
MODEL 6
REMARK VINA RESULT:    -4.168      1.044      2.850
REMARK INTER + INTRA:          -4.290
REMARK INTER:                  -4.290
REMARK INTRA:                   0.000
REMARK UNBOUND:                 0.000
REMARK  Name = cpd212.pdb
REMARK  4 active torsions:
REMARK  status: ('A' for Active; 'I' for Inactive)
REMARK    1  A    between atoms: C_1  and  C_2
REMARK    2  A    between atoms: C_2  and  O_3
REMARK    3  A    between atoms: N_5  and  C_6
REMARK    4  A    between atoms: N_5  and  C_7
REMARK                            x       y       z     vdW  Elec       q    Type
REMARK                         _______ _______ _______ _____ _____    ______ ____
ROOT
ATOM      1  C   UNL     1      65.205 -23.935  -3.975  0.00  0.00    -0.013 C 
ATOM      2  C   UNL     1      64.288 -24.441  -5.086  0.00  0.00    +0.150 C 
ATOM      3  C   UNL     1      64.825 -23.976  -6.474  0.00  0.00    -0.033 C 
ATOM      4  N   UNL     1      63.902 -24.457  -7.649  0.00  0.00    +0.381 N 
ATOM      5  C   UNL     1      64.754 -24.754  -8.872  0.00  0.00    -0.100 C 
ATOM      6  C   UNL     1      62.903 -23.357  -8.002  0.00  0.00    -0.100 C 
ATOM      7  C   UNL     1      63.115 -25.721  -7.211  0.00  0.00    -0.064 C 
ATOM      8  C   UNL     1      63.934 -26.544  -6.209  0.00  0.00    +0.037 C 
ATOM      9  O   UNL     1      64.222 -25.862  -4.984  0.00  0.00    -0.353 OA
ENDROOT
BRANCH   2  10
ATOM     10  O   UNL     1      62.981 -23.919  -4.879  0.00  0.00    -0.366 OA
ATOM     11  H   UNL     1      62.373 -24.307  -5.527  0.00  0.00    +0.000 HD
ENDBRANCH   2  10
TORSDOF 1
ENDMDL
MODEL 7
REMARK VINA RESULT:    -4.144     36.101     37.219
REMARK INTER + INTRA:          -4.266
REMARK INTER:                  -4.266
REMARK INTRA:                   0.000
REMARK UNBOUND:                 0.000
REMARK  Name = cpd212.pdb
REMARK  4 active torsions:
REMARK  status: ('A' for Active; 'I' for Inactive)
REMARK    1  A    between atoms: C_1  and  C_2
REMARK    2  A    between atoms: C_2  and  O_3
REMARK    3  A    between atoms: N_5  and  C_6
REMARK    4  A    between atoms: N_5  and  C_7
REMARK                            x       y       z     vdW  Elec       q    Type
REMARK                         _______ _______ _______ _____ _____    ______ ____
ROOT
ATOM      1  C   UNL     1      39.433 -22.638 -37.219  0.00  0.00    -0.013 C 
ATOM      2  C   UNL     1      39.732 -22.939 -35.753  0.00  0.00    +0.150 C 
ATOM      3  C   UNL     1      39.536 -21.653 -34.894  0.00  0.00    -0.033 C 
ATOM      4  N   UNL     1      39.852 -21.909 -33.378  0.00  0.00    +0.381 N 
ATOM      5  C   UNL     1      38.934 -21.056 -32.518  0.00  0.00    -0.100 C 
ATOM      6  C   UNL     1      41.300 -21.524 -33.081  0.00  0.00    -0.100 C 
ATOM      7  C   UNL     1      39.661 -23.414 -33.051  0.00  0.00    -0.064 C 
ATOM      8  C   UNL     1      38.571 -24.024 -33.941  0.00  0.00    +0.037 C 
ATOM      9  O   UNL     1      38.871 -23.998 -35.340  0.00  0.00    -0.353 OA
ENDROOT
BRANCH   2  10
ATOM     10  O   UNL     1      41.077 -23.390 -35.639  0.00  0.00    -0.366 OA
ATOM     11  H   UNL     1      41.105 -24.183 -35.081  0.00  0.00    +0.000 HD
ENDBRANCH   2  10
TORSDOF 1
ENDMDL
MODEL 8
REMARK VINA RESULT:    -4.097     36.153     37.189
REMARK INTER + INTRA:          -4.216
REMARK INTER:                  -4.216
REMARK INTRA:                   0.000
REMARK UNBOUND:                 0.000
REMARK  Name = cpd212.pdb
REMARK  4 active torsions:
REMARK  status: ('A' for Active; 'I' for Inactive)
REMARK    1  A    between atoms: C_1  and  C_2
REMARK    2  A    between atoms: C_2  and  O_3
REMARK    3  A    between atoms: N_5  and  C_6
REMARK    4  A    between atoms: N_5  and  C_7
REMARK                            x       y       z     vdW  Elec       q    Type
REMARK                         _______ _______ _______ _____ _____    ______ ____
ROOT
ATOM      1  C   UNL     1      37.343 -24.970 -33.622  0.00  0.00    -0.013 C 
ATOM      2  C   UNL     1      38.440 -23.964 -33.959  0.00  0.00    +0.150 C 
ATOM      3  C   UNL     1      37.943 -22.515 -33.670  0.00  0.00    -0.033 C 
ATOM      4  N   UNL     1      39.034 -21.442 -34.020  0.00  0.00    +0.381 N 
ATOM      5  C   UNL     1      38.931 -20.280 -33.046  0.00  0.00    -0.100 C 
ATOM      6  C   UNL     1      38.804 -20.918 -35.436  0.00  0.00    -0.100 C 
ATOM      7  C   UNL     1      40.443 -22.088 -33.952  0.00  0.00    -0.064 C 
ATOM      8  C   UNL     1      40.472 -23.208 -32.905  0.00  0.00    +0.037 C 
ATOM      9  O   UNL     1      39.592 -24.301 -33.188  0.00  0.00    -0.353 OA
ENDROOT
BRANCH   2  10
ATOM     10  O   UNL     1      38.776 -24.090 -35.336  0.00  0.00    -0.366 OA
ATOM     11  H   UNL     1      39.731 -23.970 -35.448  0.00  0.00    +0.000 HD
ENDBRANCH   2  10
TORSDOF 1
ENDMDL
MODEL 9
REMARK VINA RESULT:    -4.039     35.500     36.564
REMARK INTER + INTRA:          -4.157
REMARK INTER:                  -4.157
REMARK INTRA:                   0.000
REMARK UNBOUND:                 0.000
REMARK  Name = cpd212.pdb
REMARK  4 active torsions:
REMARK  status: ('A' for Active; 'I' for Inactive)
REMARK    1  A    between atoms: C_1  and  C_2
REMARK    2  A    between atoms: C_2  and  O_3
REMARK    3  A    between atoms: N_5  and  C_6
REMARK    4  A    between atoms: N_5  and  C_7
REMARK                            x       y       z     vdW  Elec       q    Type
REMARK                         _______ _______ _______ _____ _____    ______ ____
ROOT
ATOM      1  C   UNL     1      41.584 -23.832 -31.832  0.00  0.00    -0.013 C 
ATOM      2  C   UNL     1      40.323 -23.349 -32.543  0.00  0.00    +0.150 C 
ATOM      3  C   UNL     1      40.639 -23.038 -34.038  0.00  0.00    -0.033 C 
ATOM      4  N   UNL     1      39.373 -22.518 -34.807  0.00  0.00    +0.381 N 
ATOM      5  C   UNL     1      39.423 -23.003 -36.247  0.00  0.00    -0.100 C 
ATOM      6  C   UNL     1      39.359 -20.991 -34.803  0.00  0.00    -0.100 C 
ATOM      7  C   UNL     1      38.088 -23.029 -34.103  0.00  0.00    -0.064 C 
ATOM      8  C   UNL     1      38.341 -24.388 -33.440  0.00  0.00    +0.037 C 
ATOM      9  O   UNL     1      39.328 -24.363 -32.404  0.00  0.00    -0.353 OA
ENDROOT
BRANCH   2  10
ATOM     10  O   UNL     1      39.850 -22.172 -31.899  0.00  0.00    -0.366 OA
ATOM     11  H   UNL     1      39.100 -22.396 -31.327  0.00  0.00    +0.000 HD
ENDBRANCH   2  10
TORSDOF 1
ENDMDL
MODEL 10
REMARK VINA RESULT:    -4.004     37.566     38.948
REMARK INTER + INTRA:          -4.121
REMARK INTER:                  -4.121
REMARK INTRA:                   0.000
REMARK UNBOUND:                 0.000
REMARK  Name = cpd212.pdb
REMARK  4 active torsions:
REMARK  status: ('A' for Active; 'I' for Inactive)
REMARK    1  A    between atoms: C_1  and  C_2
REMARK    2  A    between atoms: C_2  and  O_3
REMARK    3  A    between atoms: N_5  and  C_6
REMARK    4  A    between atoms: N_5  and  C_7
REMARK                            x       y       z     vdW  Elec       q    Type
REMARK                         _______ _______ _______ _____ _____    ______ ____
ROOT
ATOM      1  C   UNL     1      46.911 -18.129 -40.845  0.00  0.00    -0.013 C 
ATOM      2  C   UNL     1      46.428 -19.570 -40.701  0.00  0.00    +0.150 C 
ATOM      3  C   UNL     1      47.001 -20.442 -41.859  0.00  0.00    -0.033 C 
ATOM      4  N   UNL     1      46.514 -21.932 -41.764  0.00  0.00    +0.381 N 
ATOM      5  C   UNL     1      47.612 -22.855 -42.267  0.00  0.00    -0.100 C 
ATOM      6  C   UNL     1      45.273 -22.125 -42.633  0.00  0.00    -0.100 C 
ATOM      7  C   UNL     1      46.149 -22.269 -40.294  0.00  0.00    -0.064 C 
ATOM      8  C   UNL     1      47.017 -21.459 -39.324  0.00  0.00    +0.037 C 
ATOM      9  O   UNL     1      46.839 -20.042 -39.419  0.00  0.00    -0.353 OA
ENDROOT
BRANCH   2  10
ATOM     10  O   UNL     1      45.006 -19.588 -40.746  0.00  0.00    -0.366 OA
ATOM     11  H   UNL     1      44.653 -19.348 -39.875  0.00  0.00    +0.000 HD
ENDBRANCH   2  10
TORSDOF 1
ENDMDL
MODEL 11
REMARK VINA RESULT:    -3.989     37.571     38.917
REMARK INTER + INTRA:          -4.106
REMARK INTER:                  -4.106
REMARK INTRA:                   0.000
REMARK UNBOUND:                 0.000
REMARK  Name = cpd212.pdb
REMARK  4 active torsions:
REMARK  status: ('A' for Active; 'I' for Inactive)
REMARK    1  A    between atoms: C_1  and  C_2
REMARK    2  A    between atoms: C_2  and  O_3
REMARK    3  A    between atoms: N_5  and  C_6
REMARK    4  A    between atoms: N_5  and  C_7
REMARK                            x       y       z     vdW  Elec       q    Type
REMARK                         _______ _______ _______ _____ _____    ______ ____
ROOT
ATOM      1  C   UNL     1      44.240 -21.952 -42.748  0.00  0.00    -0.013 C 
ATOM      2  C   UNL     1      45.536 -21.667 -41.994  0.00  0.00    +0.150 C 
ATOM      3  C   UNL     1      45.217 -21.047 -40.600  0.00  0.00    -0.033 C 
ATOM      4  N   UNL     1      46.523 -20.717 -39.794  0.00  0.00    +0.381 N 
ATOM      5  C   UNL     1      46.269 -20.931 -38.311  0.00  0.00    -0.100 C 
ATOM      6  C   UNL     1      46.914 -19.258 -40.020  0.00  0.00    -0.100 C 
ATOM      7  C   UNL     1      47.683 -21.624 -40.286  0.00  0.00    -0.064 C 
ATOM      8  C   UNL     1      47.143 -22.977 -40.764  0.00  0.00    +0.037 C 
ATOM      9  O   UNL     1      46.257 -22.893 -41.885  0.00  0.00    -0.353 OA
ENDROOT
BRANCH   2  10
ATOM     10  O   UNL     1      46.323 -20.756 -42.755  0.00  0.00    -0.366 OA
ATOM     11  H   UNL     1      46.742 -20.116 -42.159  0.00  0.00    +0.000 HD
ENDBRANCH   2  10
TORSDOF 1
ENDMDL
MODEL 12
REMARK VINA RESULT:    -3.960     36.801     38.145
REMARK INTER + INTRA:          -4.076
REMARK INTER:                  -4.076
REMARK INTRA:                   0.000
REMARK UNBOUND:                 0.000
REMARK  Name = cpd212.pdb
REMARK  4 active torsions:
REMARK  status: ('A' for Active; 'I' for Inactive)
REMARK    1  A    between atoms: C_1  and  C_2
REMARK    2  A    between atoms: C_2  and  O_3
REMARK    3  A    between atoms: N_5  and  C_6
REMARK    4  A    between atoms: N_5  and  C_7
REMARK                            x       y       z     vdW  Elec       q    Type
REMARK                         _______ _______ _______ _____ _____    ______ ____
ROOT
ATOM      1  C   UNL     1      45.932 -20.020 -37.773  0.00  0.00    -0.013 C 
ATOM      2  C   UNL     1      46.662 -20.355 -39.071  0.00  0.00    +0.150 C 
ATOM      3  C   UNL     1      45.884 -21.458 -39.851  0.00  0.00    -0.033 C 
ATOM      4  N   UNL     1      46.608 -21.852 -41.186  0.00  0.00    +0.381 N 
ATOM      5  C   UNL     1      45.570 -22.203 -42.240  0.00  0.00    -0.100 C 
ATOM      6  C   UNL     1      47.500 -23.068 -40.950  0.00  0.00    -0.100 C 
ATOM      7  C   UNL     1      47.495 -20.671 -41.667  0.00  0.00    -0.064 C 
ATOM      8  C   UNL     1      46.883 -19.331 -41.242  0.00  0.00    +0.037 C 
ATOM      9  O   UNL     1      46.786 -19.151 -39.826  0.00  0.00    -0.353 OA
ENDROOT
BRANCH   2  10
ATOM     10  O   UNL     1      47.970 -20.821 -38.759  0.00  0.00    -0.366 OA
ATOM     11  H   UNL     1      47.906 -21.640 -38.244  0.00  0.00    +0.000 HD
ENDBRANCH   2  10
TORSDOF 1
ENDMDL
MODEL 13
REMARK VINA RESULT:    -3.960      2.287      3.413
REMARK INTER + INTRA:          -4.076
REMARK INTER:                  -4.076
REMARK INTRA:                   0.000
REMARK UNBOUND:                 0.000
REMARK  Name = cpd212.pdb
REMARK  4 active torsions:
REMARK  status: ('A' for Active; 'I' for Inactive)
REMARK    1  A    between atoms: C_1  and  C_2
REMARK    2  A    between atoms: C_2  and  O_3
REMARK    3  A    between atoms: N_5  and  C_6
REMARK    4  A    between atoms: N_5  and  C_7
REMARK                            x       y       z     vdW  Elec       q    Type
REMARK                         _______ _______ _______ _____ _____    ______ ____
ROOT
ATOM      1  C   UNL     1      62.019 -24.969  -9.232  0.00  0.00    -0.013 C 
ATOM      2  C   UNL     1      63.050 -24.401  -8.261  0.00  0.00    +0.150 C 
ATOM      3  C   UNL     1      62.735 -24.876  -6.810  0.00  0.00    -0.033 C 
ATOM      4  N   UNL     1      63.760 -24.299  -5.770  0.00  0.00    +0.381 N 
ATOM      5  C   UNL     1      63.986 -25.318  -4.665  0.00  0.00    -0.100 C 
ATOM      6  C   UNL     1      63.203 -23.019  -5.152  0.00  0.00    -0.100 C 
ATOM      7  C   UNL     1      65.097 -23.966  -6.485  0.00  0.00    -0.064 C 
ATOM      8  C   UNL     1      65.329 -24.917  -7.665  0.00  0.00    +0.037 C 
ATOM      9  O   UNL     1      64.341 -24.826  -8.697  0.00  0.00    -0.353 OA
ENDROOT
BRANCH   2  10
ATOM     10  O   UNL     1      63.008 -22.980  -8.320  0.00  0.00    -0.366 OA
ATOM     11  H   UNL     1      62.673 -22.702  -9.186  0.00  0.00    +0.000 HD
ENDBRANCH   2  10
TORSDOF 1
ENDMDL
MODEL 14
REMARK VINA RESULT:    -3.945      2.347      4.003
REMARK INTER + INTRA:          -4.060
REMARK INTER:                  -4.060
REMARK INTRA:                   0.000
REMARK UNBOUND:                 0.000
REMARK  Name = cpd212.pdb
REMARK  4 active torsions:
REMARK  status: ('A' for Active; 'I' for Inactive)
REMARK    1  A    between atoms: C_1  and  C_2
REMARK    2  A    between atoms: C_2  and  O_3
REMARK    3  A    between atoms: N_5  and  C_6
REMARK    4  A    between atoms: N_5  and  C_7
REMARK                            x       y       z     vdW  Elec       q    Type
REMARK                         _______ _______ _______ _____ _____    ______ ____
ROOT
ATOM      1  C   UNL     1      63.305 -21.093  -6.826  0.00  0.00    -0.013 C 
ATOM      2  C   UNL     1      63.903 -22.440  -7.226  0.00  0.00    +0.150 C 
ATOM      3  C   UNL     1      63.066 -23.600  -6.605  0.00  0.00    -0.033 C 
ATOM      4  N   UNL     1      63.656 -25.007  -6.973  0.00  0.00    +0.381 N 
ATOM      5  C   UNL     1      62.520 -26.007  -7.122  0.00  0.00    -0.100 C 
ATOM      6  C   UNL     1      64.586 -25.484  -5.860  0.00  0.00    -0.100 C 
ATOM      7  C   UNL     1      64.469 -24.905  -8.291  0.00  0.00    -0.064 C 
ATOM      8  C   UNL     1      63.883 -23.820  -9.202  0.00  0.00    +0.037 C 
ATOM      9  O   UNL     1      63.930 -22.500  -8.651  0.00  0.00    -0.353 OA
ENDROOT
BRANCH   2  10
ATOM     10  O   UNL     1      65.243 -22.510  -6.753  0.00  0.00    -0.366 OA
ATOM     11  H   UNL     1      65.731 -21.726  -7.049  0.00  0.00    +0.000 HD
ENDBRANCH   2  10
TORSDOF 1
ENDMDL
MODEL 15
REMARK VINA RESULT:    -3.738     38.295     38.825
REMARK INTER + INTRA:          -3.848
REMARK INTER:                  -3.848
REMARK INTRA:                   0.000
REMARK UNBOUND:                 0.000
REMARK  Name = cpd212.pdb
REMARK  4 active torsions:
REMARK  status: ('A' for Active; 'I' for Inactive)
REMARK    1  A    between atoms: C_1  and  C_2
REMARK    2  A    between atoms: C_2  and  O_3
REMARK    3  A    between atoms: N_5  and  C_6
REMARK    4  A    between atoms: N_5  and  C_7
REMARK                            x       y       z     vdW  Elec       q    Type
REMARK                         _______ _______ _______ _____ _____    ______ ____
ROOT
ATOM      1  C   UNL     1      47.486 -22.864 -41.563  0.00  0.00    -0.013 C 
ATOM      2  C   UNL     1      46.886 -21.677 -40.813  0.00  0.00    +0.150 C 
ATOM      3  C   UNL     1      46.380 -20.606 -41.827  0.00  0.00    -0.033 C 
ATOM      4  N   UNL     1      45.771 -19.355 -41.100  0.00  0.00    +0.381 N 
ATOM      5  C   UNL     1      44.625 -18.798 -41.928  0.00  0.00    -0.100 C 
ATOM      6  C   UNL     1      46.840 -18.275 -40.951  0.00  0.00    -0.100 C 
ATOM      7  C   UNL     1      45.275 -19.762 -39.686  0.00  0.00    -0.064 C 
ATOM      8  C   UNL     1      44.807 -21.222 -39.680  0.00  0.00    +0.037 C 
ATOM      9  O   UNL     1      45.835 -22.171 -39.984  0.00  0.00    -0.353 OA
ENDROOT
BRANCH   2  10
ATOM     10  O   UNL     1      47.884 -21.108 -39.974  0.00  0.00    -0.366 OA
ATOM     11  H   UNL     1      47.852 -21.530 -39.102  0.00  0.00    +0.000 HD
ENDBRANCH   2  10
TORSDOF 1
ENDMDL
MODEL 16
REMARK VINA RESULT:    -3.732     51.647     52.598
REMARK INTER + INTRA:          -3.841
REMARK INTER:                  -3.841
REMARK INTRA:                   0.000
REMARK UNBOUND:                 0.000
REMARK  Name = cpd212.pdb
REMARK  4 active torsions:
REMARK  status: ('A' for Active; 'I' for Inactive)
REMARK    1  A    between atoms: C_1  and  C_2
REMARK    2  A    between atoms: C_2  and  O_3
REMARK    3  A    between atoms: N_5  and  C_6
REMARK    4  A    between atoms: N_5  and  C_7
REMARK                            x       y       z     vdW  Elec       q    Type
REMARK                         _______ _______ _______ _____ _____    ______ ____
ROOT
ATOM      1  C   UNL     1      45.716 -33.426 -54.497  0.00  0.00    -0.013 C 
ATOM      2  C   UNL     1      45.209 -34.818 -54.126  0.00  0.00    +0.150 C 
ATOM      3  C   UNL     1      44.664 -35.542 -55.394  0.00  0.00    -0.033 C 
ATOM      4  N   UNL     1      44.112 -36.973 -55.058  0.00  0.00    +0.381 N 
ATOM      5  C   UNL     1      44.377 -37.905 -56.229  0.00  0.00    -0.100 C 
ATOM      6  C   UNL     1      42.605 -36.900 -54.819  0.00  0.00    -0.100 C 
ATOM      7  C   UNL     1      44.794 -37.507 -53.770  0.00  0.00    -0.064 C 
ATOM      8  C   UNL     1      46.219 -36.953 -53.646  0.00  0.00    +0.037 C 
ATOM      9  O   UNL     1      46.288 -35.529 -53.522  0.00  0.00    -0.353 OA
ENDROOT
BRANCH   2  10
ATOM     10  O   UNL     1      44.168 -34.689 -53.164  0.00  0.00    -0.366 OA
ATOM     11  H   UNL     1      44.555 -34.583 -52.282  0.00  0.00    +0.000 HD
ENDBRANCH   2  10
TORSDOF 1
ENDMDL
MODEL 17
REMARK VINA RESULT:    -3.545     35.923     37.038
REMARK INTER + INTRA:          -3.649
REMARK INTER:                  -3.649
REMARK INTRA:                   0.000
REMARK UNBOUND:                 0.000
REMARK  Name = cpd212.pdb
REMARK  4 active torsions:
REMARK  status: ('A' for Active; 'I' for Inactive)
REMARK    1  A    between atoms: C_1  and  C_2
REMARK    2  A    between atoms: C_2  and  O_3
REMARK    3  A    between atoms: N_5  and  C_6
REMARK    4  A    between atoms: N_5  and  C_7
REMARK                            x       y       z     vdW  Elec       q    Type
REMARK                         _______ _______ _______ _____ _____    ______ ____
ROOT
ATOM      1  C   UNL     1      37.193 -19.702 -32.894  0.00  0.00    -0.013 C 
ATOM      2  C   UNL     1      38.067 -20.952 -32.824  0.00  0.00    +0.150 C 
ATOM      3  C   UNL     1      38.364 -21.475 -34.262  0.00  0.00    -0.033 C 
ATOM      4  N   UNL     1      39.245 -22.774 -34.241  0.00  0.00    +0.381 N 
ATOM      5  C   UNL     1      40.166 -22.780 -35.451  0.00  0.00    -0.100 C 
ATOM      6  C   UNL     1      38.347 -24.008 -34.301  0.00  0.00    -0.100 C 
ATOM      7  C   UNL     1      40.071 -22.824 -32.927  0.00  0.00    -0.064 C 
ATOM      8  C   UNL     1      40.404 -21.406 -32.447  0.00  0.00    +0.037 C 
ATOM      9  O   UNL     1      39.260 -20.612 -32.119  0.00  0.00    -0.353 OA
ENDROOT
BRANCH   2  10
ATOM     10  O   UNL     1      37.382 -21.954 -32.082  0.00  0.00    -0.366 OA
ATOM     11  H   UNL     1      37.877 -22.150 -31.272  0.00  0.00    +0.000 HD
ENDBRANCH   2  10
TORSDOF 1
ENDMDL
MODEL 18
REMARK VINA RESULT:    -3.523     51.546     52.593
REMARK INTER + INTRA:          -3.626
REMARK INTER:                  -3.626
REMARK INTRA:                   0.000
REMARK UNBOUND:                 0.000
REMARK  Name = cpd212.pdb
REMARK  4 active torsions:
REMARK  status: ('A' for Active; 'I' for Inactive)
REMARK    1  A    between atoms: C_1  and  C_2
REMARK    2  A    between atoms: C_2  and  O_3
REMARK    3  A    between atoms: N_5  and  C_6
REMARK    4  A    between atoms: N_5  and  C_7
REMARK                            x       y       z     vdW  Elec       q    Type
REMARK                         _______ _______ _______ _____ _____    ______ ____
ROOT
ATOM      1  C   UNL     1      42.647 -37.043 -54.824  0.00  0.00    -0.013 C 
ATOM      2  C   UNL     1      44.085 -37.045 -54.311  0.00  0.00    +0.150 C 
ATOM      3  C   UNL     1      45.078 -37.169 -55.506  0.00  0.00    -0.033 C 
ATOM      4  N   UNL     1      46.572 -37.197 -55.025  0.00  0.00    +0.381 N 
ATOM      5  C   UNL     1      47.447 -36.503 -56.056  0.00  0.00    -0.100 C 
ATOM      6  C   UNL     1      47.039 -38.643 -54.875  0.00  0.00    -0.100 C 
ATOM      7  C   UNL     1      46.689 -36.491 -53.647  0.00  0.00    -0.064 C 
ATOM      8  C   UNL     1      45.639 -35.382 -53.519  0.00  0.00    +0.037 C 
ATOM      9  O   UNL     1      44.285 -35.844 -53.568  0.00  0.00    -0.353 OA
ENDROOT
BRANCH   2  10
ATOM     10  O   UNL     1      44.258 -38.148 -53.428  0.00  0.00    -0.366 OA
ATOM     11  H   UNL     1      43.586 -38.111 -52.730  0.00  0.00    +0.000 HD
ENDBRANCH   2  10
TORSDOF 1
ENDMDL
MODEL 19
REMARK VINA RESULT:    -3.431     25.005     26.614
REMARK INTER + INTRA:          -3.531
REMARK INTER:                  -3.531
REMARK INTRA:                   0.000
REMARK UNBOUND:                 0.000
REMARK  Name = cpd212.pdb
REMARK  4 active torsions:
REMARK  status: ('A' for Active; 'I' for Inactive)
REMARK    1  A    between atoms: C_1  and  C_2
REMARK    2  A    between atoms: C_2  and  O_3
REMARK    3  A    between atoms: N_5  and  C_6
REMARK    4  A    between atoms: N_5  and  C_7
REMARK                            x       y       z     vdW  Elec       q    Type
REMARK                         _______ _______ _______ _____ _____    ______ ____
ROOT
ATOM      1  C   UNL     1      63.194 -13.939 -27.702  0.00  0.00    -0.013 C 
ATOM      2  C   UNL     1      63.129 -13.837 -29.223  0.00  0.00    +0.150 C 
ATOM      3  C   UNL     1      61.797 -13.150 -29.655  0.00  0.00    -0.033 C 
ATOM      4  N   UNL     1      61.676 -13.040 -31.216  0.00  0.00    +0.381 N 
ATOM      5  C   UNL     1      60.938 -11.761 -31.577  0.00  0.00    -0.100 C 
ATOM      6  C   UNL     1      60.889 -14.232 -31.758  0.00  0.00    -0.100 C 
ATOM      7  C   UNL     1      63.092 -13.050 -31.852  0.00  0.00    -0.064 C 
ATOM      8  C   UNL     1      64.113 -12.414 -30.902  0.00  0.00    +0.037 C 
ATOM      9  O   UNL     1      64.275 -13.109 -29.661  0.00  0.00    -0.353 OA
ENDROOT
BRANCH   2  10
ATOM     10  O   UNL     1      63.195 -15.145 -29.779  0.00  0.00    -0.366 OA
ATOM     11  H   UNL     1      62.651 -15.748 -29.249  0.00  0.00    +0.000 HD
ENDBRANCH   2  10
TORSDOF 1
ENDMDL
MODEL 20
REMARK VINA RESULT:    -3.369     35.520     36.783
REMARK INTER + INTRA:          -3.468
REMARK INTER:                  -3.468
REMARK INTRA:                   0.000
REMARK UNBOUND:                 0.000
REMARK  Name = cpd212.pdb
REMARK  4 active torsions:
REMARK  status: ('A' for Active; 'I' for Inactive)
REMARK    1  A    between atoms: C_1  and  C_2
REMARK    2  A    between atoms: C_2  and  O_3
REMARK    3  A    between atoms: N_5  and  C_6
REMARK    4  A    between atoms: N_5  and  C_7
REMARK                            x       y       z     vdW  Elec       q    Type
REMARK                         _______ _______ _______ _____ _____    ______ ____
ROOT
ATOM      1  C   UNL     1      53.726 -50.149 -29.722  0.00  0.00    -0.013 C 
ATOM      2  C   UNL     1      54.373 -51.450 -29.256  0.00  0.00    +0.150 C 
ATOM      3  C   UNL     1      53.693 -52.665 -29.957  0.00  0.00    -0.033 C 
ATOM      4  N   UNL     1      54.313 -54.031 -29.492  0.00  0.00    +0.381 N 
ATOM      5  C   UNL     1      54.299 -55.013 -30.653  0.00  0.00    -0.100 C 
ATOM      6  C   UNL     1      53.486 -54.610 -28.348  0.00  0.00    -0.100 C 
ATOM      7  C   UNL     1      55.764 -53.801 -28.991  0.00  0.00    -0.064 C 
ATOM      8  C   UNL     1      56.416 -52.634 -29.742  0.00  0.00    +0.037 C 
ATOM      9  O   UNL     1      55.767 -51.373 -29.547  0.00  0.00    -0.353 OA
ENDROOT
BRANCH   2  10
ATOM     10  O   UNL     1      54.220 -51.564 -27.845  0.00  0.00    -0.366 OA
ATOM     11  H   UNL     1      53.549 -52.235 -27.647  0.00  0.00    +0.000 HD
ENDBRANCH   2  10
TORSDOF 1
ENDMDL
