MODEL 1
REMARK VINA RESULT:    -6.352      0.000      0.000
REMARK INTER + INTRA:          -7.489
REMARK INTER:                  -7.280
REMARK INTRA:                  -0.209
REMARK UNBOUND:                -0.209
REMARK  Name = cpd237.pdb
REMARK  5 active torsions:
REMARK  status: ('A' for Active; 'I' for Inactive)
REMARK    1  A    between atoms: C_1  and  N_2
REMARK    2  A    between atoms: N_2  and  C_3
REMARK    3  A    between atoms: C_7  and  O_8
REMARK    4  A    between atoms: C_7  and  C_9
REMARK    5  A    between atoms: C_12  and  C_13
REMARK                            x       y       z     vdW  Elec       q    Type
REMARK                         _______ _______ _______ _____ _____    ______ ____
ROOT
ATOM      1  C   UNL     1      34.165 -32.592 -31.599  0.00  0.00    -0.100 C 
ATOM      2  N   UNL     1      34.229 -33.755 -30.621  0.00  0.00    +0.381 N 
ATOM      3  C   UNL     1      33.861 -33.246 -29.229  0.00  0.00    -0.100 C 
ATOM      4  C   UNL     1      33.228 -34.866 -31.028  0.00  0.00    -0.064 C 
ATOM      5  C   UNL     1      33.906 -35.880 -31.955  0.00  0.00    +0.037 C 
ATOM      6  O   UNL     1      34.971 -36.609 -31.338  0.00  0.00    -0.348 OA
ATOM      7  C   UNL     1      35.710 -35.890 -30.346  0.00  0.00    +0.179 C 
ATOM      8  C   UNL     1      35.690 -34.342 -30.606  0.00  0.00    -0.029 C 
ENDROOT
BRANCH   7   9
ATOM      9  C   UNL     1      37.153 -36.389 -30.313  0.00  0.00    +0.009 A 
ATOM     10  C   UNL     1      38.077 -36.037 -31.311  0.00  0.00    -0.052 A 
ATOM     11  C   UNL     1      39.402 -36.488 -31.258  0.00  0.00    -0.044 A 
ATOM     12  C   UNL     1      39.827 -37.298 -30.203  0.00  0.00    +0.052 A 
ATOM     13  C   UNL     1      38.921 -37.657 -29.202  0.00  0.00    -0.044 A 
ATOM     14  C   UNL     1      37.598 -37.207 -29.257  0.00  0.00    -0.052 A 
BRANCH  12  15
ATOM     15  C   UNL     1      41.184 -37.759 -30.148  0.00  0.00    +0.099 C 
ATOM     16  N   UNL     1      42.281 -38.133 -30.112  0.00  0.00    -0.191 NA
ENDBRANCH  12  15
ENDBRANCH   7   9
BRANCH   7  17
ATOM     17  O   UNL     1      35.090 -36.172 -29.094  0.00  0.00    -0.362 OA
ATOM     18  H   UNL     1      35.141 -37.124 -28.915  0.00  0.00    +0.000 HD
ENDBRANCH   7  17
TORSDOF 3
ENDMDL
MODEL 2
REMARK VINA RESULT:    -6.216      1.823      2.650
REMARK INTER + INTRA:          -7.333
REMARK INTER:                  -7.123
REMARK INTRA:                  -0.211
REMARK UNBOUND:                -0.209
REMARK  Name = cpd237.pdb
REMARK  5 active torsions:
REMARK  status: ('A' for Active; 'I' for Inactive)
REMARK    1  A    between atoms: C_1  and  N_2
REMARK    2  A    between atoms: N_2  and  C_3
REMARK    3  A    between atoms: C_7  and  O_8
REMARK    4  A    between atoms: C_7  and  C_9
REMARK    5  A    between atoms: C_12  and  C_13
REMARK                            x       y       z     vdW  Elec       q    Type
REMARK                         _______ _______ _______ _____ _____    ______ ____
ROOT
ATOM      1  C   UNL     1      34.080 -36.920 -27.686  0.00  0.00    -0.100 C 
ATOM      2  N   UNL     1      34.474 -36.956 -29.156  0.00  0.00    +0.381 N 
ATOM      3  C   UNL     1      33.854 -38.193 -29.800  0.00  0.00    -0.100 C 
ATOM      4  C   UNL     1      33.952 -35.695 -29.891  0.00  0.00    -0.064 C 
ATOM      5  C   UNL     1      35.004 -34.582 -29.850  0.00  0.00    +0.037 C 
ATOM      6  O   UNL     1      36.209 -34.896 -30.554  0.00  0.00    -0.348 OA
ATOM      7  C   UNL     1      36.581 -36.278 -30.545  0.00  0.00    +0.179 C 
ATOM      8  C   UNL     1      36.043 -37.022 -29.271  0.00  0.00    -0.029 C 
ENDROOT
BRANCH   7   9
ATOM      9  C   UNL     1      38.100 -36.405 -30.614  0.00  0.00    +0.009 A 
ATOM     10  C   UNL     1      38.869 -35.604 -31.475  0.00  0.00    -0.052 A 
ATOM     11  C   UNL     1      40.264 -35.721 -31.515  0.00  0.00    -0.044 A 
ATOM     12  C   UNL     1      40.916 -36.640 -30.691  0.00  0.00    +0.052 A 
ATOM     13  C   UNL     1      40.167 -37.443 -29.828  0.00  0.00    -0.044 A 
ATOM     14  C   UNL     1      38.774 -37.328 -29.790  0.00  0.00    -0.052 A 
BRANCH  12  15
ATOM     15  C   UNL     1      42.345 -36.758 -30.729  0.00  0.00    +0.099 C 
ATOM     16  N   UNL     1      43.500 -36.858 -30.768  0.00  0.00    -0.191 NA
ENDBRANCH  12  15
ENDBRANCH   7   9
BRANCH   7  17
ATOM     17  O   UNL     1      36.009 -36.859 -31.714  0.00  0.00    -0.362 OA
ATOM     18  H   UNL     1      35.943 -37.819 -31.598  0.00  0.00    +0.000 HD
ENDBRANCH   7  17
TORSDOF 3
ENDMDL
MODEL 3
REMARK VINA RESULT:    -6.160      1.340      2.504
REMARK INTER + INTRA:          -7.270
REMARK INTER:                  -7.057
REMARK INTRA:                  -0.213
REMARK UNBOUND:                -0.209
REMARK  Name = cpd237.pdb
REMARK  5 active torsions:
REMARK  status: ('A' for Active; 'I' for Inactive)
REMARK    1  A    between atoms: C_1  and  N_2
REMARK    2  A    between atoms: N_2  and  C_3
REMARK    3  A    between atoms: C_7  and  O_8
REMARK    4  A    between atoms: C_7  and  C_9
REMARK    5  A    between atoms: C_12  and  C_13
REMARK                            x       y       z     vdW  Elec       q    Type
REMARK                         _______ _______ _______ _____ _____    ______ ____
ROOT
ATOM      1  C   UNL     1      31.985 -36.699 -31.568  0.00  0.00    -0.100 C 
ATOM      2  N   UNL     1      33.037 -35.607 -31.692  0.00  0.00    +0.381 N 
ATOM      3  C   UNL     1      33.010 -35.059 -33.117  0.00  0.00    -0.100 C 
ATOM      4  C   UNL     1      32.741 -34.449 -30.706  0.00  0.00    -0.064 C 
ATOM      5  C   UNL     1      33.450 -34.692 -29.370  0.00  0.00    +0.037 C 
ATOM      6  O   UNL     1      34.878 -34.686 -29.462  0.00  0.00    -0.348 OA
ATOM      7  C   UNL     1      35.414 -35.176 -30.695  0.00  0.00    +0.179 C 
ATOM      8  C   UNL     1      34.456 -36.214 -31.380  0.00  0.00    -0.029 C 
ENDROOT
BRANCH   7   9
ATOM      9  C   UNL     1      36.778 -35.816 -30.449  0.00  0.00    +0.009 A 
ATOM     10  C   UNL     1      36.991 -36.709 -29.385  0.00  0.00    -0.052 A 
ATOM     11  C   UNL     1      38.243 -37.301 -29.182  0.00  0.00    -0.044 A 
ATOM     12  C   UNL     1      39.305 -37.015 -30.041  0.00  0.00    +0.052 A 
ATOM     13  C   UNL     1      39.110 -36.131 -31.105  0.00  0.00    -0.044 A 
ATOM     14  C   UNL     1      37.859 -35.537 -31.306  0.00  0.00    -0.052 A 
BRANCH  12  15
ATOM     15  C   UNL     1      40.587 -37.624 -29.835  0.00  0.00    +0.099 C 
ATOM     16  N   UNL     1      41.627 -38.110 -29.673  0.00  0.00    -0.191 NA
ENDBRANCH  12  15
ENDBRANCH   7   9
BRANCH   7  17
ATOM     17  O   UNL     1      35.576 -34.043 -31.545  0.00  0.00    -0.362 OA
ATOM     18  H   UNL     1      34.736 -33.562 -31.606  0.00  0.00    +0.000 HD
ENDBRANCH   7  17
TORSDOF 3
ENDMDL
MODEL 4
REMARK VINA RESULT:    -6.114      3.219      4.214
REMARK INTER + INTRA:          -7.217
REMARK INTER:                  -7.005
REMARK INTRA:                  -0.212
REMARK UNBOUND:                -0.209
REMARK  Name = cpd237.pdb
REMARK  5 active torsions:
REMARK  status: ('A' for Active; 'I' for Inactive)
REMARK    1  A    between atoms: C_1  and  N_2
REMARK    2  A    between atoms: N_2  and  C_3
REMARK    3  A    between atoms: C_7  and  O_8
REMARK    4  A    between atoms: C_7  and  C_9
REMARK    5  A    between atoms: C_12  and  C_13
REMARK                            x       y       z     vdW  Elec       q    Type
REMARK                         _______ _______ _______ _____ _____    ______ ____
ROOT
ATOM      1  C   UNL     1      34.573 -40.839 -28.040  0.00  0.00    -0.100 C 
ATOM      2  N   UNL     1      34.732 -39.461 -28.666  0.00  0.00    +0.381 N 
ATOM      3  C   UNL     1      33.869 -39.392 -29.924  0.00  0.00    -0.100 C 
ATOM      4  C   UNL     1      34.270 -38.357 -27.682  0.00  0.00    -0.064 C 
ATOM      5  C   UNL     1      35.449 -37.877 -26.829  0.00  0.00    +0.037 C 
ATOM      6  O   UNL     1      36.483 -37.234 -27.580  0.00  0.00    -0.348 OA
ATOM      7  C   UNL     1      36.672 -37.728 -28.910  0.00  0.00    +0.179 C 
ATOM      8  C   UNL     1      36.243 -39.232 -29.043  0.00  0.00    -0.029 C 
ENDROOT
BRANCH   7   9
ATOM      9  C   UNL     1      38.135 -37.570 -29.317  0.00  0.00    +0.009 A 
ATOM     10  C   UNL     1      39.178 -38.094 -28.535  0.00  0.00    -0.052 A 
ATOM     11  C   UNL     1      40.514 -37.957 -28.930  0.00  0.00    -0.044 A 
ATOM     12  C   UNL     1      40.832 -37.295 -30.118  0.00  0.00    +0.052 A 
ATOM     13  C   UNL     1      39.807 -36.769 -30.908  0.00  0.00    -0.044 A 
ATOM     14  C   UNL     1      38.472 -36.905 -30.511  0.00  0.00    -0.052 A 
BRANCH  12  15
ATOM     15  C   UNL     1      42.200 -37.156 -30.524  0.00  0.00    +0.099 C 
ATOM     16  N   UNL     1      43.309 -37.047 -30.845  0.00  0.00    -0.191 NA
ENDBRANCH  12  15
ENDBRANCH   7   9
BRANCH   7  17
ATOM     17  O   UNL     1      35.860 -36.924 -29.761  0.00  0.00    -0.362 OA
ATOM     18  H   UNL     1      35.783 -37.349 -30.629  0.00  0.00    +0.000 HD
ENDBRANCH   7  17
TORSDOF 3
ENDMDL
MODEL 5
REMARK VINA RESULT:    -6.035      1.586      2.307
REMARK INTER + INTRA:          -7.126
REMARK INTER:                  -6.909
REMARK INTRA:                  -0.217
REMARK UNBOUND:                -0.209
REMARK  Name = cpd237.pdb
REMARK  5 active torsions:
REMARK  status: ('A' for Active; 'I' for Inactive)
REMARK    1  A    between atoms: C_1  and  N_2
REMARK    2  A    between atoms: N_2  and  C_3
REMARK    3  A    between atoms: C_7  and  O_8
REMARK    4  A    between atoms: C_7  and  C_9
REMARK    5  A    between atoms: C_12  and  C_13
REMARK                            x       y       z     vdW  Elec       q    Type
REMARK                         _______ _______ _______ _____ _____    ______ ____
ROOT
ATOM      1  C   UNL     1      33.118 -37.278 -31.713  0.00  0.00    -0.100 C 
ATOM      2  N   UNL     1      33.973 -36.043 -31.470  0.00  0.00    +0.381 N 
ATOM      3  C   UNL     1      33.592 -34.974 -32.492  0.00  0.00    -0.100 C 
ATOM      4  C   UNL     1      33.729 -35.482 -30.046  0.00  0.00    -0.064 C 
ATOM      5  C   UNL     1      34.715 -36.104 -29.052  0.00  0.00    +0.037 C 
ATOM      6  O   UNL     1      36.082 -35.770 -29.306  0.00  0.00    -0.348 OA
ATOM      7  C   UNL     1      36.422 -35.586 -30.684  0.00  0.00    +0.179 C 
ATOM      8  C   UNL     1      35.492 -36.421 -31.634  0.00  0.00    -0.029 C 
ENDROOT
BRANCH   7   9
ATOM      9  C   UNL     1      37.880 -35.979 -30.913  0.00  0.00    +0.009 A 
ATOM     10  C   UNL     1      38.612 -35.486 -32.007  0.00  0.00    -0.052 A 
ATOM     11  C   UNL     1      39.953 -35.841 -32.195  0.00  0.00    -0.044 A 
ATOM     12  C   UNL     1      40.588 -36.694 -31.290  0.00  0.00    +0.052 A 
ATOM     13  C   UNL     1      39.875 -37.192 -30.197  0.00  0.00    -0.044 A 
ATOM     14  C   UNL     1      38.535 -36.838 -30.011  0.00  0.00    -0.052 A 
BRANCH  12  15
ATOM     15  C   UNL     1      41.963 -37.057 -31.481  0.00  0.00    +0.099 C 
ATOM     16  N   UNL     1      43.074 -37.345 -31.643  0.00  0.00    -0.191 NA
ENDBRANCH  12  15
ENDBRANCH   7   9
BRANCH   7  17
ATOM     17  O   UNL     1      36.263 -34.197 -30.959  0.00  0.00    -0.362 OA
ATOM     18  H   UNL     1      35.357 -33.927 -30.744  0.00  0.00    +0.000 HD
ENDBRANCH   7  17
TORSDOF 3
ENDMDL
MODEL 6
REMARK VINA RESULT:    -5.996      2.941      3.609
REMARK INTER + INTRA:          -7.081
REMARK INTER:                  -6.873
REMARK INTRA:                  -0.208
REMARK UNBOUND:                -0.209
REMARK  Name = cpd237.pdb
REMARK  5 active torsions:
REMARK  status: ('A' for Active; 'I' for Inactive)
REMARK    1  A    between atoms: C_1  and  N_2
REMARK    2  A    between atoms: N_2  and  C_3
REMARK    3  A    between atoms: C_7  and  O_8
REMARK    4  A    between atoms: C_7  and  C_9
REMARK    5  A    between atoms: C_12  and  C_13
REMARK                            x       y       z     vdW  Elec       q    Type
REMARK                         _______ _______ _______ _____ _____    ______ ____
ROOT
ATOM      1  C   UNL     1      32.866 -38.085 -30.078  0.00  0.00    -0.100 C 
ATOM      2  N   UNL     1      33.776 -38.045 -28.858  0.00  0.00    +0.381 N 
ATOM      3  C   UNL     1      33.241 -37.000 -27.882  0.00  0.00    -0.100 C 
ATOM      4  C   UNL     1      33.801 -39.424 -28.151  0.00  0.00    -0.064 C 
ATOM      5  C   UNL     1      34.935 -40.289 -28.710  0.00  0.00    +0.037 C 
ATOM      6  O   UNL     1      36.242 -39.767 -28.456  0.00  0.00    -0.348 OA
ATOM      7  C   UNL     1      36.336 -38.339 -28.423  0.00  0.00    +0.179 C 
ATOM      8  C   UNL     1      35.234 -37.658 -29.311  0.00  0.00    -0.029 C 
ENDROOT
BRANCH   7   9
ATOM      9  C   UNL     1      37.720 -37.900 -28.893  0.00  0.00    +0.009 A 
ATOM     10  C   UNL     1      38.892 -38.390 -28.292  0.00  0.00    -0.052 A 
ATOM     11  C   UNL     1      40.155 -37.991 -28.746  0.00  0.00    -0.044 A 
ATOM     12  C   UNL     1      40.270 -37.096 -29.811  0.00  0.00    +0.052 A 
ATOM     13  C   UNL     1      39.115 -36.599 -30.420  0.00  0.00    -0.044 A 
ATOM     14  C   UNL     1      37.853 -36.997 -29.966  0.00  0.00    -0.052 A 
BRANCH  12  15
ATOM     15  C   UNL     1      41.564 -36.688 -30.277  0.00  0.00    +0.099 C 
ATOM     16  N   UNL     1      42.607 -36.360 -30.662  0.00  0.00    -0.191 NA
ENDBRANCH  12  15
ENDBRANCH   7   9
BRANCH   7  17
ATOM     17  O   UNL     1      36.159 -37.952 -27.063  0.00  0.00    -0.362 OA
ATOM     18  H   UNL     1      36.988 -37.583 -26.722  0.00  0.00    +0.000 HD
ENDBRANCH   7  17
TORSDOF 3
ENDMDL
MODEL 7
REMARK VINA RESULT:    -5.713      1.962      2.986
REMARK INTER + INTRA:          -6.757
REMARK INTER:                  -6.549
REMARK INTRA:                  -0.208
REMARK UNBOUND:                -0.209
REMARK  Name = cpd237.pdb
REMARK  5 active torsions:
REMARK  status: ('A' for Active; 'I' for Inactive)
REMARK    1  A    between atoms: C_1  and  N_2
REMARK    2  A    between atoms: N_2  and  C_3
REMARK    3  A    between atoms: C_7  and  O_8
REMARK    4  A    between atoms: C_7  and  C_9
REMARK    5  A    between atoms: C_12  and  C_13
REMARK                            x       y       z     vdW  Elec       q    Type
REMARK                         _______ _______ _______ _____ _____    ______ ____
ROOT
ATOM      1  C   UNL     1      31.223 -32.793 -29.115  0.00  0.00    -0.100 C 
ATOM      2  N   UNL     1      31.989 -33.269 -30.341  0.00  0.00    +0.381 N 
ATOM      3  C   UNL     1      31.035 -34.049 -31.243  0.00  0.00    -0.100 C 
ATOM      4  C   UNL     1      32.554 -32.064 -31.134  0.00  0.00    -0.064 C 
ATOM      5  C   UNL     1      33.964 -31.718 -30.645  0.00  0.00    +0.037 C 
ATOM      6  O   UNL     1      34.929 -32.747 -30.882  0.00  0.00    -0.348 OA
ATOM      7  C   UNL     1      34.423 -34.085 -30.826  0.00  0.00    +0.179 C 
ATOM      8  C   UNL     1      33.173 -34.201 -29.884  0.00  0.00    -0.029 C 
ENDROOT
BRANCH   7   9
ATOM      9  C   UNL     1      35.520 -35.033 -30.347  0.00  0.00    +0.009 A 
ATOM     10  C   UNL     1      36.737 -35.161 -31.039  0.00  0.00    -0.052 A 
ATOM     11  C   UNL     1      37.740 -36.022 -30.577  0.00  0.00    -0.044 A 
ATOM     12  C   UNL     1      37.546 -36.768 -29.413  0.00  0.00    +0.052 A 
ATOM     13  C   UNL     1      36.343 -36.651 -28.713  0.00  0.00    -0.044 A 
ATOM     14  C   UNL     1      35.340 -35.793 -29.175  0.00  0.00    -0.052 A 
BRANCH  12  15
ATOM     15  C   UNL     1      38.575 -37.649 -28.939  0.00  0.00    +0.099 C 
ATOM     16  N   UNL     1      39.408 -38.354 -28.550  0.00  0.00    -0.191 NA
ENDBRANCH  12  15
ENDBRANCH   7   9
BRANCH   7  17
ATOM     17  O   UNL     1      34.052 -34.434 -32.157  0.00  0.00    -0.362 OA
ATOM     18  H   UNL     1      34.803 -34.856 -32.602  0.00  0.00    +0.000 HD
ENDBRANCH   7  17
TORSDOF 3
ENDMDL
MODEL 8
REMARK VINA RESULT:    -5.603      1.401      1.988
REMARK INTER + INTRA:          -6.631
REMARK INTER:                  -6.417
REMARK INTRA:                  -0.214
REMARK UNBOUND:                -0.209
REMARK  Name = cpd237.pdb
REMARK  5 active torsions:
REMARK  status: ('A' for Active; 'I' for Inactive)
REMARK    1  A    between atoms: C_1  and  N_2
REMARK    2  A    between atoms: N_2  and  C_3
REMARK    3  A    between atoms: C_7  and  O_8
REMARK    4  A    between atoms: C_7  and  C_9
REMARK    5  A    between atoms: C_12  and  C_13
REMARK                            x       y       z     vdW  Elec       q    Type
REMARK                         _______ _______ _______ _____ _____    ______ ____
ROOT
ATOM      1  C   UNL     1      33.509 -31.980 -30.609  0.00  0.00    -0.100 C 
ATOM      2  N   UNL     1      33.221 -33.374 -30.069  0.00  0.00    +0.381 N 
ATOM      3  C   UNL     1      32.376 -33.244 -28.804  0.00  0.00    -0.100 C 
ATOM      4  C   UNL     1      32.435 -34.211 -31.111  0.00  0.00    -0.064 C 
ATOM      5  C   UNL     1      33.403 -34.986 -32.010  0.00  0.00    +0.037 C 
ATOM      6  O   UNL     1      34.177 -35.969 -31.318  0.00  0.00    -0.348 OA
ATOM      7  C   UNL     1      34.510 -35.644 -29.964  0.00  0.00    +0.179 C 
ATOM      8  C   UNL     1      34.580 -34.093 -29.733  0.00  0.00    -0.029 C 
ENDROOT
BRANCH   7   9
ATOM      9  C   UNL     1      35.846 -36.282 -29.592  0.00  0.00    +0.009 A 
ATOM     10  C   UNL     1      35.992 -37.065 -28.434  0.00  0.00    -0.052 A 
ATOM     11  C   UNL     1      37.220 -37.658 -28.115  0.00  0.00    -0.044 A 
ATOM     12  C   UNL     1      38.324 -37.481 -28.951  0.00  0.00    +0.052 A 
ATOM     13  C   UNL     1      38.196 -36.707 -30.107  0.00  0.00    -0.044 A 
ATOM     14  C   UNL     1      36.970 -36.113 -30.424  0.00  0.00    -0.052 A 
BRANCH  12  15
ATOM     15  C   UNL     1      39.581 -38.090 -28.625  0.00  0.00    +0.099 C 
ATOM     16  N   UNL     1      40.598 -38.577 -28.356  0.00  0.00    -0.191 NA
ENDBRANCH  12  15
ENDBRANCH   7   9
BRANCH   7  17
ATOM     17  O   UNL     1      33.482 -36.202 -29.149  0.00  0.00    -0.362 OA
ATOM     18  H   UNL     1      33.756 -36.172 -28.219  0.00  0.00    +0.000 HD
ENDBRANCH   7  17
TORSDOF 3
ENDMDL
MODEL 9
REMARK VINA RESULT:    -5.527     32.820     34.251
REMARK INTER + INTRA:          -6.544
REMARK INTER:                  -6.327
REMARK INTRA:                  -0.217
REMARK UNBOUND:                -0.209
REMARK  Name = cpd237.pdb
REMARK  5 active torsions:
REMARK  status: ('A' for Active; 'I' for Inactive)
REMARK    1  A    between atoms: C_1  and  N_2
REMARK    2  A    between atoms: N_2  and  C_3
REMARK    3  A    between atoms: C_7  and  O_8
REMARK    4  A    between atoms: C_7  and  C_9
REMARK    5  A    between atoms: C_12  and  C_13
REMARK                            x       y       z     vdW  Elec       q    Type
REMARK                         _______ _______ _______ _____ _____    ______ ____
ROOT
ATOM      1  C   UNL     1      60.318 -10.709 -31.530  0.00  0.00    -0.100 C 
ATOM      2  N   UNL     1      60.425 -11.882 -30.567  0.00  0.00    +0.381 N 
ATOM      3  C   UNL     1      60.030 -11.407 -29.171  0.00  0.00    -0.100 C 
ATOM      4  C   UNL     1      59.472 -13.028 -30.994  0.00  0.00    -0.064 C 
ATOM      5  C   UNL     1      60.195 -14.000 -31.932  0.00  0.00    +0.037 C 
ATOM      6  O   UNL     1      61.286 -14.693 -31.319  0.00  0.00    -0.348 OA
ATOM      7  C   UNL     1      61.991 -13.959 -30.313  0.00  0.00    +0.179 C 
ATOM      8  C   UNL     1      61.909 -12.409 -30.552  0.00  0.00    -0.029 C 
ENDROOT
BRANCH   7   9
ATOM      9  C   UNL     1      63.452 -14.399 -30.279  0.00  0.00    +0.009 A 
ATOM     10  C   UNL     1      64.348 -13.908 -29.314  0.00  0.00    -0.052 A 
ATOM     11  C   UNL     1      65.681 -14.334 -29.285  0.00  0.00    -0.044 A 
ATOM     12  C   UNL     1      66.143 -15.262 -30.221  0.00  0.00    +0.052 A 
ATOM     13  C   UNL     1      65.266 -15.761 -31.187  0.00  0.00    -0.044 A 
ATOM     14  C   UNL     1      63.935 -15.333 -31.216  0.00  0.00    -0.052 A 
BRANCH  12  15
ATOM     15  C   UNL     1      67.509 -15.700 -30.190  0.00  0.00    +0.099 C 
ATOM     16  N   UNL     1      68.610 -16.061 -30.171  0.00  0.00    -0.191 NA
ENDBRANCH  12  15
ENDBRANCH   7   9
BRANCH   7  17
ATOM     17  O   UNL     1      61.376 -14.283 -29.069  0.00  0.00    -0.362 OA
ATOM     18  H   UNL     1      60.465 -14.574 -29.225  0.00  0.00    +0.000 HD
ENDBRANCH   7  17
TORSDOF 3
ENDMDL
MODEL 10
REMARK VINA RESULT:    -5.512      3.220      4.048
REMARK INTER + INTRA:          -6.526
REMARK INTER:                  -6.314
REMARK INTRA:                  -0.212
REMARK UNBOUND:                -0.209
REMARK  Name = cpd237.pdb
REMARK  5 active torsions:
REMARK  status: ('A' for Active; 'I' for Inactive)
REMARK    1  A    between atoms: C_1  and  N_2
REMARK    2  A    between atoms: N_2  and  C_3
REMARK    3  A    between atoms: C_7  and  O_8
REMARK    4  A    between atoms: C_7  and  C_9
REMARK    5  A    between atoms: C_12  and  C_13
REMARK                            x       y       z     vdW  Elec       q    Type
REMARK                         _______ _______ _______ _____ _____    ______ ____
ROOT
ATOM      1  C   UNL     1      31.775 -37.540 -27.688  0.00  0.00    -0.100 C 
ATOM      2  N   UNL     1      33.152 -37.486 -27.041  0.00  0.00    +0.381 N 
ATOM      3  C   UNL     1      33.109 -36.495 -25.880  0.00  0.00    -0.100 C 
ATOM      4  C   UNL     1      33.554 -38.879 -26.494  0.00  0.00    -0.064 C 
ATOM      5  C   UNL     1      34.316 -39.670 -27.562  0.00  0.00    +0.037 C 
ATOM      6  O   UNL     1      35.570 -39.089 -27.929  0.00  0.00    -0.348 OA
ATOM      7  C   UNL     1      35.621 -37.660 -27.877  0.00  0.00    +0.179 C 
ATOM      8  C   UNL     1      34.209 -37.013 -28.108  0.00  0.00    -0.029 C 
ENDROOT
BRANCH   7   9
ATOM      9  C   UNL     1      36.604 -37.138 -28.923  0.00  0.00    +0.009 A 
ATOM     10  C   UNL     1      37.798 -37.819 -29.216  0.00  0.00    -0.052 A 
ATOM     11  C   UNL     1      38.681 -37.337 -30.190  0.00  0.00    -0.044 A 
ATOM     12  C   UNL     1      38.385 -36.167 -30.891  0.00  0.00    +0.052 A 
ATOM     13  C   UNL     1      37.201 -35.479 -30.613  0.00  0.00    -0.044 A 
ATOM     14  C   UNL     1      36.320 -35.959 -29.639  0.00  0.00    -0.052 A 
BRANCH  12  15
ATOM     15  C   UNL     1      39.289 -35.675 -31.891  0.00  0.00    +0.099 C 
ATOM     16  N   UNL     1      40.020 -35.270 -32.694  0.00  0.00    -0.191 NA
ENDBRANCH  12  15
ENDBRANCH   7   9
BRANCH   7  17
ATOM     17  O   UNL     1      36.096 -37.318 -26.578  0.00  0.00    -0.362 OA
ATOM     18  H   UNL     1      37.050 -37.149 -26.617  0.00  0.00    +0.000 HD
ENDBRANCH   7  17
TORSDOF 3
ENDMDL
MODEL 11
REMARK VINA RESULT:    -5.497     19.291     20.653
REMARK INTER + INTRA:          -6.510
REMARK INTER:                  -6.304
REMARK INTRA:                  -0.205
REMARK UNBOUND:                -0.209
REMARK  Name = cpd237.pdb
REMARK  5 active torsions:
REMARK  status: ('A' for Active; 'I' for Inactive)
REMARK    1  A    between atoms: C_1  and  N_2
REMARK    2  A    between atoms: N_2  and  C_3
REMARK    3  A    between atoms: C_7  and  O_8
REMARK    4  A    between atoms: C_7  and  C_9
REMARK    5  A    between atoms: C_12  and  C_13
REMARK                            x       y       z     vdW  Elec       q    Type
REMARK                         _______ _______ _______ _____ _____    ______ ____
ROOT
ATOM      1  C   UNL     1      45.203 -21.879 -42.038  0.00  0.00    -0.100 C 
ATOM      2  N   UNL     1      46.403 -21.603 -41.144  0.00  0.00    +0.381 N 
ATOM      3  C   UNL     1      47.234 -22.879 -41.032  0.00  0.00    -0.100 C 
ATOM      4  C   UNL     1      47.287 -20.482 -41.747  0.00  0.00    -0.064 C 
ATOM      5  C   UNL     1      46.843 -19.113 -41.221  0.00  0.00    +0.037 C 
ATOM      6  O   UNL     1      47.022 -18.948 -39.812  0.00  0.00    -0.348 OA
ATOM      7  C   UNL     1      46.866 -20.137 -39.031  0.00  0.00    +0.179 C 
ATOM      8  C   UNL     1      45.899 -21.167 -39.718  0.00  0.00    -0.029 C 
ENDROOT
BRANCH   7   9
ATOM      9  C   UNL     1      46.338 -19.780 -37.644  0.00  0.00    +0.009 A 
ATOM     10  C   UNL     1      45.090 -20.239 -37.190  0.00  0.00    -0.052 A 
ATOM     11  C   UNL     1      44.626 -19.917 -35.908  0.00  0.00    -0.044 A 
ATOM     12  C   UNL     1      45.405 -19.132 -35.056  0.00  0.00    +0.052 A 
ATOM     13  C   UNL     1      46.648 -18.668 -35.491  0.00  0.00    -0.044 A 
ATOM     14  C   UNL     1      47.110 -18.988 -36.772  0.00  0.00    -0.052 A 
BRANCH  12  15
ATOM     15  C   UNL     1      44.931 -18.803 -33.742  0.00  0.00    +0.099 C 
ATOM     16  N   UNL     1      44.550 -18.546 -32.678  0.00  0.00    -0.191 NA
ENDBRANCH  12  15
ENDBRANCH   7   9
BRANCH   7  17
ATOM     17  O   UNL     1      48.163 -20.713 -38.904  0.00  0.00    -0.362 OA
ATOM     18  H   UNL     1      48.615 -20.683 -39.761  0.00  0.00    +0.000 HD
ENDBRANCH   7  17
TORSDOF 3
ENDMDL
MODEL 12
REMARK VINA RESULT:    -5.122     18.288     19.963
REMARK INTER + INTRA:          -6.079
REMARK INTER:                  -5.870
REMARK INTRA:                  -0.209
REMARK UNBOUND:                -0.209
REMARK  Name = cpd237.pdb
REMARK  5 active torsions:
REMARK  status: ('A' for Active; 'I' for Inactive)
REMARK    1  A    between atoms: C_1  and  N_2
REMARK    2  A    between atoms: N_2  and  C_3
REMARK    3  A    between atoms: C_7  and  O_8
REMARK    4  A    between atoms: C_7  and  C_9
REMARK    5  A    between atoms: C_12  and  C_13
REMARK                            x       y       z     vdW  Elec       q    Type
REMARK                         _______ _______ _______ _____ _____    ______ ____
ROOT
ATOM      1  C   UNL     1      46.645 -22.951 -42.535  0.00  0.00    -0.100 C 
ATOM      2  N   UNL     1      47.168 -22.234 -41.299  0.00  0.00    +0.381 N 
ATOM      3  C   UNL     1      48.301 -23.060 -40.695  0.00  0.00    -0.100 C 
ATOM      4  C   UNL     1      47.716 -20.833 -41.673  0.00  0.00    -0.064 C 
ATOM      5  C   UNL     1      46.609 -19.780 -41.560  0.00  0.00    +0.037 C 
ATOM      6  O   UNL     1      46.118 -19.595 -40.229  0.00  0.00    -0.348 OA
ATOM      7  C   UNL     1      46.126 -20.766 -39.405  0.00  0.00    +0.179 C 
ATOM      8  C   UNL     1      46.001 -22.081 -40.253  0.00  0.00    -0.029 C 
ENDROOT
BRANCH   7   9
ATOM      9  C   UNL     1      44.985 -20.694 -38.393  0.00  0.00    +0.009 A 
ATOM     10  C   UNL     1      45.196 -20.260 -37.074  0.00  0.00    -0.052 A 
ATOM     11  C   UNL     1      44.136 -20.183 -36.162  0.00  0.00    -0.044 A 
ATOM     12  C   UNL     1      42.844 -20.538 -36.554  0.00  0.00    +0.052 A 
ATOM     13  C   UNL     1      42.617 -20.971 -37.863  0.00  0.00    -0.044 A 
ATOM     14  C   UNL     1      43.676 -21.049 -38.772  0.00  0.00    -0.052 A 
BRANCH  12  15
ATOM     15  C   UNL     1      41.758 -20.458 -35.621  0.00  0.00    +0.099 C 
ATOM     16  N   UNL     1      40.874 -20.393 -34.873  0.00  0.00    -0.191 NA
ENDBRANCH  12  15
ENDBRANCH   7   9
BRANCH   7  17
ATOM     17  O   UNL     1      47.369 -20.763 -38.709  0.00  0.00    -0.362 OA
ATOM     18  H   UNL     1      47.484 -19.913 -38.256  0.00  0.00    +0.000 HD
ENDBRANCH   7  17
TORSDOF 3
ENDMDL
MODEL 13
REMARK VINA RESULT:    -5.080      3.940      4.759
REMARK INTER + INTRA:          -6.032
REMARK INTER:                  -5.816
REMARK INTRA:                  -0.216
REMARK UNBOUND:                -0.209
REMARK  Name = cpd237.pdb
REMARK  5 active torsions:
REMARK  status: ('A' for Active; 'I' for Inactive)
REMARK    1  A    between atoms: C_1  and  N_2
REMARK    2  A    between atoms: N_2  and  C_3
REMARK    3  A    between atoms: C_7  and  O_8
REMARK    4  A    between atoms: C_7  and  C_9
REMARK    5  A    between atoms: C_12  and  C_13
REMARK                            x       y       z     vdW  Elec       q    Type
REMARK                         _______ _______ _______ _____ _____    ______ ____
ROOT
ATOM      1  C   UNL     1      33.314 -36.670 -23.498  0.00  0.00    -0.100 C 
ATOM      2  N   UNL     1      33.126 -37.440 -24.797  0.00  0.00    +0.381 N 
ATOM      3  C   UNL     1      32.886 -38.911 -24.464  0.00  0.00    -0.100 C 
ATOM      4  C   UNL     1      31.902 -36.899 -25.580  0.00  0.00    -0.064 C 
ATOM      5  C   UNL     1      32.335 -35.789 -26.543  0.00  0.00    +0.037 C 
ATOM      6  O   UNL     1      33.216 -36.232 -27.579  0.00  0.00    -0.348 OA
ATOM      7  C   UNL     1      34.102 -37.296 -27.217  0.00  0.00    +0.179 C 
ATOM      8  C   UNL     1      34.422 -37.296 -25.679  0.00  0.00    -0.029 C 
ENDROOT
BRANCH   7   9
ATOM      9  C   UNL     1      35.399 -37.185 -28.013  0.00  0.00    +0.009 A 
ATOM     10  C   UNL     1      35.514 -36.323 -29.117  0.00  0.00    -0.052 A 
ATOM     11  C   UNL     1      36.716 -36.219 -29.828  0.00  0.00    -0.044 A 
ATOM     12  C   UNL     1      37.827 -36.973 -29.445  0.00  0.00    +0.052 A 
ATOM     13  C   UNL     1      37.730 -37.834 -28.349  0.00  0.00    -0.044 A 
ATOM     14  C   UNL     1      36.529 -37.939 -27.641  0.00  0.00    -0.052 A 
BRANCH  12  15
ATOM     15  C   UNL     1      39.059 -36.865 -30.171  0.00  0.00    +0.099 C 
ATOM     16  N   UNL     1      40.058 -36.772 -30.752  0.00  0.00    -0.191 NA
ENDBRANCH  12  15
ENDBRANCH   7   9
BRANCH   7  17
ATOM     17  O   UNL     1      33.441 -38.510 -27.566  0.00  0.00    -0.362 OA
ATOM     18  H   UNL     1      33.889 -38.914 -28.325  0.00  0.00    +0.000 HD
ENDBRANCH   7  17
TORSDOF 3
ENDMDL
MODEL 14
REMARK VINA RESULT:    -5.043     15.682     17.388
REMARK INTER + INTRA:          -5.989
REMARK INTER:                  -5.772
REMARK INTRA:                  -0.216
REMARK UNBOUND:                -0.209
REMARK  Name = cpd237.pdb
REMARK  5 active torsions:
REMARK  status: ('A' for Active; 'I' for Inactive)
REMARK    1  A    between atoms: C_1  and  N_2
REMARK    2  A    between atoms: N_2  and  C_3
REMARK    3  A    between atoms: C_7  and  O_8
REMARK    4  A    between atoms: C_7  and  C_9
REMARK    5  A    between atoms: C_12  and  C_13
REMARK                            x       y       z     vdW  Elec       q    Type
REMARK                         _______ _______ _______ _____ _____    ______ ____
ROOT
ATOM      1  C   UNL     1      38.268 -20.060 -35.187  0.00  0.00    -0.100 C 
ATOM      2  N   UNL     1      39.577 -20.836 -35.184  0.00  0.00    +0.381 N 
ATOM      3  C   UNL     1      40.429 -20.356 -34.012  0.00  0.00    -0.100 C 
ATOM      4  C   UNL     1      39.310 -22.354 -35.020  0.00  0.00    -0.064 C 
ATOM      5  C   UNL     1      39.159 -23.020 -36.392  0.00  0.00    +0.037 C 
ATOM      6  O   UNL     1      40.346 -22.980 -37.189  0.00  0.00    -0.348 OA
ATOM      7  C   UNL     1      41.170 -21.825 -37.004  0.00  0.00    +0.179 C 
ATOM      8  C   UNL     1      40.337 -20.578 -36.539  0.00  0.00    -0.029 C 
ENDROOT
BRANCH   7   9
ATOM      9  C   UNL     1      41.905 -21.499 -38.302  0.00  0.00    +0.009 A 
ATOM     10  C   UNL     1      43.134 -20.819 -38.302  0.00  0.00    -0.052 A 
ATOM     11  C   UNL     1      43.805 -20.543 -39.500  0.00  0.00    -0.044 A 
ATOM     12  C   UNL     1      43.259 -20.944 -40.720  0.00  0.00    +0.052 A 
ATOM     13  C   UNL     1      42.038 -21.623 -40.738  0.00  0.00    -0.044 A 
ATOM     14  C   UNL     1      41.368 -21.897 -39.541  0.00  0.00    -0.052 A 
BRANCH  12  15
ATOM     15  C   UNL     1      43.946 -20.663 -41.947  0.00  0.00    +0.099 C 
ATOM     16  N   UNL     1      44.497 -20.428 -42.940  0.00  0.00    -0.191 NA
ENDBRANCH  12  15
ENDBRANCH   7   9
BRANCH   7  17
ATOM     17  O   UNL     1      42.123 -22.164 -36.000  0.00  0.00    -0.362 OA
ATOM     18  H   UNL     1      41.950 -23.064 -35.681  0.00  0.00    +0.000 HD
ENDBRANCH   7  17
TORSDOF 3
ENDMDL
MODEL 15
REMARK VINA RESULT:    -5.016     24.582     26.221
REMARK INTER + INTRA:          -5.958
REMARK INTER:                  -5.742
REMARK INTRA:                  -0.216
REMARK UNBOUND:                -0.209
REMARK  Name = cpd237.pdb
REMARK  5 active torsions:
REMARK  status: ('A' for Active; 'I' for Inactive)
REMARK    1  A    between atoms: C_1  and  N_2
REMARK    2  A    between atoms: N_2  and  C_3
REMARK    3  A    between atoms: C_7  and  O_8
REMARK    4  A    between atoms: C_7  and  C_9
REMARK    5  A    between atoms: C_12  and  C_13
REMARK                            x       y       z     vdW  Elec       q    Type
REMARK                         _______ _______ _______ _____ _____    ______ ____
ROOT
ATOM      1  C   UNL     1      47.227 -38.678 -54.978  0.00  0.00    -0.100 C 
ATOM      2  N   UNL     1      46.055 -37.710 -55.045  0.00  0.00    +0.381 N 
ATOM      3  C   UNL     1      45.332 -37.908 -56.375  0.00  0.00    -0.100 C 
ATOM      4  C   UNL     1      45.058 -37.980 -53.889  0.00  0.00    -0.064 C 
ATOM      5  C   UNL     1      45.419 -37.131 -52.666  0.00  0.00    +0.037 C 
ATOM      6  O   UNL     1      45.297 -35.723 -52.881  0.00  0.00    -0.348 OA
ATOM      7  C   UNL     1      45.583 -35.279 -54.211  0.00  0.00    +0.179 C 
ATOM      8  C   UNL     1      46.592 -36.234 -54.943  0.00  0.00    -0.029 C 
ENDROOT
BRANCH   7   9
ATOM      9  C   UNL     1      46.149 -33.862 -54.174  0.00  0.00    +0.009 A 
ATOM     10  C   UNL     1      46.335 -33.174 -52.963  0.00  0.00    -0.052 A 
ATOM     11  C   UNL     1      46.871 -31.881 -52.943  0.00  0.00    -0.044 A 
ATOM     12  C   UNL     1      47.235 -31.252 -54.135  0.00  0.00    +0.052 A 
ATOM     13  C   UNL     1      47.058 -31.922 -55.348  0.00  0.00    -0.044 A 
ATOM     14  C   UNL     1      46.520 -33.213 -55.368  0.00  0.00    -0.052 A 
BRANCH  12  15
ATOM     15  C   UNL     1      47.786 -29.928 -54.115  0.00  0.00    +0.099 C 
ATOM     16  N   UNL     1      48.233 -28.858 -54.108  0.00  0.00    -0.191 NA
ENDBRANCH  12  15
ENDBRANCH   7   9
BRANCH   7  17
ATOM     17  O   UNL     1      44.342 -35.269 -54.911  0.00  0.00    -0.362 OA
ATOM     18  H   UNL     1      43.612 -35.247 -54.274  0.00  0.00    +0.000 HD
ENDBRANCH   7  17
TORSDOF 3
ENDMDL
MODEL 16
REMARK VINA RESULT:    -4.954      4.000      6.016
REMARK INTER + INTRA:          -5.887
REMARK INTER:                  -5.672
REMARK INTRA:                  -0.215
REMARK UNBOUND:                -0.209
REMARK  Name = cpd237.pdb
REMARK  5 active torsions:
REMARK  status: ('A' for Active; 'I' for Inactive)
REMARK    1  A    between atoms: C_1  and  N_2
REMARK    2  A    between atoms: N_2  and  C_3
REMARK    3  A    between atoms: C_7  and  O_8
REMARK    4  A    between atoms: C_7  and  C_9
REMARK    5  A    between atoms: C_12  and  C_13
REMARK                            x       y       z     vdW  Elec       q    Type
REMARK                         _______ _______ _______ _____ _____    ______ ____
ROOT
ATOM      1  C   UNL     1      28.038 -32.193 -31.270  0.00  0.00    -0.100 C 
ATOM      2  N   UNL     1      29.203 -31.266 -30.955  0.00  0.00    +0.381 N 
ATOM      3  C   UNL     1      29.160 -30.080 -31.915  0.00  0.00    -0.100 C 
ATOM      4  C   UNL     1      29.102 -30.738 -29.502  0.00  0.00    -0.064 C 
ATOM      5  C   UNL     1      29.853 -31.668 -28.543  0.00  0.00    +0.037 C 
ATOM      6  O   UNL     1      31.263 -31.723 -28.774  0.00  0.00    -0.348 OA
ATOM      7  C   UNL     1      31.667 -31.570 -30.139  0.00  0.00    +0.179 C 
ATOM      8  C   UNL     1      30.555 -32.052 -31.137  0.00  0.00    -0.029 C 
ENDROOT
BRANCH   7   9
ATOM      9  C   UNL     1      32.957 -32.347 -30.388  0.00  0.00    +0.009 A 
ATOM     10  C   UNL     1      34.011 -31.804 -31.142  0.00  0.00    -0.052 A 
ATOM     11  C   UNL     1      35.195 -32.523 -31.347  0.00  0.00    -0.044 A 
ATOM     12  C   UNL     1      35.347 -33.798 -30.799  0.00  0.00    +0.052 A 
ATOM     13  C   UNL     1      34.310 -34.353 -30.046  0.00  0.00    -0.044 A 
ATOM     14  C   UNL     1      33.127 -33.635 -29.843  0.00  0.00    -0.052 A 
BRANCH  12  15
ATOM     15  C   UNL     1      36.561 -34.534 -31.007  0.00  0.00    +0.099 C 
ATOM     16  N   UNL     1      37.542 -35.126 -31.185  0.00  0.00    -0.191 NA
ENDBRANCH  12  15
ENDBRANCH   7   9
BRANCH   7  17
ATOM     17  O   UNL     1      31.913 -30.180 -30.335  0.00  0.00    -0.362 OA
ATOM     18  H   UNL     1      32.614 -30.066 -30.996  0.00  0.00    +0.000 HD
ENDBRANCH   7  17
TORSDOF 3
ENDMDL
MODEL 17
REMARK VINA RESULT:    -4.704     21.564     23.219
REMARK INTER + INTRA:          -5.600
REMARK INTER:                  -5.392
REMARK INTRA:                  -0.208
REMARK UNBOUND:                -0.209
REMARK  Name = cpd237.pdb
REMARK  5 active torsions:
REMARK  status: ('A' for Active; 'I' for Inactive)
REMARK    1  A    between atoms: C_1  and  N_2
REMARK    2  A    between atoms: N_2  and  C_3
REMARK    3  A    between atoms: C_7  and  O_8
REMARK    4  A    between atoms: C_7  and  C_9
REMARK    5  A    between atoms: C_12  and  C_13
REMARK                            x       y       z     vdW  Elec       q    Type
REMARK                         _______ _______ _______ _____ _____    ______ ____
ROOT
ATOM      1  C   UNL     1      48.240 -22.117 -41.458  0.00  0.00    -0.100 C 
ATOM      2  N   UNL     1      46.839 -21.537 -41.325  0.00  0.00    +0.381 N 
ATOM      3  C   UNL     1      45.962 -22.115 -42.432  0.00  0.00    -0.100 C 
ATOM      4  C   UNL     1      46.222 -21.909 -39.953  0.00  0.00    -0.064 C 
ATOM      5  C   UNL     1      46.543 -20.829 -38.914  0.00  0.00    +0.037 C 
ATOM      6  O   UNL     1      45.958 -19.556 -39.201  0.00  0.00    -0.348 OA
ATOM      7  C   UNL     1      45.826 -19.242 -40.591  0.00  0.00    +0.179 C 
ATOM      8  C   UNL     1      46.911 -19.970 -41.462  0.00  0.00    -0.029 C 
ENDROOT
BRANCH   7   9
ATOM      9  C   UNL     1      45.929 -17.733 -40.793  0.00  0.00    +0.009 A 
ATOM     10  C   UNL     1      47.172 -17.083 -40.872  0.00  0.00    -0.052 A 
ATOM     11  C   UNL     1      47.251 -15.700 -41.075  0.00  0.00    -0.044 A 
ATOM     12  C   UNL     1      46.087 -14.941 -41.206  0.00  0.00    +0.052 A 
ATOM     13  C   UNL     1      44.842 -15.571 -41.131  0.00  0.00    -0.044 A 
ATOM     14  C   UNL     1      44.764 -16.953 -40.927  0.00  0.00    -0.052 A 
BRANCH  12  15
ATOM     15  C   UNL     1      46.167 -13.524 -41.416  0.00  0.00    +0.099 C 
ATOM     16  N   UNL     1      46.224 -12.379 -41.587  0.00  0.00    -0.191 NA
ENDBRANCH  12  15
ENDBRANCH   7   9
BRANCH   7  17
ATOM     17  O   UNL     1      44.527 -19.679 -40.984  0.00  0.00    -0.362 OA
ATOM     18  H   UNL     1      44.589 -20.566 -41.372  0.00  0.00    +0.000 HD
ENDBRANCH   7  17
TORSDOF 3
ENDMDL
MODEL 18
REMARK VINA RESULT:    -4.673     15.196     17.169
REMARK INTER + INTRA:          -5.565
REMARK INTER:                  -5.357
REMARK INTRA:                  -0.208
REMARK UNBOUND:                -0.209
REMARK  Name = cpd237.pdb
REMARK  5 active torsions:
REMARK  status: ('A' for Active; 'I' for Inactive)
REMARK    1  A    between atoms: C_1  and  N_2
REMARK    2  A    between atoms: N_2  and  C_3
REMARK    3  A    between atoms: C_7  and  O_8
REMARK    4  A    between atoms: C_7  and  C_9
REMARK    5  A    between atoms: C_12  and  C_13
REMARK                            x       y       z     vdW  Elec       q    Type
REMARK                         _______ _______ _______ _____ _____    ______ ____
ROOT
ATOM      1  C   UNL     1      43.611 -17.952 -37.187  0.00  0.00    -0.100 C 
ATOM      2  N   UNL     1      44.009 -18.875 -36.044  0.00  0.00    +0.381 N 
ATOM      3  C   UNL     1      45.278 -19.626 -36.440  0.00  0.00    -0.100 C 
ATOM      4  C   UNL     1      44.291 -18.060 -34.757  0.00  0.00    -0.064 C 
ATOM      5  C   UNL     1      43.013 -17.920 -33.924  0.00  0.00    +0.037 C 
ATOM      6  O   UNL     1      42.510 -19.162 -33.421  0.00  0.00    -0.348 OA
ATOM      7  C   UNL     1      42.738 -20.299 -34.260  0.00  0.00    +0.179 C 
ATOM      8  C   UNL     1      42.844 -19.900 -35.774  0.00  0.00    -0.029 C 
ENDROOT
BRANCH   7   9
ATOM      9  C   UNL     1      41.613 -21.314 -34.071  0.00  0.00    +0.009 A 
ATOM     10  C   UNL     1      41.255 -21.790 -32.799  0.00  0.00    -0.052 A 
ATOM     11  C   UNL     1      40.210 -22.707 -32.640  0.00  0.00    -0.044 A 
ATOM     12  C   UNL     1      39.501 -23.165 -33.753  0.00  0.00    +0.052 A 
ATOM     13  C   UNL     1      39.844 -22.702 -35.025  0.00  0.00    -0.044 A 
ATOM     14  C   UNL     1      40.889 -21.786 -35.183  0.00  0.00    -0.052 A 
BRANCH  12  15
ATOM     15  C   UNL     1      38.429 -24.104 -33.591  0.00  0.00    +0.099 C 
ATOM     16  N   UNL     1      37.568 -24.869 -33.460  0.00  0.00    -0.191 NA
ENDBRANCH  12  15
ENDBRANCH   7   9
BRANCH   7  17
ATOM     17  O   UNL     1      43.967 -20.879 -33.832  0.00  0.00    -0.362 OA
ATOM     18  H   UNL     1      44.392 -21.325 -34.581  0.00  0.00    +0.000 HD
ENDBRANCH   7  17
TORSDOF 3
ENDMDL
MODEL 19
REMARK VINA RESULT:    -4.656     19.877     20.783
REMARK INTER + INTRA:          -5.546
REMARK INTER:                  -5.337
REMARK INTRA:                  -0.208
REMARK UNBOUND:                -0.209
REMARK  Name = cpd237.pdb
REMARK  5 active torsions:
REMARK  status: ('A' for Active; 'I' for Inactive)
REMARK    1  A    between atoms: C_1  and  N_2
REMARK    2  A    between atoms: N_2  and  C_3
REMARK    3  A    between atoms: C_7  and  O_8
REMARK    4  A    between atoms: C_7  and  C_9
REMARK    5  A    between atoms: C_12  and  C_13
REMARK                            x       y       z     vdW  Elec       q    Type
REMARK                         _______ _______ _______ _____ _____    ______ ____
ROOT
ATOM      1  C   UNL     1      45.191 -18.679 -34.509  0.00  0.00    -0.100 C 
ATOM      2  N   UNL     1      45.167 -18.099 -35.916  0.00  0.00    +0.381 N 
ATOM      3  C   UNL     1      43.794 -17.481 -36.167  0.00  0.00    -0.100 C 
ATOM      4  C   UNL     1      46.247 -16.999 -36.071  0.00  0.00    -0.064 C 
ATOM      5  C   UNL     1      47.561 -17.609 -36.569  0.00  0.00    +0.037 C 
ATOM      6  O   UNL     1      47.478 -18.173 -37.881  0.00  0.00    -0.348 OA
ATOM      7  C   UNL     1      46.210 -18.742 -38.224  0.00  0.00    +0.179 C 
ATOM      8  C   UNL     1      45.433 -19.250 -36.957  0.00  0.00    -0.029 C 
ENDROOT
BRANCH   7   9
ATOM      9  C   UNL     1      46.408 -19.896 -39.204  0.00  0.00    +0.009 A 
ATOM     10  C   UNL     1      46.309 -19.708 -40.593  0.00  0.00    -0.052 A 
ATOM     11  C   UNL     1      46.510 -20.773 -41.480  0.00  0.00    -0.044 A 
ATOM     12  C   UNL     1      46.818 -22.045 -40.994  0.00  0.00    +0.052 A 
ATOM     13  C   UNL     1      46.922 -22.248 -39.616  0.00  0.00    -0.044 A 
ATOM     14  C   UNL     1      46.718 -21.185 -38.730  0.00  0.00    -0.052 A 
BRANCH  12  15
ATOM     15  C   UNL     1      47.026 -23.135 -41.903  0.00  0.00    +0.099 C 
ATOM     16  N   UNL     1      47.190 -24.021 -42.632  0.00  0.00    -0.191 NA
ENDBRANCH  12  15
ENDBRANCH   7   9
BRANCH   7  17
ATOM     17  O   UNL     1      45.461 -17.711 -38.861  0.00  0.00    -0.362 OA
ATOM     18  H   UNL     1      44.538 -17.751 -38.564  0.00  0.00    +0.000 HD
ENDBRANCH   7  17
TORSDOF 3
ENDMDL
MODEL 20
REMARK VINA RESULT:    -4.513     16.554     18.577
REMARK INTER + INTRA:          -5.381
REMARK INTER:                  -5.164
REMARK INTRA:                  -0.217
REMARK UNBOUND:                -0.209
REMARK  Name = cpd237.pdb
REMARK  5 active torsions:
REMARK  status: ('A' for Active; 'I' for Inactive)
REMARK    1  A    between atoms: C_1  and  N_2
REMARK    2  A    between atoms: N_2  and  C_3
REMARK    3  A    between atoms: C_7  and  O_8
REMARK    4  A    between atoms: C_7  and  C_9
REMARK    5  A    between atoms: C_12  and  C_13
REMARK                            x       y       z     vdW  Elec       q    Type
REMARK                         _______ _______ _______ _____ _____    ______ ____
ROOT
ATOM      1  C   UNL     1      45.406 -17.710 -37.096  0.00  0.00    -0.100 C 
ATOM      2  N   UNL     1      45.446 -18.741 -35.977  0.00  0.00    +0.381 N 
ATOM      3  C   UNL     1      46.244 -19.952 -36.455  0.00  0.00    -0.100 C 
ATOM      4  C   UNL     1      46.134 -18.154 -34.718  0.00  0.00    -0.064 C 
ATOM      5  C   UNL     1      45.096 -17.503 -33.799  0.00  0.00    +0.037 C 
ATOM      6  O   UNL     1      44.146 -18.422 -33.254  0.00  0.00    -0.348 OA
ATOM      7  C   UNL     1      43.811 -19.529 -34.098  0.00  0.00    +0.179 C 
ATOM      8  C   UNL     1      43.976 -19.177 -35.619  0.00  0.00    -0.029 C 
ENDROOT
BRANCH   7   9
ATOM      9  C   UNL     1      42.375 -19.971 -33.824  0.00  0.00    +0.009 A 
ATOM     10  C   UNL     1      41.744 -20.951 -34.609  0.00  0.00    -0.052 A 
ATOM     11  C   UNL     1      40.433 -21.359 -34.335  0.00  0.00    -0.044 A 
ATOM     12  C   UNL     1      39.730 -20.797 -33.268  0.00  0.00    +0.052 A 
ATOM     13  C   UNL     1      40.343 -19.822 -32.477  0.00  0.00    -0.044 A 
ATOM     14  C   UNL     1      41.652 -19.414 -32.752  0.00  0.00    -0.052 A 
BRANCH  12  15
ATOM     15  C   UNL     1      38.387 -21.216 -32.986  0.00  0.00    +0.099 C 
ATOM     16  N   UNL     1      37.304 -21.563 -32.763  0.00  0.00    -0.191 NA
ENDBRANCH  12  15
ENDBRANCH   7   9
BRANCH   7  17
ATOM     17  O   UNL     1      44.700 -20.587 -33.752  0.00  0.00    -0.362 OA
ATOM     18  H   UNL     1      45.477 -20.558 -34.333  0.00  0.00    +0.000 HD
ENDBRANCH   7  17
TORSDOF 3
ENDMDL
