REMARK  Name = cpd237.pdb
REMARK  5 active torsions:
REMARK  status: ('A' for Active; 'I' for Inactive)
REMARK    1  A    between atoms: C_1  and  N_2
REMARK    2  A    between atoms: N_2  and  C_3
REMARK    3  A    between atoms: C_7  and  O_8
REMARK    4  A    between atoms: C_7  and  C_9
REMARK    5  A    between atoms: C_12  and  C_13
REMARK                            x       y       z     vdW  Elec       q    Type
REMARK                         _______ _______ _______ _____ _____    ______ ____
ROOT
ATOM      1  C   UNL     1       2.249  -0.178   1.476  0.00  0.00    -0.100 C 
ATOM      2  N   UNL     1       1.513  -0.486   0.180  0.00  0.00    +0.381 N 
ATOM      3  C   UNL     1       2.117   0.359  -0.939  0.00  0.00    -0.100 C 
ATOM      4  C   UNL     1       1.661  -1.984  -0.189  0.00  0.00    -0.064 C 
ATOM      5  C   UNL     1       0.511  -2.797   0.414  0.00  0.00    +0.037 C 
ATOM      6  O   UNL     1      -0.776  -2.457  -0.109  0.00  0.00    -0.348 OA
ATOM      7  C   UNL     1      -0.943  -1.085  -0.481  0.00  0.00    +0.179 C 
ATOM      8  C   UNL     1      -0.012  -0.134   0.352  0.00  0.00    -0.029 C 
ENDROOT
BRANCH   7   9
ATOM      9  C   UNL     1      -2.401  -0.672  -0.295  0.00  0.00    +0.009 A 
ATOM     10  C   UNL     1      -3.285  -1.425   0.496  0.00  0.00    -0.052 A 
ATOM     11  C   UNL     1      -4.615  -1.024   0.671  0.00  0.00    -0.044 A 
ATOM     12  C   UNL     1      -5.085   0.140   0.060  0.00  0.00    +0.052 A 
ATOM     13  C   UNL     1      -4.219   0.901  -0.729  0.00  0.00    -0.044 A 
ATOM     14  C   UNL     1      -2.891   0.499  -0.905  0.00  0.00    -0.052 A 
BRANCH  12  15
ATOM     15  C   UNL     1      -6.447   0.552   0.241  0.00  0.00    +0.099 C 
ATOM     16  N   UNL     1      -7.545   0.892   0.392  0.00  0.00    -0.191 NA
ENDBRANCH  12  15
ENDBRANCH   7   9
BRANCH   7  17
ATOM     17  O   UNL     1      -0.604  -0.995  -1.862  0.00  0.00    -0.362 OA
ATOM     18  H   UNL     1      -1.180  -1.583  -2.375  0.00  0.00    +0.000 HD
ENDBRANCH   7  17
TORSDOF 3
