MODEL 1
REMARK VINA RESULT:    -8.082      0.000      0.000
REMARK INTER + INTRA:         -16.776
REMARK INTER:                 -14.225
REMARK INTRA:                  -2.551
REMARK UNBOUND:                -2.551
REMARK  Name = cpd150.pdb
REMARK  13 active torsions:
REMARK  status: ('A' for Active; 'I' for Inactive)
REMARK    1  A    between atoms: C_2  and  C_3
REMARK    2  A    between atoms: C_3  and  S_4
REMARK    3  A    between atoms: S_4  and  C_5
REMARK    4  A    between atoms: C_5  and  C_6
REMARK    5  A    between atoms: C_6  and  N_7
REMARK    6  A    between atoms: C_6  and  C_30
REMARK    7  A    between atoms: C_8  and  C_10
REMARK    8  A    between atoms: C_10  and  C_11
REMARK    9  A    between atoms: C_11  and  C_12
REMARK   10  A    between atoms: C_12  and  C_13
REMARK   11  A    between atoms: C_13  and  C_14
REMARK   12  A    between atoms: C_14  and  N_15
REMARK   13  A    between atoms: N_15  and  C_16
REMARK                            x       y       z     vdW  Elec       q    Type
REMARK                         _______ _______ _______ _____ _____    ______ ____
ROOT
ATOM      1  N   UNL A   1      31.398 -35.058 -30.728  0.00  0.00    -0.303 N 
ATOM      2  C   UNL A   1      31.033 -33.800 -31.163  0.00  0.00    +0.214 C 
ATOM      3  O   UNL A   1      29.892 -33.505 -31.500  0.00  0.00    -0.276 OA
ATOM      4  H   UNL A   1      32.321 -35.213 -30.421  0.00  0.00    +0.000 HD
ENDROOT
BRANCH   1   5
ATOM      5  C   UNL A   1      30.440 -36.168 -30.715  0.00  0.00    +0.109 C 
BRANCH   5   6
ATOM      6  C   UNL A   1      30.246 -36.630 -29.241  0.00  0.00    +0.240 C 
ATOM      7  O   UNL A   1      29.341 -37.419 -28.961  0.00  0.00    -0.273 OA
ATOM      8  N   UNL A   1      31.242 -36.227 -28.379  0.00  0.00    -0.263 N 
ATOM      9  C   UNL A   1      31.335 -36.506 -27.038  0.00  0.00    +0.165 A 
ATOM     10  N   UNL A   1      32.409 -36.165 -26.369  0.00  0.00    -0.225 NA
ATOM     11  C   UNL A   1      32.269 -36.545 -25.042  0.00  0.00    +0.080 A 
ATOM     12  C   UNL A   1      33.224 -36.363 -24.022  0.00  0.00    -0.035 A 
ATOM     13  C   UNL A   1      32.944 -36.799 -22.722  0.00  0.00    -0.060 A 
ATOM     14  C   UNL A   1      31.728 -37.408 -22.428  0.00  0.00    -0.061 A 
ATOM     15  C   UNL A   1      30.764 -37.599 -23.423  0.00  0.00    -0.046 A 
ATOM     16  C   UNL A   1      31.057 -37.162 -24.725  0.00  0.00    +0.041 A 
ATOM     17  S   UNL A   1      30.097 -37.256 -26.148  0.00  0.00    -0.052 S 
ATOM     18  H   UNL A   1      31.964 -35.681 -28.766  0.00  0.00    +0.000 HD
ENDBRANCH   5   6
BRANCH   5  19
ATOM     19  C   UNL A   1      30.742 -37.301 -31.716  0.00  0.00    +0.022 C 
BRANCH  19  20
ATOM     20  S   UNL A   1      31.938 -38.588 -31.168  0.00  0.00    -0.146 S 
BRANCH  20  21
ATOM     21  C   UNL A   1      33.513 -37.755 -31.522  0.00  0.00    +0.055 C 
BRANCH  21  23
ATOM     22  C   UNL A   1      35.555 -39.468 -31.382  0.00  0.00    -0.118 C 
ATOM     23  C   UNL A   1      34.637 -38.695 -31.441  0.00  0.00    -0.095 C 
ENDBRANCH  21  23
ENDBRANCH  20  21
ENDBRANCH  19  20
ENDBRANCH   5  19
ENDBRANCH   1   5
BRANCH   2  24
ATOM     24  C   UNL A   1      32.181 -32.811 -31.233  0.00  0.00    +0.024 C 
BRANCH  24  25
ATOM     25  C   UNL A   1      32.809 -32.557 -29.862  0.00  0.00    -0.045 C 
BRANCH  25  26
ATOM     26  C   UNL A   1      34.280 -32.970 -29.782  0.00  0.00    -0.051 C 
BRANCH  26  27
ATOM     27  C   UNL A   1      34.944 -33.108 -31.152  0.00  0.00    -0.037 C 
BRANCH  27  28
ATOM     28  C   UNL A   1      36.408 -33.534 -31.014  0.00  0.00    +0.009 C 
BRANCH  28  29
ATOM     29  N   UNL A   1      36.588 -34.837 -31.668  0.00  0.00    -0.343 N 
ATOM     30  H   UNL A   1      36.183 -35.084 -32.531  0.00  0.00    +0.000 HD
BRANCH  29  31
ATOM     31  C   UNL A   1      37.423 -35.698 -30.895  0.00  0.00    +0.041 A 
ATOM     32  C   UNL A   1      38.710 -35.997 -31.383  0.00  0.00    -0.005 A 
ATOM     33  C   UNL A   1      39.502 -36.866 -30.633  0.00  0.00    +0.047 A 
ATOM     34  N   UNL A   1      39.072 -37.466 -29.497  0.00  0.00    -0.251 NA
ATOM     35  C   UNL A   1      37.839 -37.197 -29.046  0.00  0.00    +0.073 A 
ATOM     36  C   UNL A   1      37.428 -37.825 -27.877  0.00  0.00    -0.036 A 
ATOM     37  C   UNL A   1      36.163 -37.612 -27.328  0.00  0.00    -0.060 A 
ATOM     38  C   UNL A   1      35.280 -36.750 -27.959  0.00  0.00    -0.061 A 
ATOM     39  C   UNL A   1      35.671 -36.107 -29.134  0.00  0.00    -0.051 A 
ATOM     40  C   UNL A   1      36.955 -36.317 -29.702  0.00  0.00    +0.021 A 
ATOM     41  C   UNL A   1      40.893 -37.247 -31.070  0.00  0.00    -0.010 C 
ATOM     42  C   UNL A   1      41.511 -36.250 -32.045  0.00  0.00    -0.047 C 
ATOM     43  C   UNL A   1      40.529 -35.950 -33.167  0.00  0.00    -0.049 C 
ATOM     44  C   UNL A   1      39.260 -35.308 -32.611  0.00  0.00    -0.024 C 
ENDBRANCH  29  31
ENDBRANCH  28  29
ENDBRANCH  27  28
ENDBRANCH  26  27
ENDBRANCH  25  26
ENDBRANCH  24  25
ENDBRANCH   2  24
TORSDOF 13
ENDMDL
MODEL 2
REMARK VINA RESULT:    -7.459      0.732      3.012
REMARK INTER + INTRA:         -15.679
REMARK INTER:                 -13.661
REMARK INTRA:                  -2.018
REMARK UNBOUND:                -2.551
REMARK  Name = cpd150.pdb
REMARK  13 active torsions:
REMARK  status: ('A' for Active; 'I' for Inactive)
REMARK    1  A    between atoms: C_2  and  C_3
REMARK    2  A    between atoms: C_3  and  S_4
REMARK    3  A    between atoms: S_4  and  C_5
REMARK    4  A    between atoms: C_5  and  C_6
REMARK    5  A    between atoms: C_6  and  N_7
REMARK    6  A    between atoms: C_6  and  C_30
REMARK    7  A    between atoms: C_8  and  C_10
REMARK    8  A    between atoms: C_10  and  C_11
REMARK    9  A    between atoms: C_11  and  C_12
REMARK   10  A    between atoms: C_12  and  C_13
REMARK   11  A    between atoms: C_13  and  C_14
REMARK   12  A    between atoms: C_14  and  N_15
REMARK   13  A    between atoms: N_15  and  C_16
REMARK                            x       y       z     vdW  Elec       q    Type
REMARK                         _______ _______ _______ _____ _____    ______ ____
ROOT
ATOM      1  N   UNL A   1      31.139 -34.909 -30.761  0.00  0.00    -0.303 N 
ATOM      2  C   UNL A   1      30.886 -33.622 -31.191  0.00  0.00    +0.214 C 
ATOM      3  O   UNL A   1      29.768 -33.214 -31.482  0.00  0.00    -0.276 OA
ATOM      4  H   UNL A   1      32.054 -35.157 -30.493  0.00  0.00    +0.000 HD
ENDROOT
BRANCH   1   5
ATOM      5  C   UNL A   1      30.075 -35.916 -30.696  0.00  0.00    +0.109 C 
BRANCH   5   6
ATOM      6  C   UNL A   1      30.083 -36.547 -29.273  0.00  0.00    +0.240 C 
ATOM      7  O   UNL A   1      29.442 -37.576 -29.055  0.00  0.00    -0.273 OA
ATOM      8  N   UNL A   1      30.971 -35.965 -28.395  0.00  0.00    -0.263 N 
ATOM      9  C   UNL A   1      31.200 -36.330 -27.090  0.00  0.00    +0.165 A 
ATOM     10  N   UNL A   1      32.170 -35.768 -26.412  0.00  0.00    -0.225 NA
ATOM     11  C   UNL A   1      32.202 -36.292 -25.128  0.00  0.00    +0.080 A 
ATOM     12  C   UNL A   1      33.118 -35.948 -24.114  0.00  0.00    -0.035 A 
ATOM     13  C   UNL A   1      33.029 -36.562 -22.859  0.00  0.00    -0.060 A 
ATOM     14  C   UNL A   1      32.040 -37.507 -22.605  0.00  0.00    -0.061 A 
ATOM     15  C   UNL A   1      31.119 -37.864 -23.594  0.00  0.00    -0.046 A 
ATOM     16  C   UNL A   1      31.220 -37.246 -24.850  0.00  0.00    +0.041 A 
ATOM     17  S   UNL A   1      30.256 -37.470 -26.257  0.00  0.00    -0.052 S 
ATOM     18  H   UNL A   1      31.498 -35.207 -28.738  0.00  0.00    +0.000 HD
ENDBRANCH   5   6
BRANCH   5  19
ATOM     19  C   UNL A   1      30.066 -36.931 -31.856  0.00  0.00    +0.022 C 
BRANCH  19  20
ATOM     20  S   UNL A   1      31.280 -38.310 -31.754  0.00  0.00    -0.146 S 
BRANCH  20  21
ATOM     21  C   UNL A   1      32.829 -37.379 -31.565  0.00  0.00    +0.055 C 
BRANCH  21  23
ATOM     22  C   UNL A   1      33.317 -35.887 -33.723  0.00  0.00    -0.118 C 
ATOM     23  C   UNL A   1      33.101 -36.561 -32.754  0.00  0.00    -0.095 C 
ENDBRANCH  21  23
ENDBRANCH  20  21
ENDBRANCH  19  20
ENDBRANCH   5  19
ENDBRANCH   1   5
BRANCH   2  24
ATOM     24  C   UNL A   1      32.125 -32.757 -31.321  0.00  0.00    +0.024 C 
BRANCH  24  25
ATOM     25  C   UNL A   1      32.754 -32.443 -29.962  0.00  0.00    -0.045 C 
BRANCH  25  26
ATOM     26  C   UNL A   1      34.206 -32.909 -29.844  0.00  0.00    -0.051 C 
BRANCH  26  27
ATOM     27  C   UNL A   1      34.899 -33.078 -31.197  0.00  0.00    -0.037 C 
BRANCH  27  28
ATOM     28  C   UNL A   1      36.301 -33.668 -31.028  0.00  0.00    +0.009 C 
BRANCH  28  29
ATOM     29  N   UNL A   1      36.333 -35.002 -31.643  0.00  0.00    -0.343 N 
ATOM     30  H   UNL A   1      35.792 -35.267 -32.422  0.00  0.00    +0.000 HD
BRANCH  29  31
ATOM     31  C   UNL A   1      37.247 -35.866 -30.968  0.00  0.00    +0.041 A 
ATOM     32  C   UNL A   1      36.850 -36.432 -29.741  0.00  0.00    -0.005 A 
ATOM     33  C   UNL A   1      37.766 -37.249 -29.078  0.00  0.00    +0.047 A 
ATOM     34  N   UNL A   1      39.022 -37.475 -29.533  0.00  0.00    -0.251 NA
ATOM     35  C   UNL A   1      39.404 -36.919 -30.690  0.00  0.00    +0.073 A 
ATOM     36  C   UNL A   1      40.696 -37.172 -31.134  0.00  0.00    -0.036 A 
ATOM     37  C   UNL A   1      41.188 -36.637 -32.325  0.00  0.00    -0.060 A 
ATOM     38  C   UNL A   1      40.374 -35.826 -33.098  0.00  0.00    -0.061 A 
ATOM     39  C   UNL A   1      39.072 -35.558 -32.674  0.00  0.00    -0.051 A 
ATOM     40  C   UNL A   1      38.561 -36.096 -31.464  0.00  0.00    +0.021 A 
ATOM     41  C   UNL A   1      37.437 -37.901 -27.759  0.00  0.00    -0.010 C 
ATOM     42  C   UNL A   1      35.938 -38.018 -27.505  0.00  0.00    -0.047 C 
ATOM     43  C   UNL A   1      35.265 -36.679 -27.761  0.00  0.00    -0.049 C 
ATOM     44  C   UNL A   1      35.442 -36.260 -29.219  0.00  0.00    -0.024 C 
ENDBRANCH  29  31
ENDBRANCH  28  29
ENDBRANCH  27  28
ENDBRANCH  26  27
ENDBRANCH  25  26
ENDBRANCH  24  25
ENDBRANCH   2  24
TORSDOF 13
ENDMDL
MODEL 3
REMARK VINA RESULT:    -7.176      2.569      7.102
REMARK INTER + INTRA:         -15.181
REMARK INTER:                 -12.198
REMARK INTRA:                  -2.983
REMARK UNBOUND:                -2.551
REMARK  Name = cpd150.pdb
REMARK  13 active torsions:
REMARK  status: ('A' for Active; 'I' for Inactive)
REMARK    1  A    between atoms: C_2  and  C_3
REMARK    2  A    between atoms: C_3  and  S_4
REMARK    3  A    between atoms: S_4  and  C_5
REMARK    4  A    between atoms: C_5  and  C_6
REMARK    5  A    between atoms: C_6  and  N_7
REMARK    6  A    between atoms: C_6  and  C_30
REMARK    7  A    between atoms: C_8  and  C_10
REMARK    8  A    between atoms: C_10  and  C_11
REMARK    9  A    between atoms: C_11  and  C_12
REMARK   10  A    between atoms: C_12  and  C_13
REMARK   11  A    between atoms: C_13  and  C_14
REMARK   12  A    between atoms: C_14  and  N_15
REMARK   13  A    between atoms: N_15  and  C_16
REMARK                            x       y       z     vdW  Elec       q    Type
REMARK                         _______ _______ _______ _____ _____    ______ ____
ROOT
ATOM      1  N   UNL A   1      33.588 -37.311 -28.188  0.00  0.00    -0.303 N 
ATOM      2  C   UNL A   1      32.718 -36.438 -27.567  0.00  0.00    +0.214 C 
ATOM      3  O   UNL A   1      32.577 -36.374 -26.351  0.00  0.00    -0.276 OA
ATOM      4  H   UNL A   1      33.691 -37.274 -29.167  0.00  0.00    +0.000 HD
ENDROOT
BRANCH   1   5
ATOM      5  C   UNL A   1      34.362 -38.293 -27.421  0.00  0.00    +0.109 C 
BRANCH   5   6
ATOM      6  C   UNL A   1      35.817 -38.311 -27.975  0.00  0.00    +0.240 C 
ATOM      7  O   UNL A   1      36.557 -39.262 -27.721  0.00  0.00    -0.273 OA
ATOM      8  N   UNL A   1      36.102 -37.300 -28.867  0.00  0.00    -0.263 N 
ATOM      9  C   UNL A   1      37.292 -37.087 -29.519  0.00  0.00    +0.165 A 
ATOM     10  N   UNL A   1      37.379 -36.160 -30.441  0.00  0.00    -0.225 NA
ATOM     11  C   UNL A   1      38.668 -36.131 -30.949  0.00  0.00    +0.080 A 
ATOM     12  C   UNL A   1      39.140 -35.278 -31.968  0.00  0.00    -0.035 A 
ATOM     13  C   UNL A   1      40.474 -35.361 -32.383  0.00  0.00    -0.060 A 
ATOM     14  C   UNL A   1      41.340 -36.277 -31.793  0.00  0.00    -0.061 A 
ATOM     15  C   UNL A   1      40.897 -37.133 -30.780  0.00  0.00    -0.046 A 
ATOM     16  C   UNL A   1      39.555 -37.044 -30.376  0.00  0.00    +0.041 A 
ATOM     17  S   UNL A   1      38.716 -37.948 -29.177  0.00  0.00    -0.052 S 
ATOM     18  H   UNL A   1      35.376 -36.663 -29.056  0.00  0.00    +0.000 HD
ENDBRANCH   5   6
BRANCH   5  19
ATOM     19  C   UNL A   1      33.702 -39.680 -27.285  0.00  0.00    +0.022 C 
BRANCH  19  20
ATOM     20  S   UNL A   1      33.060 -40.442 -28.832  0.00  0.00    -0.146 S 
BRANCH  20  21
ATOM     21  C   UNL A   1      34.436 -41.551 -29.255  0.00  0.00    +0.055 C 
BRANCH  21  23
ATOM     22  C   UNL A   1      35.679 -40.725 -31.467  0.00  0.00    -0.118 C 
ATOM     23  C   UNL A   1      35.124 -41.099 -30.470  0.00  0.00    -0.095 C 
ENDBRANCH  21  23
ENDBRANCH  20  21
ENDBRANCH  19  20
ENDBRANCH   5  19
ENDBRANCH   1   5
BRANCH   2  24
ATOM     24  C   UNL A   1      31.906 -35.587 -28.523  0.00  0.00    +0.024 C 
BRANCH  24  25
ATOM     25  C   UNL A   1      31.979 -34.099 -28.175  0.00  0.00    -0.045 C 
BRANCH  25  26
ATOM     26  C   UNL A   1      30.828 -33.280 -28.764  0.00  0.00    -0.051 C 
BRANCH  26  27
ATOM     27  C   UNL A   1      30.128 -33.976 -29.932  0.00  0.00    -0.037 C 
BRANCH  27  28
ATOM     28  C   UNL A   1      30.084 -33.071 -31.165  0.00  0.00    +0.009 C 
BRANCH  28  29
ATOM     29  N   UNL A   1      30.547 -33.836 -32.331  0.00  0.00    -0.343 N 
ATOM     30  H   UNL A   1      30.080 -33.863 -33.198  0.00  0.00    +0.000 HD
BRANCH  29  31
ATOM     31  C   UNL A   1      31.760 -34.534 -32.050  0.00  0.00    +0.041 A 
ATOM     32  C   UNL A   1      31.733 -35.942 -32.039  0.00  0.00    -0.005 A 
ATOM     33  C   UNL A   1      32.919 -36.610 -31.730  0.00  0.00    +0.047 A 
ATOM     34  N   UNL A   1      34.064 -35.970 -31.396  0.00  0.00    -0.251 NA
ATOM     35  C   UNL A   1      34.081 -34.630 -31.387  0.00  0.00    +0.073 A 
ATOM     36  C   UNL A   1      35.272 -34.001 -31.044  0.00  0.00    -0.036 A 
ATOM     37  C   UNL A   1      35.390 -32.612 -31.003  0.00  0.00    -0.060 A 
ATOM     38  C   UNL A   1      34.294 -31.823 -31.313  0.00  0.00    -0.061 A 
ATOM     39  C   UNL A   1      33.088 -32.431 -31.661  0.00  0.00    -0.051 A 
ATOM     40  C   UNL A   1      32.956 -33.844 -31.704  0.00  0.00    +0.021 A 
ATOM     41  C   UNL A   1      32.993 -38.115 -31.692  0.00  0.00    -0.010 C 
ATOM     42  C   UNL A   1      31.884 -38.792 -32.491  0.00  0.00    -0.047 C 
ATOM     43  C   UNL A   1      30.538 -38.192 -32.116  0.00  0.00    -0.049 C 
ATOM     44  C   UNL A   1      30.499 -36.704 -32.463  0.00  0.00    -0.024 C 
ENDBRANCH  29  31
ENDBRANCH  28  29
ENDBRANCH  27  28
ENDBRANCH  26  27
ENDBRANCH  25  26
ENDBRANCH  24  25
ENDBRANCH   2  24
TORSDOF 13
ENDMDL
MODEL 4
REMARK VINA RESULT:    -6.991     17.602     21.827
REMARK INTER + INTRA:         -14.855
REMARK INTER:                 -12.374
REMARK INTRA:                  -2.481
REMARK UNBOUND:                -2.551
REMARK  Name = cpd150.pdb
REMARK  13 active torsions:
REMARK  status: ('A' for Active; 'I' for Inactive)
REMARK    1  A    between atoms: C_2  and  C_3
REMARK    2  A    between atoms: C_3  and  S_4
REMARK    3  A    between atoms: S_4  and  C_5
REMARK    4  A    between atoms: C_5  and  C_6
REMARK    5  A    between atoms: C_6  and  N_7
REMARK    6  A    between atoms: C_6  and  C_30
REMARK    7  A    between atoms: C_8  and  C_10
REMARK    8  A    between atoms: C_10  and  C_11
REMARK    9  A    between atoms: C_11  and  C_12
REMARK   10  A    between atoms: C_12  and  C_13
REMARK   11  A    between atoms: C_13  and  C_14
REMARK   12  A    between atoms: C_14  and  N_15
REMARK   13  A    between atoms: N_15  and  C_16
REMARK                            x       y       z     vdW  Elec       q    Type
REMARK                         _______ _______ _______ _____ _____    ______ ____
ROOT
ATOM      1  N   UNL A   1      43.177 -17.430 -37.855  0.00  0.00    -0.303 N 
ATOM      2  C   UNL A   1      41.800 -17.341 -37.879  0.00  0.00    +0.214 C 
ATOM      3  O   UNL A   1      41.167 -16.883 -38.823  0.00  0.00    -0.276 OA
ATOM      4  H   UNL A   1      43.620 -17.857 -37.086  0.00  0.00    +0.000 HD
ENDROOT
BRANCH   1   5
ATOM      5  C   UNL A   1      43.995 -16.900 -38.952  0.00  0.00    +0.109 C 
BRANCH   5   6
ATOM      6  C   UNL A   1      44.278 -18.057 -39.955  0.00  0.00    +0.240 C 
ATOM      7  O   UNL A   1      43.722 -18.063 -41.055  0.00  0.00    -0.273 OA
ATOM      8  N   UNL A   1      45.286 -18.913 -39.570  0.00  0.00    -0.263 N 
ATOM      9  C   UNL A   1      45.755 -20.001 -40.266  0.00  0.00    +0.165 A 
ATOM     10  N   UNL A   1      46.809 -20.650 -39.838  0.00  0.00    -0.225 NA
ATOM     11  C   UNL A   1      47.086 -21.702 -40.698  0.00  0.00    +0.080 A 
ATOM     12  C   UNL A   1      48.155 -22.614 -40.577  0.00  0.00    -0.035 A 
ATOM     13  C   UNL A   1      48.311 -23.632 -41.524  0.00  0.00    -0.060 A 
ATOM     14  C   UNL A   1      47.417 -23.753 -42.583  0.00  0.00    -0.061 A 
ATOM     15  C   UNL A   1      46.348 -22.863 -42.724  0.00  0.00    -0.046 A 
ATOM     16  C   UNL A   1      46.204 -21.842 -41.771  0.00  0.00    +0.041 A 
ATOM     17  S   UNL A   1      45.014 -20.604 -41.671  0.00  0.00    -0.052 S 
ATOM     18  H   UNL A   1      45.716 -18.727 -38.705  0.00  0.00    +0.000 HD
ENDBRANCH   5   6
BRANCH   5  19
ATOM     19  C   UNL A   1      45.239 -16.104 -38.511  0.00  0.00    +0.022 C 
BRANCH  19  20
ATOM     20  S   UNL A   1      45.793 -16.338 -36.771  0.00  0.00    -0.146 S 
BRANCH  20  21
ATOM     21  C   UNL A   1      47.215 -17.441 -37.018  0.00  0.00    +0.055 C 
BRANCH  21  23
ATOM     22  C   UNL A   1      48.241 -18.209 -34.677  0.00  0.00    -0.118 C 
ATOM     23  C   UNL A   1      47.784 -17.863 -35.732  0.00  0.00    -0.095 C 
ENDBRANCH  21  23
ENDBRANCH  20  21
ENDBRANCH  19  20
ENDBRANCH   5  19
ENDBRANCH   1   5
BRANCH   2  24
ATOM     24  C   UNL A   1      41.126 -17.819 -36.606  0.00  0.00    +0.024 C 
BRANCH  24  25
ATOM     25  C   UNL A   1      39.868 -18.640 -36.894  0.00  0.00    -0.045 C 
BRANCH  25  26
ATOM     26  C   UNL A   1      40.115 -19.816 -37.842  0.00  0.00    -0.051 C 
BRANCH  26  27
ATOM     27  C   UNL A   1      41.334 -20.656 -37.458  0.00  0.00    -0.037 C 
BRANCH  27  28
ATOM     28  C   UNL A   1      40.910 -22.009 -36.882  0.00  0.00    +0.009 C 
BRANCH  28  29
ATOM     29  N   UNL A   1      41.668 -22.259 -35.649  0.00  0.00    -0.343 N 
ATOM     30  H   UNL A   1      42.281 -23.019 -35.518  0.00  0.00    +0.000 HD
BRANCH  29  31
ATOM     31  C   UNL A   1      41.405 -21.260 -34.663  0.00  0.00    +0.041 A 
ATOM     32  C   UNL A   1      42.462 -20.418 -34.265  0.00  0.00    -0.005 A 
ATOM     33  C   UNL A   1      42.197 -19.469 -33.278  0.00  0.00    +0.047 A 
ATOM     34  N   UNL A   1      40.997 -19.360 -32.658  0.00  0.00    -0.251 NA
ATOM     35  C   UNL A   1      39.999 -20.176 -33.024  0.00  0.00    +0.073 A 
ATOM     36  C   UNL A   1      38.780 -20.037 -32.373  0.00  0.00    -0.036 A 
ATOM     37  C   UNL A   1      37.681 -20.841 -32.680  0.00  0.00    -0.060 A 
ATOM     38  C   UNL A   1      37.797 -21.811 -33.662  0.00  0.00    -0.061 A 
ATOM     39  C   UNL A   1      39.012 -21.969 -34.330  0.00  0.00    -0.051 A 
ATOM     40  C   UNL A   1      40.136 -21.158 -34.025  0.00  0.00    +0.021 A 
ATOM     41  C   UNL A   1      43.260 -18.521 -32.785  0.00  0.00    -0.010 C 
ATOM     42  C   UNL A   1      44.411 -18.344 -33.769  0.00  0.00    -0.047 C 
ATOM     43  C   UNL A   1      44.908 -19.705 -34.232  0.00  0.00    -0.049 C 
ATOM     44  C   UNL A   1      43.800 -20.459 -34.966  0.00  0.00    -0.024 C 
ENDBRANCH  29  31
ENDBRANCH  28  29
ENDBRANCH  27  28
ENDBRANCH  26  27
ENDBRANCH  25  26
ENDBRANCH  24  25
ENDBRANCH   2  24
TORSDOF 13
ENDMDL
MODEL 5
REMARK VINA RESULT:    -6.924     17.387     21.254
REMARK INTER + INTRA:         -14.736
REMARK INTER:                 -10.764
REMARK INTRA:                  -3.972
REMARK UNBOUND:                -2.551
REMARK  Name = cpd150.pdb
REMARK  13 active torsions:
REMARK  status: ('A' for Active; 'I' for Inactive)
REMARK    1  A    between atoms: C_2  and  C_3
REMARK    2  A    between atoms: C_3  and  S_4
REMARK    3  A    between atoms: S_4  and  C_5
REMARK    4  A    between atoms: C_5  and  C_6
REMARK    5  A    between atoms: C_6  and  N_7
REMARK    6  A    between atoms: C_6  and  C_30
REMARK    7  A    between atoms: C_8  and  C_10
REMARK    8  A    between atoms: C_10  and  C_11
REMARK    9  A    between atoms: C_11  and  C_12
REMARK   10  A    between atoms: C_12  and  C_13
REMARK   11  A    between atoms: C_13  and  C_14
REMARK   12  A    between atoms: C_14  and  N_15
REMARK   13  A    between atoms: N_15  and  C_16
REMARK                            x       y       z     vdW  Elec       q    Type
REMARK                         _______ _______ _______ _____ _____    ______ ____
ROOT
ATOM      1  N   UNL A   1      45.601 -19.667 -39.888  0.00  0.00    -0.303 N 
ATOM      2  C   UNL A   1      45.594 -20.953 -40.388  0.00  0.00    +0.214 C 
ATOM      3  O   UNL A   1      46.240 -21.873 -39.898  0.00  0.00    -0.276 OA
ATOM      4  H   UNL A   1      45.017 -18.987 -40.298  0.00  0.00    +0.000 HD
ENDROOT
BRANCH   1   5
ATOM      5  C   UNL A   1      46.459 -19.290 -38.760  0.00  0.00    +0.109 C 
BRANCH   5   6
ATOM      6  C   UNL A   1      45.682 -19.567 -37.440  0.00  0.00    +0.240 C 
ATOM      7  O   UNL A   1      46.221 -20.207 -36.534  0.00  0.00    -0.273 OA
ATOM      8  N   UNL A   1      44.477 -18.908 -37.336  0.00  0.00    -0.263 N 
ATOM      9  C   UNL A   1      43.600 -18.953 -36.280  0.00  0.00    +0.165 A 
ATOM     10  N   UNL A   1      42.550 -18.170 -36.264  0.00  0.00    -0.225 NA
ATOM     11  C   UNL A   1      41.818 -18.398 -35.108  0.00  0.00    +0.080 A 
ATOM     12  C   UNL A   1      40.634 -17.732 -34.730  0.00  0.00    -0.035 A 
ATOM     13  C   UNL A   1      40.001 -18.069 -33.529  0.00  0.00    -0.060 A 
ATOM     14  C   UNL A   1      40.530 -19.059 -32.706  0.00  0.00    -0.061 A 
ATOM     15  C   UNL A   1      41.702 -19.734 -33.059  0.00  0.00    -0.046 A 
ATOM     16  C   UNL A   1      42.331 -19.385 -34.265  0.00  0.00    +0.041 A 
ATOM     17  S   UNL A   1      43.769 -20.017 -34.966  0.00  0.00    -0.052 S 
ATOM     18  H   UNL A   1      44.216 -18.344 -38.100  0.00  0.00    +0.000 HD
ENDBRANCH   5   6
BRANCH   5  19
ATOM     19  C   UNL A   1      47.089 -17.887 -38.860  0.00  0.00    +0.022 C 
BRANCH  19  20
ATOM     20  S   UNL A   1      46.635 -16.883 -40.334  0.00  0.00    -0.146 S 
BRANCH  20  21
ATOM     21  C   UNL A   1      45.087 -16.125 -39.760  0.00  0.00    +0.055 C 
BRANCH  21  23
ATOM     22  C   UNL A   1      43.267 -16.060 -41.710  0.00  0.00    -0.118 C 
ATOM     23  C   UNL A   1      44.085 -16.095 -40.832  0.00  0.00    -0.095 C 
ENDBRANCH  21  23
ENDBRANCH  20  21
ENDBRANCH  19  20
ENDBRANCH   5  19
ENDBRANCH   1   5
BRANCH   2  24
ATOM     24  C   UNL A   1      44.750 -21.130 -41.635  0.00  0.00    +0.024 C 
BRANCH  24  25
ATOM     25  C   UNL A   1      43.254 -20.999 -41.342  0.00  0.00    -0.045 C 
BRANCH  25  26
ATOM     26  C   UNL A   1      42.809 -21.772 -40.099  0.00  0.00    -0.051 C 
BRANCH  26  27
ATOM     27  C   UNL A   1      41.307 -22.056 -40.069  0.00  0.00    -0.037 C 
BRANCH  27  28
ATOM     28  C   UNL A   1      40.842 -22.410 -38.654  0.00  0.00    +0.009 C 
BRANCH  28  29
ATOM     29  N   UNL A   1      41.198 -21.311 -37.748  0.00  0.00    -0.343 N 
ATOM     30  H   UNL A   1      42.117 -20.991 -37.597  0.00  0.00    +0.000 HD
BRANCH  29  31
ATOM     31  C   UNL A   1      40.043 -20.765 -37.111  0.00  0.00    +0.041 A 
ATOM     32  C   UNL A   1      39.594 -21.359 -35.915  0.00  0.00    -0.005 A 
ATOM     33  C   UNL A   1      38.446 -20.834 -35.322  0.00  0.00    +0.047 A 
ATOM     34  N   UNL A   1      37.725 -19.825 -35.868  0.00  0.00    -0.251 NA
ATOM     35  C   UNL A   1      38.142 -19.276 -37.017  0.00  0.00    +0.073 A 
ATOM     36  C   UNL A   1      37.384 -18.241 -37.550  0.00  0.00    -0.036 A 
ATOM     37  C   UNL A   1      37.734 -17.605 -38.742  0.00  0.00    -0.060 A 
ATOM     38  C   UNL A   1      38.869 -18.010 -39.425  0.00  0.00    -0.061 A 
ATOM     39  C   UNL A   1      39.646 -19.047 -38.909  0.00  0.00    -0.051 A 
ATOM     40  C   UNL A   1      39.300 -19.701 -37.698  0.00  0.00    +0.021 A 
ATOM     41  C   UNL A   1      37.887 -21.400 -34.042  0.00  0.00    -0.010 C 
ATOM     42  C   UNL A   1      38.915 -22.179 -33.230  0.00  0.00    -0.047 C 
ATOM     43  C   UNL A   1      39.635 -23.174 -34.127  0.00  0.00    -0.049 C 
ATOM     44  C   UNL A   1      40.394 -22.445 -35.234  0.00  0.00    -0.024 C 
ENDBRANCH  29  31
ENDBRANCH  28  29
ENDBRANCH  27  28
ENDBRANCH  26  27
ENDBRANCH  25  26
ENDBRANCH  24  25
ENDBRANCH   2  24
TORSDOF 13
ENDMDL
MODEL 6
REMARK VINA RESULT:    -6.912     16.926     21.290
REMARK INTER + INTRA:         -14.716
REMARK INTER:                 -11.847
REMARK INTRA:                  -2.868
REMARK UNBOUND:                -2.551
REMARK  Name = cpd150.pdb
REMARK  13 active torsions:
REMARK  status: ('A' for Active; 'I' for Inactive)
REMARK    1  A    between atoms: C_2  and  C_3
REMARK    2  A    between atoms: C_3  and  S_4
REMARK    3  A    between atoms: S_4  and  C_5
REMARK    4  A    between atoms: C_5  and  C_6
REMARK    5  A    between atoms: C_6  and  N_7
REMARK    6  A    between atoms: C_6  and  C_30
REMARK    7  A    between atoms: C_8  and  C_10
REMARK    8  A    between atoms: C_10  and  C_11
REMARK    9  A    between atoms: C_11  and  C_12
REMARK   10  A    between atoms: C_12  and  C_13
REMARK   11  A    between atoms: C_13  and  C_14
REMARK   12  A    between atoms: C_14  and  N_15
REMARK   13  A    between atoms: N_15  and  C_16
REMARK                            x       y       z     vdW  Elec       q    Type
REMARK                         _______ _______ _______ _____ _____    ______ ____
ROOT
ATOM      1  N   UNL A   1      43.131 -18.789 -34.997  0.00  0.00    -0.303 N 
ATOM      2  C   UNL A   1      41.869 -18.567 -34.484  0.00  0.00    +0.214 C 
ATOM      3  O   UNL A   1      41.138 -17.656 -34.855  0.00  0.00    -0.276 OA
ATOM      4  H   UNL A   1      43.645 -19.572 -34.692  0.00  0.00    +0.000 HD
ENDROOT
BRANCH   1   5
ATOM      5  C   UNL A   1      43.723 -17.883 -35.986  0.00  0.00    +0.109 C 
BRANCH   5   6
ATOM      6  C   UNL A   1      43.882 -18.657 -37.327  0.00  0.00    +0.240 C 
ATOM      7  O   UNL A   1      43.150 -18.387 -38.281  0.00  0.00    -0.273 OA
ATOM      8  N   UNL A   1      44.976 -19.493 -37.380  0.00  0.00    -0.263 N 
ATOM      9  C   UNL A   1      45.366 -20.276 -38.438  0.00  0.00    +0.165 A 
ATOM     10  N   UNL A   1      46.504 -20.923 -38.392  0.00  0.00    -0.225 NA
ATOM     11  C   UNL A   1      46.676 -21.642 -39.565  0.00  0.00    +0.080 A 
ATOM     12  C   UNL A   1      47.788 -22.446 -39.891  0.00  0.00    -0.035 A 
ATOM     13  C   UNL A   1      47.825 -23.117 -41.118  0.00  0.00    -0.060 A 
ATOM     14  C   UNL A   1      46.771 -23.000 -42.019  0.00  0.00    -0.061 A 
ATOM     15  C   UNL A   1      45.657 -22.209 -41.719  0.00  0.00    -0.046 A 
ATOM     16  C   UNL A   1      45.633 -21.537 -40.487  0.00  0.00    +0.041 A 
ATOM     17  S   UNL A   1      44.426 -20.499 -39.836  0.00  0.00    -0.052 S 
ATOM     18  H   UNL A   1      45.537 -19.534 -36.572  0.00  0.00    +0.000 HD
ENDBRANCH   5   6
BRANCH   5  19
ATOM     19  C   UNL A   1      44.988 -17.139 -35.513  0.00  0.00    +0.022 C 
BRANCH  19  20
ATOM     20  S   UNL A   1      45.641 -15.830 -36.630  0.00  0.00    -0.146 S 
BRANCH  20  21
ATOM     21  C   UNL A   1      47.146 -16.639 -37.249  0.00  0.00    +0.055 C 
BRANCH  21  23
ATOM     22  C   UNL A   1      47.000 -17.056 -39.881  0.00  0.00    -0.118 C 
ATOM     23  C   UNL A   1      47.062 -16.872 -38.696  0.00  0.00    -0.095 C 
ENDBRANCH  21  23
ENDBRANCH  20  21
ENDBRANCH  19  20
ENDBRANCH   5  19
ENDBRANCH   1   5
BRANCH   2  24
ATOM     24  C   UNL A   1      41.471 -19.526 -33.379  0.00  0.00    +0.024 C 
BRANCH  24  25
ATOM     25  C   UNL A   1      41.703 -20.987 -33.771  0.00  0.00    -0.045 C 
BRANCH  25  26
ATOM     26  C   UNL A   1      41.245 -21.982 -32.703  0.00  0.00    -0.051 C 
BRANCH  26  27
ATOM     27  C   UNL A   1      40.290 -23.048 -33.239  0.00  0.00    -0.037 C 
BRANCH  27  28
ATOM     28  C   UNL A   1      40.281 -23.059 -34.770  0.00  0.00    +0.009 C 
BRANCH  28  29
ATOM     29  N   UNL A   1      38.907 -22.834 -35.239  0.00  0.00    -0.343 N 
ATOM     30  H   UNL A   1      38.213 -23.532 -35.278  0.00  0.00    +0.000 HD
BRANCH  29  31
ATOM     31  C   UNL A   1      38.705 -21.477 -35.632  0.00  0.00    +0.041 A 
ATOM     32  C   UNL A   1      39.236 -21.052 -36.865  0.00  0.00    -0.005 A 
ATOM     33  C   UNL A   1      39.058 -19.714 -37.220  0.00  0.00    +0.047 A 
ATOM     34  N   UNL A   1      38.450 -18.809 -36.416  0.00  0.00    -0.251 NA
ATOM     35  C   UNL A   1      37.965 -19.212 -35.234  0.00  0.00    +0.073 A 
ATOM     36  C   UNL A   1      37.343 -18.261 -34.434  0.00  0.00    -0.036 A 
ATOM     37  C   UNL A   1      36.807 -18.581 -33.185  0.00  0.00    -0.060 A 
ATOM     38  C   UNL A   1      36.892 -19.883 -32.718  0.00  0.00    -0.061 A 
ATOM     39  C   UNL A   1      37.511 -20.854 -33.505  0.00  0.00    -0.051 A 
ATOM     40  C   UNL A   1      38.060 -20.541 -34.775  0.00  0.00    +0.021 A 
ATOM     41  C   UNL A   1      39.589 -19.162 -38.518  0.00  0.00    -0.010 C 
ATOM     42  C   UNL A   1      39.840 -20.237 -39.570  0.00  0.00    -0.047 C 
ATOM     43  C   UNL A   1      40.646 -21.375 -38.963  0.00  0.00    -0.049 C 
ATOM     44  C   UNL A   1      39.869 -22.033 -37.824  0.00  0.00    -0.024 C 
ENDBRANCH  29  31
ENDBRANCH  28  29
ENDBRANCH  27  28
ENDBRANCH  26  27
ENDBRANCH  25  26
ENDBRANCH  24  25
ENDBRANCH   2  24
TORSDOF 13
ENDMDL
MODEL 7
REMARK VINA RESULT:    -6.906     18.778     22.513
REMARK INTER + INTRA:         -14.706
REMARK INTER:                 -11.207
REMARK INTRA:                  -3.499
REMARK UNBOUND:                -2.551
REMARK  Name = cpd150.pdb
REMARK  13 active torsions:
REMARK  status: ('A' for Active; 'I' for Inactive)
REMARK    1  A    between atoms: C_2  and  C_3
REMARK    2  A    between atoms: C_3  and  S_4
REMARK    3  A    between atoms: S_4  and  C_5
REMARK    4  A    between atoms: C_5  and  C_6
REMARK    5  A    between atoms: C_6  and  N_7
REMARK    6  A    between atoms: C_6  and  C_30
REMARK    7  A    between atoms: C_8  and  C_10
REMARK    8  A    between atoms: C_10  and  C_11
REMARK    9  A    between atoms: C_11  and  C_12
REMARK   10  A    between atoms: C_12  and  C_13
REMARK   11  A    between atoms: C_13  and  C_14
REMARK   12  A    between atoms: C_14  and  N_15
REMARK   13  A    between atoms: N_15  and  C_16
REMARK                            x       y       z     vdW  Elec       q    Type
REMARK                         _______ _______ _______ _____ _____    ______ ____
ROOT
ATOM      1  N   UNL A   1      41.512 -20.193 -35.177  0.00  0.00    -0.303 N 
ATOM      2  C   UNL A   1      42.841 -20.534 -35.328  0.00  0.00    +0.214 C 
ATOM      3  O   UNL A   1      43.315 -20.963 -36.374  0.00  0.00    -0.276 OA
ATOM      4  H   UNL A   1      41.208 -19.805 -34.324  0.00  0.00    +0.000 HD
ENDROOT
BRANCH   1   5
ATOM      5  C   UNL A   1      40.544 -20.397 -36.259  0.00  0.00    +0.109 C 
BRANCH   5   6
ATOM      6  C   UNL A   1      40.474 -19.093 -37.106  0.00  0.00    +0.240 C 
ATOM      7  O   UNL A   1      39.595 -18.260 -36.877  0.00  0.00    -0.273 OA
ATOM      8  N   UNL A   1      41.540 -18.908 -37.959  0.00  0.00    -0.263 N 
ATOM      9  C   UNL A   1      41.746 -17.844 -38.803  0.00  0.00    +0.165 A 
ATOM     10  N   UNL A   1      42.872 -17.737 -39.463  0.00  0.00    -0.225 NA
ATOM     11  C   UNL A   1      42.844 -16.593 -40.246  0.00  0.00    +0.080 A 
ATOM     12  C   UNL A   1      43.883 -16.134 -41.082  0.00  0.00    -0.035 A 
ATOM     13  C   UNL A   1      43.713 -14.956 -41.819  0.00  0.00    -0.060 A 
ATOM     14  C   UNL A   1      42.525 -14.237 -41.735  0.00  0.00    -0.061 A 
ATOM     15  C   UNL A   1      41.480 -14.672 -40.914  0.00  0.00    -0.046 A 
ATOM     16  C   UNL A   1      41.663 -15.853 -40.176  0.00  0.00    +0.041 A 
ATOM     17  S   UNL A   1      40.586 -16.636 -39.088  0.00  0.00    -0.052 S 
ATOM     18  H   UNL A   1      42.228 -19.612 -37.964  0.00  0.00    +0.000 HD
ENDBRANCH   5   6
BRANCH   5  19
ATOM     19  C   UNL A   1      39.178 -20.956 -35.814  0.00  0.00    +0.022 C 
BRANCH  19  20
ATOM     20  S   UNL A   1      38.825 -20.928 -34.008  0.00  0.00    -0.146 S 
BRANCH  20  21
ATOM     21  C   UNL A   1      39.172 -22.657 -33.572  0.00  0.00    +0.055 C 
BRANCH  21  23
ATOM     22  C   UNL A   1      41.325 -22.846 -32.006  0.00  0.00    -0.118 C 
ATOM     23  C   UNL A   1      40.358 -22.757 -32.713  0.00  0.00    -0.095 C 
ENDBRANCH  21  23
ENDBRANCH  20  21
ENDBRANCH  19  20
ENDBRANCH   5  19
ENDBRANCH   1   5
BRANCH   2  24
ATOM     24  C   UNL A   1      43.669 -20.379 -34.066  0.00  0.00    +0.024 C 
BRANCH  24  25
ATOM     25  C   UNL A   1      44.129 -18.936 -33.853  0.00  0.00    -0.045 C 
BRANCH  25  26
ATOM     26  C   UNL A   1      45.117 -18.451 -34.917  0.00  0.00    -0.051 C 
BRANCH  26  27
ATOM     27  C   UNL A   1      46.397 -19.285 -34.979  0.00  0.00    -0.037 C 
BRANCH  27  28
ATOM     28  C   UNL A   1      46.681 -19.753 -36.408  0.00  0.00    +0.009 C 
BRANCH  28  29
ATOM     29  N   UNL A   1      45.604 -19.277 -37.286  0.00  0.00    -0.343 N 
ATOM     30  H   UNL A   1      44.657 -19.220 -37.023  0.00  0.00    +0.000 HD
BRANCH  29  31
ATOM     31  C   UNL A   1      46.104 -18.908 -38.572  0.00  0.00    +0.041 A 
ATOM     32  C   UNL A   1      46.187 -19.900 -39.567  0.00  0.00    -0.005 A 
ATOM     33  C   UNL A   1      46.707 -19.532 -40.808  0.00  0.00    +0.047 A 
ATOM     34  N   UNL A   1      47.177 -18.289 -41.074  0.00  0.00    -0.251 NA
ATOM     35  C   UNL A   1      47.116 -17.352 -40.119  0.00  0.00    +0.073 A 
ATOM     36  C   UNL A   1      47.602 -16.087 -40.423  0.00  0.00    -0.036 A 
ATOM     37  C   UNL A   1      47.585 -15.044 -39.496  0.00  0.00    -0.060 A 
ATOM     38  C   UNL A   1      47.071 -15.265 -38.228  0.00  0.00    -0.061 A 
ATOM     39  C   UNL A   1      46.576 -16.528 -37.900  0.00  0.00    -0.051 A 
ATOM     40  C   UNL A   1      46.590 -17.596 -38.835  0.00  0.00    +0.021 A 
ATOM     41  C   UNL A   1      46.837 -20.521 -41.938  0.00  0.00    -0.010 C 
ATOM     42  C   UNL A   1      45.917 -21.727 -41.789  0.00  0.00    -0.047 C 
ATOM     43  C   UNL A   1      46.050 -22.309 -40.390  0.00  0.00    -0.049 C 
ATOM     44  C   UNL A   1      45.622 -21.284 -39.341  0.00  0.00    -0.024 C 
ENDBRANCH  29  31
ENDBRANCH  28  29
ENDBRANCH  27  28
ENDBRANCH  26  27
ENDBRANCH  25  26
ENDBRANCH  24  25
ENDBRANCH   2  24
TORSDOF 13
ENDMDL
MODEL 8
REMARK VINA RESULT:    -6.867     17.022     21.510
REMARK INTER + INTRA:         -14.636
REMARK INTER:                 -12.261
REMARK INTRA:                  -2.375
REMARK UNBOUND:                -2.551
REMARK  Name = cpd150.pdb
REMARK  13 active torsions:
REMARK  status: ('A' for Active; 'I' for Inactive)
REMARK    1  A    between atoms: C_2  and  C_3
REMARK    2  A    between atoms: C_3  and  S_4
REMARK    3  A    between atoms: S_4  and  C_5
REMARK    4  A    between atoms: C_5  and  C_6
REMARK    5  A    between atoms: C_6  and  N_7
REMARK    6  A    between atoms: C_6  and  C_30
REMARK    7  A    between atoms: C_8  and  C_10
REMARK    8  A    between atoms: C_10  and  C_11
REMARK    9  A    between atoms: C_11  and  C_12
REMARK   10  A    between atoms: C_12  and  C_13
REMARK   11  A    between atoms: C_13  and  C_14
REMARK   12  A    between atoms: C_14  and  N_15
REMARK   13  A    between atoms: N_15  and  C_16
REMARK                            x       y       z     vdW  Elec       q    Type
REMARK                         _______ _______ _______ _____ _____    ______ ____
ROOT
ATOM      1  N   UNL A   1      42.634 -18.028 -36.342  0.00  0.00    -0.303 N 
ATOM      2  C   UNL A   1      41.457 -17.635 -35.737  0.00  0.00    +0.214 C 
ATOM      3  O   UNL A   1      40.833 -16.631 -36.060  0.00  0.00    -0.276 OA
ATOM      4  H   UNL A   1      43.057 -18.875 -36.069  0.00  0.00    +0.000 HD
ENDROOT
BRANCH   1   5
ATOM      5  C   UNL A   1      43.268 -17.211 -37.382  0.00  0.00    +0.109 C 
BRANCH   5   6
ATOM      6  C   UNL A   1      43.498 -18.106 -38.635  0.00  0.00    +0.240 C 
ATOM      7  O   UNL A   1      42.931 -17.833 -39.694  0.00  0.00    -0.273 OA
ATOM      8  N   UNL A   1      44.480 -19.061 -38.484  0.00  0.00    -0.263 N 
ATOM      9  C   UNL A   1      44.902 -19.966 -39.426  0.00  0.00    +0.165 A 
ATOM     10  N   UNL A   1      45.937 -20.732 -39.184  0.00  0.00    -0.225 NA
ATOM     11  C   UNL A   1      46.167 -21.559 -40.273  0.00  0.00    +0.080 A 
ATOM     12  C   UNL A   1      47.204 -22.507 -40.391  0.00  0.00    -0.035 A 
ATOM     13  C   UNL A   1      47.313 -23.276 -41.555  0.00  0.00    -0.060 A 
ATOM     14  C   UNL A   1      46.403 -23.114 -42.596  0.00  0.00    -0.061 A 
ATOM     15  C   UNL A   1      45.366 -22.182 -42.502  0.00  0.00    -0.046 A 
ATOM     16  C   UNL A   1      45.268 -21.413 -41.332  0.00  0.00    +0.041 A 
ATOM     17  S   UNL A   1      44.125 -20.196 -40.919  0.00  0.00    -0.052 S 
ATOM     18  H   UNL A   1      44.926 -19.098 -37.607  0.00  0.00    +0.000 HD
ENDBRANCH   5   6
BRANCH   5  19
ATOM     19  C   UNL A   1      44.502 -16.411 -36.920  0.00  0.00    +0.022 C 
BRANCH  19  20
ATOM     20  S   UNL A   1      45.488 -17.138 -35.546  0.00  0.00    -0.146 S 
BRANCH  20  21
ATOM     21  C   UNL A   1      47.161 -17.046 -36.250  0.00  0.00    +0.055 C 
BRANCH  21  23
ATOM     22  C   UNL A   1      48.849 -18.622 -34.914  0.00  0.00    -0.118 C 
ATOM     23  C   UNL A   1      48.092 -17.909 -35.513  0.00  0.00    -0.095 C 
ENDBRANCH  21  23
ENDBRANCH  20  21
ENDBRANCH  19  20
ENDBRANCH   5  19
ENDBRANCH   1   5
BRANCH   2  24
ATOM     24  C   UNL A   1      41.017 -18.531 -34.595  0.00  0.00    +0.024 C 
BRANCH  24  25
ATOM     25  C   UNL A   1      42.017 -19.659 -34.329  0.00  0.00    -0.045 C 
BRANCH  25  26
ATOM     26  C   UNL A   1      41.959 -20.195 -32.897  0.00  0.00    -0.051 C 
BRANCH  26  27
ATOM     27  C   UNL A   1      40.939 -21.319 -32.714  0.00  0.00    -0.037 C 
BRANCH  27  28
ATOM     28  C   UNL A   1      40.958 -22.280 -33.905  0.00  0.00    +0.009 C 
BRANCH  28  29
ATOM     29  N   UNL A   1      39.574 -22.616 -34.265  0.00  0.00    -0.343 N 
ATOM     30  H   UNL A   1      39.130 -23.463 -34.030  0.00  0.00    +0.000 HD
BRANCH  29  31
ATOM     31  C   UNL A   1      38.954 -21.561 -34.999  0.00  0.00    +0.041 A 
ATOM     32  C   UNL A   1      37.851 -20.903 -34.422  0.00  0.00    -0.005 A 
ATOM     33  C   UNL A   1      37.235 -19.895 -35.165  0.00  0.00    +0.047 A 
ATOM     34  N   UNL A   1      37.617 -19.564 -36.422  0.00  0.00    -0.251 NA
ATOM     35  C   UNL A   1      38.654 -20.206 -36.977  0.00  0.00    +0.073 A 
ATOM     36  C   UNL A   1      39.024 -19.841 -38.266  0.00  0.00    -0.036 A 
ATOM     37  C   UNL A   1      40.088 -20.451 -38.931  0.00  0.00    -0.060 A 
ATOM     38  C   UNL A   1      40.805 -21.453 -38.298  0.00  0.00    -0.061 A 
ATOM     39  C   UNL A   1      40.453 -21.836 -37.004  0.00  0.00    -0.051 A 
ATOM     40  C   UNL A   1      39.371 -21.223 -36.318  0.00  0.00    +0.021 A 
ATOM     41  C   UNL A   1      36.048 -19.132 -34.634  0.00  0.00    -0.010 C 
ATOM     42  C   UNL A   1      35.931 -19.183 -33.115  0.00  0.00    -0.047 C 
ATOM     43  C   UNL A   1      36.054 -20.621 -32.636  0.00  0.00    -0.049 C 
ATOM     44  C   UNL A   1      37.423 -21.193 -33.002  0.00  0.00    -0.024 C 
ENDBRANCH  29  31
ENDBRANCH  28  29
ENDBRANCH  27  28
ENDBRANCH  26  27
ENDBRANCH  25  26
ENDBRANCH  24  25
ENDBRANCH   2  24
TORSDOF 13
ENDMDL
MODEL 9
REMARK VINA RESULT:    -6.829     17.107     21.313
REMARK INTER + INTRA:         -14.570
REMARK INTER:                 -11.492
REMARK INTRA:                  -3.077
REMARK UNBOUND:                -2.551
REMARK  Name = cpd150.pdb
REMARK  13 active torsions:
REMARK  status: ('A' for Active; 'I' for Inactive)
REMARK    1  A    between atoms: C_2  and  C_3
REMARK    2  A    between atoms: C_3  and  S_4
REMARK    3  A    between atoms: S_4  and  C_5
REMARK    4  A    between atoms: C_5  and  C_6
REMARK    5  A    between atoms: C_6  and  N_7
REMARK    6  A    between atoms: C_6  and  C_30
REMARK    7  A    between atoms: C_8  and  C_10
REMARK    8  A    between atoms: C_10  and  C_11
REMARK    9  A    between atoms: C_11  and  C_12
REMARK   10  A    between atoms: C_12  and  C_13
REMARK   11  A    between atoms: C_13  and  C_14
REMARK   12  A    between atoms: C_14  and  N_15
REMARK   13  A    between atoms: N_15  and  C_16
REMARK                            x       y       z     vdW  Elec       q    Type
REMARK                         _______ _______ _______ _____ _____    ______ ____
ROOT
ATOM      1  N   UNL A   1      42.258 -17.224 -38.260  0.00  0.00    -0.303 N 
ATOM      2  C   UNL A   1      42.067 -15.875 -38.482  0.00  0.00    +0.214 C 
ATOM      3  O   UNL A   1      42.981 -15.060 -38.529  0.00  0.00    -0.276 OA
ATOM      4  H   UNL A   1      41.483 -17.831 -38.288  0.00  0.00    +0.000 HD
ENDROOT
BRANCH   1   5
ATOM      5  C   UNL A   1      43.591 -17.770 -37.985  0.00  0.00    +0.109 C 
BRANCH   5   6
ATOM      6  C   UNL A   1      43.952 -18.774 -39.119  0.00  0.00    +0.240 C 
ATOM      7  O   UNL A   1      43.325 -18.752 -40.179  0.00  0.00    -0.273 OA
ATOM      8  N   UNL A   1      45.089 -19.516 -38.886  0.00  0.00    -0.263 N 
ATOM      9  C   UNL A   1      45.647 -20.455 -39.718  0.00  0.00    +0.165 A 
ATOM     10  N   UNL A   1      46.806 -20.990 -39.422  0.00  0.00    -0.225 NA
ATOM     11  C   UNL A   1      47.157 -21.906 -40.402  0.00  0.00    +0.080 A 
ATOM     12  C   UNL A   1      48.343 -22.667 -40.439  0.00  0.00    -0.035 A 
ATOM     13  C   UNL A   1      48.565 -23.558 -41.495  0.00  0.00    -0.060 A 
ATOM     14  C   UNL A   1      47.621 -23.700 -42.508  0.00  0.00    -0.061 A 
ATOM     15  C   UNL A   1      46.437 -22.957 -42.494  0.00  0.00    -0.046 A 
ATOM     16  C   UNL A   1      46.227 -22.063 -41.431  0.00  0.00    +0.041 A 
ATOM     17  S   UNL A   1      44.895 -21.017 -41.134  0.00  0.00    -0.052 S 
ATOM     18  H   UNL A   1      45.552 -19.355 -38.031  0.00  0.00    +0.000 HD
ENDBRANCH   5   6
BRANCH   5  19
ATOM     19  C   UNL A   1      43.792 -18.307 -36.554  0.00  0.00    +0.022 C 
BRANCH  19  20
ATOM     20  S   UNL A   1      42.720 -19.713 -36.043  0.00  0.00    -0.146 S 
BRANCH  20  21
ATOM     21  C   UNL A   1      41.511 -18.851 -34.997  0.00  0.00    +0.055 C 
BRANCH  21  23
ATOM     22  C   UNL A   1      41.044 -20.200 -32.743  0.00  0.00    -0.118 C 
ATOM     23  C   UNL A   1      41.258 -19.596 -33.758  0.00  0.00    -0.095 C 
ENDBRANCH  21  23
ENDBRANCH  20  21
ENDBRANCH  19  20
ENDBRANCH   5  19
ENDBRANCH   1   5
BRANCH   2  24
ATOM     24  C   UNL A   1      40.611 -15.469 -38.618  0.00  0.00    +0.024 C 
BRANCH  24  25
ATOM     25  C   UNL A   1      39.750 -16.596 -39.189  0.00  0.00    -0.045 C 
BRANCH  25  26
ATOM     26  C   UNL A   1      38.254 -16.407 -38.929  0.00  0.00    -0.051 C 
BRANCH  26  27
ATOM     27  C   UNL A   1      37.874 -16.553 -37.455  0.00  0.00    -0.037 C 
BRANCH  27  28
ATOM     28  C   UNL A   1      38.551 -17.773 -36.829  0.00  0.00    +0.009 C 
BRANCH  28  29
ATOM     29  N   UNL A   1      37.774 -18.974 -37.166  0.00  0.00    -0.343 N 
ATOM     30  H   UNL A   1      36.901 -18.959 -37.622  0.00  0.00    +0.000 HD
BRANCH  29  31
ATOM     31  C   UNL A   1      38.443 -20.163 -36.749  0.00  0.00    +0.041 A 
ATOM     32  C   UNL A   1      39.365 -20.757 -37.633  0.00  0.00    -0.005 A 
ATOM     33  C   UNL A   1      39.987 -21.937 -37.224  0.00  0.00    +0.047 A 
ATOM     34  N   UNL A   1      39.707 -22.554 -36.051  0.00  0.00    -0.251 NA
ATOM     35  C   UNL A   1      38.814 -21.998 -35.221  0.00  0.00    +0.073 A 
ATOM     36  C   UNL A   1      38.551 -22.652 -34.024  0.00  0.00    -0.036 A 
ATOM     37  C   UNL A   1      37.636 -22.155 -33.094  0.00  0.00    -0.060 A 
ATOM     38  C   UNL A   1      36.963 -20.974 -33.362  0.00  0.00    -0.061 A 
ATOM     39  C   UNL A   1      37.212 -20.299 -34.557  0.00  0.00    -0.051 A 
ATOM     40  C   UNL A   1      38.139 -20.796 -35.510  0.00  0.00    +0.021 A 
ATOM     41  C   UNL A   1      40.989 -22.648 -38.097  0.00  0.00    -0.010 C 
ATOM     42  C   UNL A   1      41.617 -21.743 -39.151  0.00  0.00    -0.047 C 
ATOM     43  C   UNL A   1      40.529 -20.978 -39.889  0.00  0.00    -0.049 C 
ATOM     44  C   UNL A   1      39.758 -20.078 -38.925  0.00  0.00    -0.024 C 
ENDBRANCH  29  31
ENDBRANCH  28  29
ENDBRANCH  27  28
ENDBRANCH  26  27
ENDBRANCH  25  26
ENDBRANCH  24  25
ENDBRANCH   2  24
TORSDOF 13
ENDMDL
MODEL 10
REMARK VINA RESULT:    -6.819     17.471     21.150
REMARK INTER + INTRA:         -14.551
REMARK INTER:                 -10.342
REMARK INTRA:                  -4.210
REMARK UNBOUND:                -2.551
REMARK  Name = cpd150.pdb
REMARK  13 active torsions:
REMARK  status: ('A' for Active; 'I' for Inactive)
REMARK    1  A    between atoms: C_2  and  C_3
REMARK    2  A    between atoms: C_3  and  S_4
REMARK    3  A    between atoms: S_4  and  C_5
REMARK    4  A    between atoms: C_5  and  C_6
REMARK    5  A    between atoms: C_6  and  N_7
REMARK    6  A    between atoms: C_6  and  C_30
REMARK    7  A    between atoms: C_8  and  C_10
REMARK    8  A    between atoms: C_10  and  C_11
REMARK    9  A    between atoms: C_11  and  C_12
REMARK   10  A    between atoms: C_12  and  C_13
REMARK   11  A    between atoms: C_13  and  C_14
REMARK   12  A    between atoms: C_14  and  N_15
REMARK   13  A    between atoms: N_15  and  C_16
REMARK                            x       y       z     vdW  Elec       q    Type
REMARK                         _______ _______ _______ _____ _____    ______ ____
ROOT
ATOM      1  N   UNL A   1      45.062 -19.009 -39.772  0.00  0.00    -0.303 N 
ATOM      2  C   UNL A   1      45.293 -20.175 -40.474  0.00  0.00    +0.214 C 
ATOM      3  O   UNL A   1      46.141 -21.001 -40.154  0.00  0.00    -0.276 OA
ATOM      4  H   UNL A   1      44.329 -18.415 -40.053  0.00  0.00    +0.000 HD
ENDROOT
BRANCH   1   5
ATOM      5  C   UNL A   1      45.885 -18.638 -38.616  0.00  0.00    +0.109 C 
BRANCH   5   6
ATOM      6  C   UNL A   1      45.190 -19.170 -37.329  0.00  0.00    +0.240 C 
ATOM      7  O   UNL A   1      45.783 -19.964 -36.597  0.00  0.00    -0.273 OA
ATOM      8  N   UNL A   1      43.994 -18.557 -37.029  0.00  0.00    -0.263 N 
ATOM      9  C   UNL A   1      43.183 -18.812 -35.950  0.00  0.00    +0.165 A 
ATOM     10  N   UNL A   1      42.137 -18.059 -35.722  0.00  0.00    -0.225 NA
ATOM     11  C   UNL A   1      41.477 -18.511 -34.588  0.00  0.00    +0.080 A 
ATOM     12  C   UNL A   1      40.319 -17.943 -34.019  0.00  0.00    -0.035 A 
ATOM     13  C   UNL A   1      39.761 -18.510 -32.868  0.00  0.00    -0.060 A 
ATOM     14  C   UNL A   1      40.339 -19.633 -32.283  0.00  0.00    -0.061 A 
ATOM     15  C   UNL A   1      41.487 -20.215 -32.829  0.00  0.00    -0.046 A 
ATOM     16  C   UNL A   1      42.041 -19.635 -33.981  0.00  0.00    +0.041 A 
ATOM     17  S   UNL A   1      43.432 -20.105 -34.876  0.00  0.00    -0.052 S 
ATOM     18  H   UNL A   1      43.687 -17.861 -37.654  0.00  0.00    +0.000 HD
ENDBRANCH   5   6
BRANCH   5  19
ATOM     19  C   UNL A   1      46.302 -17.155 -38.563  0.00  0.00    +0.022 C 
BRANCH  19  20
ATOM     20  S   UNL A   1      46.780 -16.375 -40.160  0.00  0.00    -0.146 S 
BRANCH  20  21
ATOM     21  C   UNL A   1      45.521 -15.071 -40.286  0.00  0.00    +0.055 C 
BRANCH  21  23
ATOM     22  C   UNL A   1      43.084 -16.121 -40.564  0.00  0.00    -0.118 C 
ATOM     23  C   UNL A   1      44.179 -15.646 -40.435  0.00  0.00    -0.095 C 
ENDBRANCH  21  23
ENDBRANCH  20  21
ENDBRANCH  19  20
ENDBRANCH   5  19
ENDBRANCH   1   5
BRANCH   2  24
ATOM     24  C   UNL A   1      44.436 -20.332 -41.715  0.00  0.00    +0.024 C 
BRANCH  24  25
ATOM     25  C   UNL A   1      43.342 -21.386 -41.530  0.00  0.00    -0.045 C 
BRANCH  25  26
ATOM     26  C   UNL A   1      42.660 -21.319 -40.162  0.00  0.00    -0.051 C 
BRANCH  26  27
ATOM     27  C   UNL A   1      41.374 -22.143 -40.087  0.00  0.00    -0.037 C 
BRANCH  27  28
ATOM     28  C   UNL A   1      41.005 -22.457 -38.636  0.00  0.00    +0.009 C 
BRANCH  28  29
ATOM     29  N   UNL A   1      41.279 -21.274 -37.809  0.00  0.00    -0.343 N 
ATOM     30  H   UNL A   1      42.173 -20.878 -37.686  0.00  0.00    +0.000 HD
BRANCH  29  31
ATOM     31  C   UNL A   1      40.088 -20.771 -37.206  0.00  0.00    +0.041 A 
ATOM     32  C   UNL A   1      39.511 -19.601 -37.738  0.00  0.00    -0.005 A 
ATOM     33  C   UNL A   1      38.365 -19.104 -37.118  0.00  0.00    +0.047 A 
ATOM     34  N   UNL A   1      37.821 -19.661 -36.010  0.00  0.00    -0.251 NA
ATOM     35  C   UNL A   1      38.384 -20.761 -35.492  0.00  0.00    +0.073 A 
ATOM     36  C   UNL A   1      37.801 -21.312 -34.357  0.00  0.00    -0.036 A 
ATOM     37  C   UNL A   1      38.314 -22.456 -33.743  0.00  0.00    -0.060 A 
ATOM     38  C   UNL A   1      39.438 -23.070 -34.271  0.00  0.00    -0.061 A 
ATOM     39  C   UNL A   1      40.040 -22.535 -35.410  0.00  0.00    -0.051 A 
ATOM     40  C   UNL A   1      39.528 -21.372 -36.043  0.00  0.00    +0.021 A 
ATOM     41  C   UNL A   1      37.673 -17.859 -37.613  0.00  0.00    -0.010 C 
ATOM     42  C   UNL A   1      37.998 -17.528 -39.065  0.00  0.00    -0.047 C 
ATOM     43  C   UNL A   1      39.503 -17.573 -39.281  0.00  0.00    -0.049 C 
ATOM     44  C   UNL A   1      40.042 -18.976 -39.007  0.00  0.00    -0.024 C 
ENDBRANCH  29  31
ENDBRANCH  28  29
ENDBRANCH  27  28
ENDBRANCH  26  27
ENDBRANCH  25  26
ENDBRANCH  24  25
ENDBRANCH   2  24
TORSDOF 13
ENDMDL
MODEL 11
REMARK VINA RESULT:    -6.775     17.554     21.336
REMARK INTER + INTRA:         -14.475
REMARK INTER:                 -10.270
REMARK INTRA:                  -4.205
REMARK UNBOUND:                -2.551
REMARK  Name = cpd150.pdb
REMARK  13 active torsions:
REMARK  status: ('A' for Active; 'I' for Inactive)
REMARK    1  A    between atoms: C_2  and  C_3
REMARK    2  A    between atoms: C_3  and  S_4
REMARK    3  A    between atoms: S_4  and  C_5
REMARK    4  A    between atoms: C_5  and  C_6
REMARK    5  A    between atoms: C_6  and  N_7
REMARK    6  A    between atoms: C_6  and  C_30
REMARK    7  A    between atoms: C_8  and  C_10
REMARK    8  A    between atoms: C_10  and  C_11
REMARK    9  A    between atoms: C_11  and  C_12
REMARK   10  A    between atoms: C_12  and  C_13
REMARK   11  A    between atoms: C_13  and  C_14
REMARK   12  A    between atoms: C_14  and  N_15
REMARK   13  A    between atoms: N_15  and  C_16
REMARK                            x       y       z     vdW  Elec       q    Type
REMARK                         _______ _______ _______ _____ _____    ______ ____
ROOT
ATOM      1  N   UNL A   1      45.469 -17.750 -37.463  0.00  0.00    -0.303 N 
ATOM      2  C   UNL A   1      46.132 -16.916 -36.585  0.00  0.00    +0.214 C 
ATOM      3  O   UNL A   1      46.325 -15.725 -36.799  0.00  0.00    -0.276 OA
ATOM      4  H   UNL A   1      45.302 -18.686 -37.206  0.00  0.00    +0.000 HD
ENDROOT
BRANCH   1   5
ATOM      5  C   UNL A   1      45.011 -17.271 -38.771  0.00  0.00    +0.109 C 
BRANCH   5   6
ATOM      6  C   UNL A   1      43.473 -17.497 -38.864  0.00  0.00    +0.240 C 
ATOM      7  O   UNL A   1      42.970 -17.860 -39.928  0.00  0.00    -0.273 OA
ATOM      8  N   UNL A   1      42.810 -17.424 -37.658  0.00  0.00    -0.263 N 
ATOM      9  C   UNL A   1      41.465 -17.599 -37.444  0.00  0.00    +0.165 A 
ATOM     10  N   UNL A   1      40.993 -17.629 -36.222  0.00  0.00    -0.225 NA
ATOM     11  C   UNL A   1      39.619 -17.812 -36.260  0.00  0.00    +0.080 A 
ATOM     12  C   UNL A   1      38.764 -17.914 -35.144  0.00  0.00    -0.035 A 
ATOM     13  C   UNL A   1      37.390 -18.098 -35.335  0.00  0.00    -0.060 A 
ATOM     14  C   UNL A   1      36.861 -18.178 -36.620  0.00  0.00    -0.061 A 
ATOM     15  C   UNL A   1      37.688 -18.079 -37.743  0.00  0.00    -0.046 A 
ATOM     16  C   UNL A   1      39.066 -17.899 -37.539  0.00  0.00    +0.041 A 
ATOM     17  S   UNL A   1      40.328 -17.749 -38.697  0.00  0.00    -0.052 S 
ATOM     18  H   UNL A   1      43.360 -17.224 -36.865  0.00  0.00    +0.000 HD
ENDBRANCH   5   6
BRANCH   5  19
ATOM     19  C   UNL A   1      45.817 -17.795 -39.976  0.00  0.00    +0.022 C 
BRANCH  19  20
ATOM     20  S   UNL A   1      46.501 -19.498 -39.832  0.00  0.00    -0.146 S 
BRANCH  20  21
ATOM     21  C   UNL A   1      46.645 -19.950 -41.586  0.00  0.00    +0.055 C 
BRANCH  21  23
ATOM     22  C   UNL A   1      44.267 -19.881 -42.795  0.00  0.00    -0.118 C 
ATOM     23  C   UNL A   1      45.336 -19.917 -42.248  0.00  0.00    -0.095 C 
ENDBRANCH  21  23
ENDBRANCH  20  21
ENDBRANCH  19  20
ENDBRANCH   5  19
ENDBRANCH   1   5
BRANCH   2  24
ATOM     24  C   UNL A   1      46.649 -17.611 -35.340  0.00  0.00    +0.024 C 
BRANCH  24  25
ATOM     25  C   UNL A   1      46.841 -19.113 -35.556  0.00  0.00    -0.045 C 
BRANCH  25  26
ATOM     26  C   UNL A   1      45.805 -19.969 -34.823  0.00  0.00    -0.051 C 
BRANCH  26  27
ATOM     27  C   UNL A   1      44.899 -19.159 -33.896  0.00  0.00    -0.037 C 
BRANCH  27  28
ATOM     28  C   UNL A   1      43.425 -19.350 -34.261  0.00  0.00    +0.009 C 
BRANCH  28  29
ATOM     29  N   UNL A   1      43.170 -20.781 -34.472  0.00  0.00    -0.343 N 
ATOM     30  H   UNL A   1      43.751 -21.503 -34.140  0.00  0.00    +0.000 HD
BRANCH  29  31
ATOM     31  C   UNL A   1      41.973 -20.993 -35.221  0.00  0.00    +0.041 A 
ATOM     32  C   UNL A   1      40.767 -21.172 -34.517  0.00  0.00    -0.005 A 
ATOM     33  C   UNL A   1      39.611 -21.410 -35.261  0.00  0.00    +0.047 A 
ATOM     34  N   UNL A   1      39.610 -21.526 -36.611  0.00  0.00    -0.251 NA
ATOM     35  C   UNL A   1      40.763 -21.376 -37.277  0.00  0.00    +0.073 A 
ATOM     36  C   UNL A   1      40.730 -21.495 -38.661  0.00  0.00    -0.036 A 
ATOM     37  C   UNL A   1      41.877 -21.358 -39.444  0.00  0.00    -0.060 A 
ATOM     38  C   UNL A   1      43.093 -21.094 -38.834  0.00  0.00    -0.061 A 
ATOM     39  C   UNL A   1      43.151 -20.969 -37.446  0.00  0.00    -0.051 A 
ATOM     40  C   UNL A   1      41.991 -21.107 -36.640  0.00  0.00    +0.021 A 
ATOM     41  C   UNL A   1      38.272 -21.614 -34.601  0.00  0.00    -0.010 C 
ATOM     42  C   UNL A   1      38.203 -21.042 -33.190  0.00  0.00    -0.047 C 
ATOM     43  C   UNL A   1      39.409 -21.505 -32.386  0.00  0.00    -0.049 C 
ATOM     44  C   UNL A   1      40.702 -20.993 -33.017  0.00  0.00    -0.024 C 
ENDBRANCH  29  31
ENDBRANCH  28  29
ENDBRANCH  27  28
ENDBRANCH  26  27
ENDBRANCH  25  26
ENDBRANCH  24  25
ENDBRANCH   2  24
TORSDOF 13
ENDMDL
MODEL 12
REMARK VINA RESULT:    -6.740     17.191     21.514
REMARK INTER + INTRA:         -14.414
REMARK INTER:                 -11.521
REMARK INTRA:                  -2.892
REMARK UNBOUND:                -2.551
REMARK  Name = cpd150.pdb
REMARK  13 active torsions:
REMARK  status: ('A' for Active; 'I' for Inactive)
REMARK    1  A    between atoms: C_2  and  C_3
REMARK    2  A    between atoms: C_3  and  S_4
REMARK    3  A    between atoms: S_4  and  C_5
REMARK    4  A    between atoms: C_5  and  C_6
REMARK    5  A    between atoms: C_6  and  N_7
REMARK    6  A    between atoms: C_6  and  C_30
REMARK    7  A    between atoms: C_8  and  C_10
REMARK    8  A    between atoms: C_10  and  C_11
REMARK    9  A    between atoms: C_11  and  C_12
REMARK   10  A    between atoms: C_12  and  C_13
REMARK   11  A    between atoms: C_13  and  C_14
REMARK   12  A    between atoms: C_14  and  N_15
REMARK   13  A    between atoms: N_15  and  C_16
REMARK                            x       y       z     vdW  Elec       q    Type
REMARK                         _______ _______ _______ _____ _____    ______ ____
ROOT
ATOM      1  N   UNL A   1      42.484 -17.434 -38.054  0.00  0.00    -0.303 N 
ATOM      2  C   UNL A   1      42.364 -16.115 -38.441  0.00  0.00    +0.214 C 
ATOM      3  O   UNL A   1      42.991 -15.198 -37.924  0.00  0.00    -0.276 OA
ATOM      4  H   UNL A   1      41.991 -18.129 -38.548  0.00  0.00    +0.000 HD
ENDROOT
BRANCH   1   5
ATOM      5  C   UNL A   1      43.332 -17.823 -36.922  0.00  0.00    +0.109 C 
BRANCH   5   6
ATOM      6  C   UNL A   1      44.336 -18.907 -37.411  0.00  0.00    +0.240 C 
ATOM      7  O   UNL A   1      45.075 -19.469 -36.600  0.00  0.00    -0.273 OA
ATOM      8  N   UNL A   1      44.189 -19.269 -38.732  0.00  0.00    -0.263 N 
ATOM      9  C   UNL A   1      44.921 -20.207 -39.417  0.00  0.00    +0.165 A 
ATOM     10  N   UNL A   1      44.583 -20.541 -40.638  0.00  0.00    -0.225 NA
ATOM     11  C   UNL A   1      45.467 -21.496 -41.119  0.00  0.00    +0.080 A 
ATOM     12  C   UNL A   1      45.415 -22.110 -42.387  0.00  0.00    -0.035 A 
ATOM     13  C   UNL A   1      46.379 -23.062 -42.738  0.00  0.00    -0.060 A 
ATOM     14  C   UNL A   1      47.391 -23.403 -41.846  0.00  0.00    -0.061 A 
ATOM     15  C   UNL A   1      47.464 -22.808 -40.583  0.00  0.00    -0.046 A 
ATOM     16  C   UNL A   1      46.489 -21.858 -40.240  0.00  0.00    +0.041 A 
ATOM     17  S   UNL A   1      46.303 -20.964 -38.782  0.00  0.00    -0.052 S 
ATOM     18  H   UNL A   1      43.484 -18.805 -39.240  0.00  0.00    +0.000 HD
ENDBRANCH   5   6
BRANCH   5  19
ATOM     19  C   UNL A   1      42.569 -18.181 -35.630  0.00  0.00    +0.022 C 
BRANCH  19  20
ATOM     20  S   UNL A   1      43.388 -17.742 -34.042  0.00  0.00    -0.146 S 
BRANCH  20  21
ATOM     21  C   UNL A   1      42.474 -18.809 -32.889  0.00  0.00    +0.055 C 
BRANCH  21  23
ATOM     22  C   UNL A   1      39.874 -18.210 -32.871  0.00  0.00    -0.118 C 
ATOM     23  C   UNL A   1      41.044 -18.477 -32.884  0.00  0.00    -0.095 C 
ENDBRANCH  21  23
ENDBRANCH  20  21
ENDBRANCH  19  20
ENDBRANCH   5  19
ENDBRANCH   1   5
BRANCH   2  24
ATOM     24  C   UNL A   1      41.347 -15.882 -39.542  0.00  0.00    +0.024 C 
BRANCH  24  25
ATOM     25  C   UNL A   1      40.089 -16.732 -39.354  0.00  0.00    -0.045 C 
BRANCH  25  26
ATOM     26  C   UNL A   1      39.190 -16.241 -38.218  0.00  0.00    -0.051 C 
BRANCH  26  27
ATOM     27  C   UNL A   1      37.827 -16.934 -38.183  0.00  0.00    -0.037 C 
BRANCH  27  28
ATOM     28  C   UNL A   1      37.643 -17.723 -36.885  0.00  0.00    +0.009 C 
BRANCH  28  29
ATOM     29  N   UNL A   1      37.258 -19.101 -37.216  0.00  0.00    -0.343 N 
ATOM     30  H   UNL A   1      36.456 -19.344 -37.733  0.00  0.00    +0.000 HD
BRANCH  29  31
ATOM     31  C   UNL A   1      38.193 -20.044 -36.692  0.00  0.00    +0.041 A 
ATOM     32  C   UNL A   1      38.046 -20.458 -35.354  0.00  0.00    -0.005 A 
ATOM     33  C   UNL A   1      38.987 -21.355 -34.847  0.00  0.00    +0.047 A 
ATOM     34  N   UNL A   1      40.048 -21.799 -35.562  0.00  0.00    -0.251 NA
ATOM     35  C   UNL A   1      40.196 -21.388 -36.829  0.00  0.00    +0.073 A 
ATOM     36  C   UNL A   1      41.292 -21.863 -37.538  0.00  0.00    -0.036 A 
ATOM     37  C   UNL A   1      41.535 -21.492 -38.861  0.00  0.00    -0.060 A 
ATOM     38  C   UNL A   1      40.664 -20.623 -39.498  0.00  0.00    -0.061 A 
ATOM     39  C   UNL A   1      39.556 -20.133 -38.807  0.00  0.00    -0.051 A 
ATOM     40  C   UNL A   1      39.300 -20.503 -37.460  0.00  0.00    +0.021 A 
ATOM     41  C   UNL A   1      38.917 -21.858 -33.427  0.00  0.00    -0.010 C 
ATOM     42  C   UNL A   1      37.528 -21.730 -32.812  0.00  0.00    -0.047 C 
ATOM     43  C   UNL A   1      36.990 -20.326 -33.038  0.00  0.00    -0.049 C 
ATOM     44  C   UNL A   1      36.849 -20.040 -34.533  0.00  0.00    -0.024 C 
ENDBRANCH  29  31
ENDBRANCH  28  29
ENDBRANCH  27  28
ENDBRANCH  26  27
ENDBRANCH  25  26
ENDBRANCH  24  25
ENDBRANCH   2  24
TORSDOF 13
ENDMDL
MODEL 13
REMARK VINA RESULT:    -6.735     18.546     22.303
REMARK INTER + INTRA:         -14.404
REMARK INTER:                 -11.166
REMARK INTRA:                  -3.238
REMARK UNBOUND:                -2.551
REMARK  Name = cpd150.pdb
REMARK  13 active torsions:
REMARK  status: ('A' for Active; 'I' for Inactive)
REMARK    1  A    between atoms: C_2  and  C_3
REMARK    2  A    between atoms: C_3  and  S_4
REMARK    3  A    between atoms: S_4  and  C_5
REMARK    4  A    between atoms: C_5  and  C_6
REMARK    5  A    between atoms: C_6  and  N_7
REMARK    6  A    between atoms: C_6  and  C_30
REMARK    7  A    between atoms: C_8  and  C_10
REMARK    8  A    between atoms: C_10  and  C_11
REMARK    9  A    between atoms: C_11  and  C_12
REMARK   10  A    between atoms: C_12  and  C_13
REMARK   11  A    between atoms: C_13  and  C_14
REMARK   12  A    between atoms: C_14  and  N_15
REMARK   13  A    between atoms: N_15  and  C_16
REMARK                            x       y       z     vdW  Elec       q    Type
REMARK                         _______ _______ _______ _____ _____    ______ ____
ROOT
ATOM      1  N   UNL A   1      42.495 -19.109 -34.205  0.00  0.00    -0.303 N 
ATOM      2  C   UNL A   1      43.810 -19.219 -33.801  0.00  0.00    +0.214 C 
ATOM      3  O   UNL A   1      44.509 -20.200 -34.030  0.00  0.00    -0.276 OA
ATOM      4  H   UNL A   1      42.007 -18.271 -34.034  0.00  0.00    +0.000 HD
ENDROOT
BRANCH   1   5
ATOM      5  C   UNL A   1      41.810 -20.214 -34.883  0.00  0.00    +0.109 C 
BRANCH   5   6
ATOM      6  C   UNL A   1      41.995 -20.037 -36.418  0.00  0.00    +0.240 C 
ATOM      7  O   UNL A   1      41.237 -19.295 -37.046  0.00  0.00    -0.273 OA
ATOM      8  N   UNL A   1      43.134 -20.621 -36.928  0.00  0.00    -0.263 N 
ATOM      9  C   UNL A   1      43.555 -20.605 -38.235  0.00  0.00    +0.165 A 
ATOM     10  N   UNL A   1      44.729 -21.093 -38.553  0.00  0.00    -0.225 NA
ATOM     11  C   UNL A   1      44.927 -20.970 -39.920  0.00  0.00    +0.080 A 
ATOM     12  C   UNL A   1      46.079 -21.366 -40.631  0.00  0.00    -0.035 A 
ATOM     13  C   UNL A   1      46.139 -21.180 -42.016  0.00  0.00    -0.060 A 
ATOM     14  C   UNL A   1      45.069 -20.609 -42.699  0.00  0.00    -0.061 A 
ATOM     15  C   UNL A   1      43.916 -20.209 -42.017  0.00  0.00    -0.046 A 
ATOM     16  C   UNL A   1      43.868 -20.397 -40.626  0.00  0.00    +0.041 A 
ATOM     17  S   UNL A   1      42.612 -20.010 -39.517  0.00  0.00    -0.052 S 
ATOM     18  H   UNL A   1      43.707 -21.101 -36.287  0.00  0.00    +0.000 HD
ENDBRANCH   5   6
BRANCH   5  19
ATOM     19  C   UNL A   1      40.357 -20.456 -34.428  0.00  0.00    +0.022 C 
BRANCH  19  20
ATOM     20  S   UNL A   1      39.514 -21.940 -35.116  0.00  0.00    -0.146 S 
BRANCH  20  21
ATOM     21  C   UNL A   1      39.670 -23.091 -33.720  0.00  0.00    +0.055 C 
BRANCH  21  23
ATOM     22  C   UNL A   1      37.636 -24.818 -33.680  0.00  0.00    -0.118 C 
ATOM     23  C   UNL A   1      38.553 -24.043 -33.694  0.00  0.00    -0.095 C 
ENDBRANCH  21  23
ENDBRANCH  20  21
ENDBRANCH  19  20
ENDBRANCH   5  19
ENDBRANCH   1   5
BRANCH   2  24
ATOM     24  C   UNL A   1      44.315 -18.034 -33.000  0.00  0.00    +0.024 C 
BRANCH  24  25
ATOM     25  C   UNL A   1      43.277 -16.913 -32.913  0.00  0.00    -0.045 C 
BRANCH  25  26
ATOM     26  C   UNL A   1      43.824 -15.547 -33.331  0.00  0.00    -0.051 C 
BRANCH  26  27
ATOM     27  C   UNL A   1      43.005 -14.880 -34.437  0.00  0.00    -0.037 C 
BRANCH  27  28
ATOM     28  C   UNL A   1      43.216 -15.585 -35.779  0.00  0.00    +0.009 C 
BRANCH  28  29
ATOM     29  N   UNL A   1      44.387 -14.999 -36.445  0.00  0.00    -0.343 N 
ATOM     30  H   UNL A   1      44.752 -14.107 -36.241  0.00  0.00    +0.000 HD
BRANCH  29  31
ATOM     31  C   UNL A   1      44.928 -15.885 -37.425  0.00  0.00    +0.041 A 
ATOM     32  C   UNL A   1      44.435 -15.806 -38.742  0.00  0.00    -0.005 A 
ATOM     33  C   UNL A   1      44.951 -16.700 -39.681  0.00  0.00    +0.047 A 
ATOM     34  N   UNL A   1      45.855 -17.660 -39.370  0.00  0.00    -0.251 NA
ATOM     35  C   UNL A   1      46.306 -17.746 -38.112  0.00  0.00    +0.073 A 
ATOM     36  C   UNL A   1      47.236 -18.738 -37.826  0.00  0.00    -0.036 A 
ATOM     37  C   UNL A   1      47.765 -18.910 -36.546  0.00  0.00    -0.060 A 
ATOM     38  C   UNL A   1      47.358 -18.073 -35.520  0.00  0.00    -0.061 A 
ATOM     39  C   UNL A   1      46.426 -17.069 -35.783  0.00  0.00    -0.051 A 
ATOM     40  C   UNL A   1      45.881 -16.885 -37.081  0.00  0.00    +0.021 A 
ATOM     41  C   UNL A   1      44.488 -16.696 -41.115  0.00  0.00    -0.010 C 
ATOM     42  C   UNL A   1      43.857 -15.375 -41.539  0.00  0.00    -0.047 C 
ATOM     43  C   UNL A   1      42.818 -14.947 -40.514  0.00  0.00    -0.049 C 
ATOM     44  C   UNL A   1      43.473 -14.716 -39.153  0.00  0.00    -0.024 C 
ENDBRANCH  29  31
ENDBRANCH  28  29
ENDBRANCH  27  28
ENDBRANCH  26  27
ENDBRANCH  25  26
ENDBRANCH  24  25
ENDBRANCH   2  24
TORSDOF 13
ENDMDL
MODEL 14
REMARK VINA RESULT:    -6.634     17.756     21.774
REMARK INTER + INTRA:         -14.227
REMARK INTER:                 -11.159
REMARK INTRA:                  -3.068
REMARK UNBOUND:                -2.551
REMARK  Name = cpd150.pdb
REMARK  13 active torsions:
REMARK  status: ('A' for Active; 'I' for Inactive)
REMARK    1  A    between atoms: C_2  and  C_3
REMARK    2  A    between atoms: C_3  and  S_4
REMARK    3  A    between atoms: S_4  and  C_5
REMARK    4  A    between atoms: C_5  and  C_6
REMARK    5  A    between atoms: C_6  and  N_7
REMARK    6  A    between atoms: C_6  and  C_30
REMARK    7  A    between atoms: C_8  and  C_10
REMARK    8  A    between atoms: C_10  and  C_11
REMARK    9  A    between atoms: C_11  and  C_12
REMARK   10  A    between atoms: C_12  and  C_13
REMARK   11  A    between atoms: C_13  and  C_14
REMARK   12  A    between atoms: C_14  and  N_15
REMARK   13  A    between atoms: N_15  and  C_16
REMARK                            x       y       z     vdW  Elec       q    Type
REMARK                         _______ _______ _______ _____ _____    ______ ____
ROOT
ATOM      1  N   UNL A   1      41.125 -17.503 -38.129  0.00  0.00    -0.303 N 
ATOM      2  C   UNL A   1      39.947 -17.817 -38.778  0.00  0.00    +0.214 C 
ATOM      3  O   UNL A   1      39.545 -17.227 -39.774  0.00  0.00    -0.276 OA
ATOM      4  H   UNL A   1      41.415 -18.053 -37.365  0.00  0.00    +0.000 HD
ENDROOT
BRANCH   1   5
ATOM      5  C   UNL A   1      41.952 -16.369 -38.554  0.00  0.00    +0.109 C 
BRANCH   5   6
ATOM      6  C   UNL A   1      43.164 -16.921 -39.360  0.00  0.00    +0.240 C 
ATOM      7  O   UNL A   1      43.923 -16.140 -39.936  0.00  0.00    -0.273 OA
ATOM      8  N   UNL A   1      43.379 -18.274 -39.215  0.00  0.00    -0.263 N 
ATOM      9  C   UNL A   1      44.380 -19.017 -39.791  0.00  0.00    +0.165 A 
ATOM     10  N   UNL A   1      44.539 -20.274 -39.460  0.00  0.00    -0.225 NA
ATOM     11  C   UNL A   1      45.603 -20.810 -40.170  0.00  0.00    +0.080 A 
ATOM     12  C   UNL A   1      46.088 -22.130 -40.069  0.00  0.00    -0.035 A 
ATOM     13  C   UNL A   1      47.174 -22.534 -40.853  0.00  0.00    -0.060 A 
ATOM     14  C   UNL A   1      47.778 -21.642 -41.734  0.00  0.00    -0.061 A 
ATOM     15  C   UNL A   1      47.315 -20.328 -41.853  0.00  0.00    -0.046 A 
ATOM     16  C   UNL A   1      46.227 -19.933 -41.059  0.00  0.00    +0.041 A 
ATOM     17  S   UNL A   1      45.439 -18.407 -40.971  0.00  0.00    -0.052 S 
ATOM     18  H   UNL A   1      42.747 -18.761 -38.637  0.00  0.00    +0.000 HD
ENDBRANCH   5   6
BRANCH   5  19
ATOM     19  C   UNL A   1      42.315 -15.373 -37.435  0.00  0.00    +0.022 C 
BRANCH  19  20
ATOM     20  S   UNL A   1      43.280 -16.041 -36.018  0.00  0.00    -0.146 S 
BRANCH  20  21
ATOM     21  C   UNL A   1      44.943 -15.438 -36.431  0.00  0.00    +0.055 C 
BRANCH  21  23
ATOM     22  C   UNL A   1      46.519 -17.450 -37.200  0.00  0.00    -0.118 C 
ATOM     23  C   UNL A   1      45.814 -16.541 -36.855  0.00  0.00    -0.095 C 
ENDBRANCH  21  23
ENDBRANCH  20  21
ENDBRANCH  19  20
ENDBRANCH   5  19
ENDBRANCH   1   5
BRANCH   2  24
ATOM     24  C   UNL A   1      39.157 -18.934 -38.124  0.00  0.00    +0.024 C 
BRANCH  24  25
ATOM     25  C   UNL A   1      39.262 -20.247 -38.902  0.00  0.00    -0.045 C 
BRANCH  25  26
ATOM     26  C   UNL A   1      39.430 -21.474 -38.004  0.00  0.00    -0.051 C 
BRANCH  26  27
ATOM     27  C   UNL A   1      40.863 -22.007 -37.972  0.00  0.00    -0.037 C 
BRANCH  27  28
ATOM     28  C   UNL A   1      41.763 -21.118 -37.112  0.00  0.00    +0.009 C 
BRANCH  28  29
ATOM     29  N   UNL A   1      42.022 -21.797 -35.835  0.00  0.00    -0.343 N 
ATOM     30  H   UNL A   1      42.274 -22.745 -35.752  0.00  0.00    +0.000 HD
BRANCH  29  31
ATOM     31  C   UNL A   1      41.860 -20.908 -34.729  0.00  0.00    +0.041 A 
ATOM     32  C   UNL A   1      42.978 -20.168 -34.298  0.00  0.00    -0.005 A 
ATOM     33  C   UNL A   1      42.813 -19.329 -33.196  0.00  0.00    +0.047 A 
ATOM     34  N   UNL A   1      41.653 -19.236 -32.502  0.00  0.00    -0.251 NA
ATOM     35  C   UNL A   1      40.597 -19.957 -32.902  0.00  0.00    +0.073 A 
ATOM     36  C   UNL A   1      39.420 -19.838 -32.174  0.00  0.00    -0.036 A 
ATOM     37  C   UNL A   1      38.267 -20.548 -32.509  0.00  0.00    -0.060 A 
ATOM     38  C   UNL A   1      38.283 -21.402 -33.600  0.00  0.00    -0.061 A 
ATOM     39  C   UNL A   1      39.453 -21.537 -34.347  0.00  0.00    -0.051 A 
ATOM     40  C   UNL A   1      40.632 -20.821 -34.015  0.00  0.00    +0.021 A 
ATOM     41  C   UNL A   1      43.949 -18.496 -32.658  0.00  0.00    -0.010 C 
ATOM     42  C   UNL A   1      45.057 -18.259 -33.678  0.00  0.00    -0.047 C 
ATOM     43  C   UNL A   1      45.458 -19.579 -34.319  0.00  0.00    -0.049 C 
ATOM     44  C   UNL A   1      44.276 -20.190 -35.071  0.00  0.00    -0.024 C 
ENDBRANCH  29  31
ENDBRANCH  28  29
ENDBRANCH  27  28
ENDBRANCH  26  27
ENDBRANCH  25  26
ENDBRANCH  24  25
ENDBRANCH   2  24
TORSDOF 13
ENDMDL
MODEL 15
REMARK VINA RESULT:    -6.592     18.354     22.615
REMARK INTER + INTRA:         -14.154
REMARK INTER:                 -11.437
REMARK INTRA:                  -2.716
REMARK UNBOUND:                -2.551
REMARK  Name = cpd150.pdb
REMARK  13 active torsions:
REMARK  status: ('A' for Active; 'I' for Inactive)
REMARK    1  A    between atoms: C_2  and  C_3
REMARK    2  A    between atoms: C_3  and  S_4
REMARK    3  A    between atoms: S_4  and  C_5
REMARK    4  A    between atoms: C_5  and  C_6
REMARK    5  A    between atoms: C_6  and  N_7
REMARK    6  A    between atoms: C_6  and  C_30
REMARK    7  A    between atoms: C_8  and  C_10
REMARK    8  A    between atoms: C_10  and  C_11
REMARK    9  A    between atoms: C_11  and  C_12
REMARK   10  A    between atoms: C_12  and  C_13
REMARK   11  A    between atoms: C_13  and  C_14
REMARK   12  A    between atoms: C_14  and  N_15
REMARK   13  A    between atoms: N_15  and  C_16
REMARK                            x       y       z     vdW  Elec       q    Type
REMARK                         _______ _______ _______ _____ _____    ______ ____
ROOT
ATOM      1  N   UNL A   1      45.173 -16.248 -35.415  0.00  0.00    -0.303 N 
ATOM      2  C   UNL A   1      44.001 -15.791 -34.845  0.00  0.00    +0.214 C 
ATOM      3  O   UNL A   1      43.098 -15.264 -35.485  0.00  0.00    -0.276 OA
ATOM      4  H   UNL A   1      45.835 -16.710 -34.851  0.00  0.00    +0.000 HD
ENDROOT
BRANCH   1   5
ATOM      5  C   UNL A   1      45.451 -16.059 -36.842  0.00  0.00    +0.109 C 
BRANCH   5   6
ATOM      6  C   UNL A   1      45.902 -17.425 -37.438  0.00  0.00    +0.240 C 
ATOM      7  O   UNL A   1      46.535 -18.218 -36.740  0.00  0.00    -0.273 OA
ATOM      8  N   UNL A   1      45.391 -17.700 -38.688  0.00  0.00    -0.263 N 
ATOM      9  C   UNL A   1      45.605 -18.832 -39.435  0.00  0.00    +0.165 A 
ATOM     10  N   UNL A   1      44.948 -19.015 -40.554  0.00  0.00    -0.225 NA
ATOM     11  C   UNL A   1      45.333 -20.217 -41.128  0.00  0.00    +0.080 A 
ATOM     12  C   UNL A   1      44.832 -20.763 -42.327  0.00  0.00    -0.035 A 
ATOM     13  C   UNL A   1      45.317 -21.992 -42.787  0.00  0.00    -0.060 A 
ATOM     14  C   UNL A   1      46.294 -22.678 -42.072  0.00  0.00    -0.061 A 
ATOM     15  C   UNL A   1      46.808 -22.157 -40.880  0.00  0.00    -0.046 A 
ATOM     16  C   UNL A   1      46.310 -20.925 -40.425  0.00  0.00    +0.041 A 
ATOM     17  S   UNL A   1      46.728 -20.035 -39.014  0.00  0.00    -0.052 S 
ATOM     18  H   UNL A   1      44.810 -17.013 -39.087  0.00  0.00    +0.000 HD
ENDBRANCH   5   6
BRANCH   5  19
ATOM     19  C   UNL A   1      46.375 -14.870 -37.174  0.00  0.00    +0.022 C 
BRANCH  19  20
ATOM     20  S   UNL A   1      45.603 -13.446 -38.049  0.00  0.00    -0.146 S 
BRANCH  20  21
ATOM     21  C   UNL A   1      44.369 -14.307 -39.066  0.00  0.00    +0.055 C 
BRANCH  21  23
ATOM     22  C   UNL A   1      41.890 -13.571 -38.409  0.00  0.00    -0.118 C 
ATOM     23  C   UNL A   1      43.007 -13.900 -38.700  0.00  0.00    -0.095 C 
ENDBRANCH  21  23
ENDBRANCH  20  21
ENDBRANCH  19  20
ENDBRANCH   5  19
ENDBRANCH   1   5
BRANCH   2  24
ATOM     24  C   UNL A   1      43.940 -15.954 -33.338  0.00  0.00    +0.024 C 
BRANCH  24  25
ATOM     25  C   UNL A   1      44.712 -17.185 -32.860  0.00  0.00    -0.045 C 
BRANCH  25  26
ATOM     26  C   UNL A   1      43.900 -18.479 -32.939  0.00  0.00    -0.051 C 
BRANCH  26  27
ATOM     27  C   UNL A   1      44.507 -19.516 -33.884  0.00  0.00    -0.037 C 
BRANCH  27  28
ATOM     28  C   UNL A   1      43.686 -19.637 -35.170  0.00  0.00    +0.009 C 
BRANCH  28  29
ATOM     29  N   UNL A   1      43.239 -21.029 -35.319  0.00  0.00    -0.343 N 
ATOM     30  H   UNL A   1      43.798 -21.815 -35.123  0.00  0.00    +0.000 HD
BRANCH  29  31
ATOM     31  C   UNL A   1      41.892 -21.097 -35.785  0.00  0.00    +0.041 A 
ATOM     32  C   UNL A   1      40.863 -21.255 -34.836  0.00  0.00    -0.005 A 
ATOM     33  C   UNL A   1      39.554 -21.353 -35.309  0.00  0.00    +0.047 A 
ATOM     34  N   UNL A   1      39.241 -21.354 -36.627  0.00  0.00    -0.251 NA
ATOM     35  C   UNL A   1      40.224 -21.225 -37.529  0.00  0.00    +0.073 A 
ATOM     36  C   UNL A   1      39.871 -21.226 -38.873  0.00  0.00    -0.036 A 
ATOM     37  C   UNL A   1      40.821 -21.100 -39.887  0.00  0.00    -0.060 A 
ATOM     38  C   UNL A   1      42.160 -20.969 -39.557  0.00  0.00    -0.061 A 
ATOM     39  C   UNL A   1      42.538 -20.964 -38.215  0.00  0.00    -0.051 A 
ATOM     40  C   UNL A   1      41.581 -21.093 -37.174  0.00  0.00    +0.021 A 
ATOM     41  C   UNL A   1      38.385 -21.523 -34.373  0.00  0.00    -0.010 C 
ATOM     42  C   UNL A   1      38.683 -21.068 -32.949  0.00  0.00    -0.047 C 
ATOM     43  C   UNL A   1      39.994 -21.675 -32.477  0.00  0.00    -0.049 C 
ATOM     44  C   UNL A   1      41.152 -21.199 -33.353  0.00  0.00    -0.024 C 
ENDBRANCH  29  31
ENDBRANCH  28  29
ENDBRANCH  27  28
ENDBRANCH  26  27
ENDBRANCH  25  26
ENDBRANCH  24  25
ENDBRANCH   2  24
TORSDOF 13
ENDMDL
MODEL 16
REMARK VINA RESULT:    -6.538     17.424     20.933
REMARK INTER + INTRA:         -14.058
REMARK INTER:                  -9.902
REMARK INTRA:                  -4.155
REMARK UNBOUND:                -2.551
REMARK  Name = cpd150.pdb
REMARK  13 active torsions:
REMARK  status: ('A' for Active; 'I' for Inactive)
REMARK    1  A    between atoms: C_2  and  C_3
REMARK    2  A    between atoms: C_3  and  S_4
REMARK    3  A    between atoms: S_4  and  C_5
REMARK    4  A    between atoms: C_5  and  C_6
REMARK    5  A    between atoms: C_6  and  N_7
REMARK    6  A    between atoms: C_6  and  C_30
REMARK    7  A    between atoms: C_8  and  C_10
REMARK    8  A    between atoms: C_10  and  C_11
REMARK    9  A    between atoms: C_11  and  C_12
REMARK   10  A    between atoms: C_12  and  C_13
REMARK   11  A    between atoms: C_13  and  C_14
REMARK   12  A    between atoms: C_14  and  N_15
REMARK   13  A    between atoms: N_15  and  C_16
REMARK                            x       y       z     vdW  Elec       q    Type
REMARK                         _______ _______ _______ _____ _____    ______ ____
ROOT
ATOM      1  N   UNL A   1      44.911 -17.647 -37.911  0.00  0.00    -0.303 N 
ATOM      2  C   UNL A   1      45.842 -17.017 -37.109  0.00  0.00    +0.214 C 
ATOM      3  O   UNL A   1      46.053 -15.810 -37.138  0.00  0.00    -0.276 OA
ATOM      4  H   UNL A   1      44.754 -18.613 -37.799  0.00  0.00    +0.000 HD
ENDROOT
BRANCH   1   5
ATOM      5  C   UNL A   1      44.151 -16.908 -38.924  0.00  0.00    +0.109 C 
BRANCH   5   6
ATOM      6  C   UNL A   1      42.653 -17.312 -38.805  0.00  0.00    +0.240 C 
ATOM      7  O   UNL A   1      42.068 -17.792 -39.779  0.00  0.00    -0.273 OA
ATOM      8  N   UNL A   1      42.142 -17.247 -37.527  0.00  0.00    -0.263 N 
ATOM      9  C   UNL A   1      40.865 -17.563 -37.132  0.00  0.00    +0.165 A 
ATOM     10  N   UNL A   1      40.557 -17.576 -35.859  0.00  0.00    -0.225 NA
ATOM     11  C   UNL A   1      39.221 -17.917 -35.709  0.00  0.00    +0.080 A 
ATOM     12  C   UNL A   1      38.530 -18.052 -34.487  0.00  0.00    -0.035 A 
ATOM     13  C   UNL A   1      37.176 -18.403 -34.489  0.00  0.00    -0.060 A 
ATOM     14  C   UNL A   1      36.504 -18.616 -35.690  0.00  0.00    -0.061 A 
ATOM     15  C   UNL A   1      37.166 -18.487 -36.914  0.00  0.00    -0.046 A 
ATOM     16  C   UNL A   1      38.527 -18.140 -36.900  0.00  0.00    +0.041 A 
ATOM     17  S   UNL A   1      39.607 -17.913 -38.218  0.00  0.00    -0.052 S 
ATOM     18  H   UNL A   1      42.758 -16.940 -36.823  0.00  0.00    +0.000 HD
ENDBRANCH   5   6
BRANCH   5  19
ATOM     19  C   UNL A   1      44.731 -16.976 -40.351  0.00  0.00    +0.022 C 
BRANCH  19  20
ATOM     20  S   UNL A   1      46.380 -17.773 -40.534  0.00  0.00    -0.146 S 
BRANCH  20  21
ATOM     21  C   UNL A   1      45.889 -19.501 -40.802  0.00  0.00    +0.055 C 
BRANCH  21  23
ATOM     22  C   UNL A   1      44.287 -19.715 -42.925  0.00  0.00    -0.118 C 
ATOM     23  C   UNL A   1      45.007 -19.624 -41.969  0.00  0.00    -0.095 C 
ENDBRANCH  21  23
ENDBRANCH  20  21
ENDBRANCH  19  20
ENDBRANCH   5  19
ENDBRANCH   1   5
BRANCH   2  24
ATOM     24  C   UNL A   1      46.625 -17.956 -36.212  0.00  0.00    +0.024 C 
BRANCH  24  25
ATOM     25  C   UNL A   1      46.057 -19.376 -36.229  0.00  0.00    -0.045 C 
BRANCH  25  26
ATOM     26  C   UNL A   1      45.636 -19.877 -34.846  0.00  0.00    -0.051 C 
BRANCH  26  27
ATOM     27  C   UNL A   1      44.663 -18.937 -34.133  0.00  0.00    -0.037 C 
BRANCH  27  28
ATOM     28  C   UNL A   1      43.214 -19.266 -34.495  0.00  0.00    +0.009 C 
BRANCH  28  29
ATOM     29  N   UNL A   1      43.056 -20.726 -34.550  0.00  0.00    -0.343 N 
ATOM     30  H   UNL A   1      43.720 -21.368 -34.210  0.00  0.00    +0.000 HD
BRANCH  29  31
ATOM     31  C   UNL A   1      41.820 -21.095 -35.160  0.00  0.00    +0.041 A 
ATOM     32  C   UNL A   1      41.773 -21.203 -36.564  0.00  0.00    -0.005 A 
ATOM     33  C   UNL A   1      40.549 -21.534 -37.147  0.00  0.00    +0.047 A 
ATOM     34  N   UNL A   1      39.410 -21.702 -36.433  0.00  0.00    -0.251 NA
ATOM     35  C   UNL A   1      39.453 -21.577 -35.100  0.00  0.00    +0.073 A 
ATOM     36  C   UNL A   1      38.269 -21.759 -34.396  0.00  0.00    -0.036 A 
ATOM     37  C   UNL A   1      38.211 -21.649 -33.006  0.00  0.00    -0.060 A 
ATOM     38  C   UNL A   1      39.361 -21.349 -32.295  0.00  0.00    -0.061 A 
ATOM     39  C   UNL A   1      40.562 -21.163 -32.980  0.00  0.00    -0.051 A 
ATOM     40  C   UNL A   1      40.633 -21.271 -34.394  0.00  0.00    +0.021 A 
ATOM     41  C   UNL A   1      40.396 -21.674 -38.640  0.00  0.00    -0.010 C 
ATOM     42  C   UNL A   1      41.715 -21.937 -39.358  0.00  0.00    -0.047 C 
ATOM     43  C   UNL A   1      42.762 -20.934 -38.897  0.00  0.00    -0.049 C 
ATOM     44  C   UNL A   1      43.026 -21.086 -37.400  0.00  0.00    -0.024 C 
ENDBRANCH  29  31
ENDBRANCH  28  29
ENDBRANCH  27  28
ENDBRANCH  26  27
ENDBRANCH  25  26
ENDBRANCH  24  25
ENDBRANCH   2  24
TORSDOF 13
ENDMDL
MODEL 17
REMARK VINA RESULT:    -6.434     18.767     23.022
REMARK INTER + INTRA:         -13.875
REMARK INTER:                 -11.514
REMARK INTRA:                  -2.361
REMARK UNBOUND:                -2.551
REMARK  Name = cpd150.pdb
REMARK  13 active torsions:
REMARK  status: ('A' for Active; 'I' for Inactive)
REMARK    1  A    between atoms: C_2  and  C_3
REMARK    2  A    between atoms: C_3  and  S_4
REMARK    3  A    between atoms: S_4  and  C_5
REMARK    4  A    between atoms: C_5  and  C_6
REMARK    5  A    between atoms: C_6  and  N_7
REMARK    6  A    between atoms: C_6  and  C_30
REMARK    7  A    between atoms: C_8  and  C_10
REMARK    8  A    between atoms: C_10  and  C_11
REMARK    9  A    between atoms: C_11  and  C_12
REMARK   10  A    between atoms: C_12  and  C_13
REMARK   11  A    between atoms: C_13  and  C_14
REMARK   12  A    between atoms: C_14  and  N_15
REMARK   13  A    between atoms: N_15  and  C_16
REMARK                            x       y       z     vdW  Elec       q    Type
REMARK                         _______ _______ _______ _____ _____    ______ ____
ROOT
ATOM      1  N   UNL A   1      44.771 -15.715 -37.552  0.00  0.00    -0.303 N 
ATOM      2  C   UNL A   1      43.772 -15.641 -36.602  0.00  0.00    +0.214 C 
ATOM      3  O   UNL A   1      42.665 -15.162 -36.821  0.00  0.00    -0.276 OA
ATOM      4  H   UNL A   1      45.619 -16.161 -37.325  0.00  0.00    +0.000 HD
ENDROOT
BRANCH   1   5
ATOM      5  C   UNL A   1      44.595 -15.145 -38.891  0.00  0.00    +0.109 C 
BRANCH   5   6
ATOM      6  C   UNL A   1      44.620 -16.308 -39.926  0.00  0.00    +0.240 C 
ATOM      7  O   UNL A   1      44.292 -16.095 -41.095  0.00  0.00    -0.273 OA
ATOM      8  N   UNL A   1      45.185 -17.475 -39.461  0.00  0.00    -0.263 N 
ATOM      9  C   UNL A   1      45.354 -18.645 -40.160  0.00  0.00    +0.165 A 
ATOM     10  N   UNL A   1      46.026 -19.637 -39.629  0.00  0.00    -0.225 NA
ATOM     11  C   UNL A   1      46.058 -20.703 -40.515  0.00  0.00    +0.080 A 
ATOM     12  C   UNL A   1      46.704 -21.938 -40.305  0.00  0.00    -0.035 A 
ATOM     13  C   UNL A   1      46.652 -22.927 -41.293  0.00  0.00    -0.060 A 
ATOM     14  C   UNL A   1      45.964 -22.702 -42.481  0.00  0.00    -0.061 A 
ATOM     15  C   UNL A   1      45.315 -21.486 -42.713  0.00  0.00    -0.046 A 
ATOM     16  C   UNL A   1      45.378 -20.498 -41.717  0.00  0.00    +0.041 A 
ATOM     17  S   UNL A   1      44.698 -18.919 -41.703  0.00  0.00    -0.052 S 
ATOM     18  H   UNL A   1      45.501 -17.471 -38.529  0.00  0.00    +0.000 HD
ENDBRANCH   5   6
BRANCH   5  19
ATOM     19  C   UNL A   1      45.525 -13.961 -39.223  0.00  0.00    +0.022 C 
BRANCH  19  20
ATOM     20  S   UNL A   1      46.915 -13.653 -38.057  0.00  0.00    -0.146 S 
BRANCH  20  21
ATOM     21  C   UNL A   1      48.156 -14.812 -38.702  0.00  0.00    +0.055 C 
BRANCH  21  23
ATOM     22  C   UNL A   1      48.072 -14.931 -41.367  0.00  0.00    -0.118 C 
ATOM     23  C   UNL A   1      48.110 -14.872 -40.168  0.00  0.00    -0.095 C 
ENDBRANCH  21  23
ENDBRANCH  20  21
ENDBRANCH  19  20
ENDBRANCH   5  19
ENDBRANCH   1   5
BRANCH   2  24
ATOM     24  C   UNL A   1      44.175 -16.163 -35.236  0.00  0.00    +0.024 C 
BRANCH  24  25
ATOM     25  C   UNL A   1      45.345 -17.144 -35.316  0.00  0.00    -0.045 C 
BRANCH  25  26
ATOM     26  C   UNL A   1      45.401 -18.120 -34.139  0.00  0.00    -0.051 C 
BRANCH  26  27
ATOM     27  C   UNL A   1      44.209 -19.077 -34.091  0.00  0.00    -0.037 C 
BRANCH  27  28
ATOM     28  C   UNL A   1      43.918 -19.664 -35.474  0.00  0.00    +0.009 C 
BRANCH  28  29
ATOM     29  N   UNL A   1      43.332 -21.001 -35.309  0.00  0.00    -0.343 N 
ATOM     30  H   UNL A   1      43.799 -21.764 -34.898  0.00  0.00    +0.000 HD
BRANCH  29  31
ATOM     31  C   UNL A   1      42.000 -21.055 -35.820  0.00  0.00    +0.041 A 
ATOM     32  C   UNL A   1      40.933 -21.088 -34.902  0.00  0.00    -0.005 A 
ATOM     33  C   UNL A   1      39.639 -21.173 -35.416  0.00  0.00    +0.047 A 
ATOM     34  N   UNL A   1      39.373 -21.275 -36.740  0.00  0.00    -0.251 NA
ATOM     35  C   UNL A   1      40.392 -21.265 -37.610  0.00  0.00    +0.073 A 
ATOM     36  C   UNL A   1      40.088 -21.367 -38.962  0.00  0.00    -0.036 A 
ATOM     37  C   UNL A   1      41.078 -21.367 -39.946  0.00  0.00    -0.060 A 
ATOM     38  C   UNL A   1      42.409 -21.263 -39.576  0.00  0.00    -0.061 A 
ATOM     39  C   UNL A   1      42.739 -21.158 -38.225  0.00  0.00    -0.051 A 
ATOM     40  C   UNL A   1      41.740 -21.158 -37.216  0.00  0.00    +0.021 A 
ATOM     41  C   UNL A   1      38.430 -21.214 -34.516  0.00  0.00    -0.010 C 
ATOM     42  C   UNL A   1      38.697 -20.649 -33.125  0.00  0.00    -0.047 C 
ATOM     43  C   UNL A   1      39.963 -21.267 -32.552  0.00  0.00    -0.049 C 
ATOM     44  C   UNL A   1      41.171 -20.916 -33.419  0.00  0.00    -0.024 C 
ENDBRANCH  29  31
ENDBRANCH  28  29
ENDBRANCH  27  28
ENDBRANCH  26  27
ENDBRANCH  25  26
ENDBRANCH  24  25
ENDBRANCH   2  24
TORSDOF 13
ENDMDL
MODEL 18
REMARK VINA RESULT:    -6.415     17.637     21.036
REMARK INTER + INTRA:         -13.840
REMARK INTER:                 -10.052
REMARK INTRA:                  -3.788
REMARK UNBOUND:                -2.551
REMARK  Name = cpd150.pdb
REMARK  13 active torsions:
REMARK  status: ('A' for Active; 'I' for Inactive)
REMARK    1  A    between atoms: C_2  and  C_3
REMARK    2  A    between atoms: C_3  and  S_4
REMARK    3  A    between atoms: S_4  and  C_5
REMARK    4  A    between atoms: C_5  and  C_6
REMARK    5  A    between atoms: C_6  and  N_7
REMARK    6  A    between atoms: C_6  and  C_30
REMARK    7  A    between atoms: C_8  and  C_10
REMARK    8  A    between atoms: C_10  and  C_11
REMARK    9  A    between atoms: C_11  and  C_12
REMARK   10  A    between atoms: C_12  and  C_13
REMARK   11  A    between atoms: C_13  and  C_14
REMARK   12  A    between atoms: C_14  and  N_15
REMARK   13  A    between atoms: N_15  and  C_16
REMARK                            x       y       z     vdW  Elec       q    Type
REMARK                         _______ _______ _______ _____ _____    ______ ____
ROOT
ATOM      1  N   UNL A   1      44.258 -18.646 -39.435  0.00  0.00    -0.303 N 
ATOM      2  C   UNL A   1      44.666 -17.947 -40.553  0.00  0.00    +0.214 C 
ATOM      3  O   UNL A   1      45.193 -18.475 -41.526  0.00  0.00    -0.276 OA
ATOM      4  H   UNL A   1      43.793 -18.167 -38.711  0.00  0.00    +0.000 HD
ENDROOT
BRANCH   1   5
ATOM      5  C   UNL A   1      44.503 -20.086 -39.303  0.00  0.00    +0.109 C 
BRANCH   5   6
ATOM      6  C   UNL A   1      43.266 -20.732 -38.613  0.00  0.00    +0.240 C 
ATOM      7  O   UNL A   1      42.525 -21.477 -39.257  0.00  0.00    -0.273 OA
ATOM      8  N   UNL A   1      43.201 -20.533 -37.252  0.00  0.00    -0.263 N 
ATOM      9  C   UNL A   1      42.236 -21.003 -36.394  0.00  0.00    +0.165 A 
ATOM     10  N   UNL A   1      42.373 -20.845 -35.101  0.00  0.00    -0.225 NA
ATOM     11  C   UNL A   1      41.280 -21.394 -34.448  0.00  0.00    +0.080 A 
ATOM     12  C   UNL A   1      41.079 -21.432 -33.053  0.00  0.00    -0.035 A 
ATOM     13  C   UNL A   1      39.921 -22.021 -32.533  0.00  0.00    -0.060 A 
ATOM     14  C   UNL A   1      38.964 -22.567 -33.384  0.00  0.00    -0.061 A 
ATOM     15  C   UNL A   1      39.140 -22.540 -34.771  0.00  0.00    -0.046 A 
ATOM     16  C   UNL A   1      40.307 -21.950 -35.281  0.00  0.00    +0.041 A 
ATOM     17  S   UNL A   1      40.812 -21.768 -36.915  0.00  0.00    -0.052 S 
ATOM     18  H   UNL A   1      43.923 -19.997 -36.850  0.00  0.00    +0.000 HD
ENDBRANCH   5   6
BRANCH   5  19
ATOM     19  C   UNL A   1      45.863 -20.461 -38.680  0.00  0.00    +0.022 C 
BRANCH  19  20
ATOM     20  S   UNL A   1      47.181 -21.000 -39.845  0.00  0.00    -0.146 S 
BRANCH  20  21
ATOM     21  C   UNL A   1      46.433 -22.511 -40.522  0.00  0.00    +0.055 C 
BRANCH  21  23
ATOM     22  C   UNL A   1      45.066 -21.982 -42.752  0.00  0.00    -0.118 C 
ATOM     23  C   UNL A   1      45.677 -22.222 -41.746  0.00  0.00    -0.095 C 
ENDBRANCH  21  23
ENDBRANCH  20  21
ENDBRANCH  19  20
ENDBRANCH   5  19
ENDBRANCH   1   5
BRANCH   2  24
ATOM     24  C   UNL A   1      44.450 -16.449 -40.462  0.00  0.00    +0.024 C 
BRANCH  24  25
ATOM     25  C   UNL A   1      43.186 -16.003 -41.199  0.00  0.00    -0.045 C 
BRANCH  25  26
ATOM     26  C   UNL A   1      42.097 -15.467 -40.266  0.00  0.00    -0.051 C 
BRANCH  26  27
ATOM     27  C   UNL A   1      41.142 -16.552 -39.767  0.00  0.00    -0.037 C 
BRANCH  27  28
ATOM     28  C   UNL A   1      40.921 -16.438 -38.257  0.00  0.00    +0.009 C 
BRANCH  28  29
ATOM     29  N   UNL A   1      41.191 -17.742 -37.637  0.00  0.00    -0.343 N 
ATOM     30  H   UNL A   1      41.379 -18.567 -38.141  0.00  0.00    +0.000 HD
BRANCH  29  31
ATOM     31  C   UNL A   1      41.145 -17.663 -36.213  0.00  0.00    +0.041 A 
ATOM     32  C   UNL A   1      42.296 -17.222 -35.530  0.00  0.00    -0.005 A 
ATOM     33  C   UNL A   1      42.246 -17.180 -34.137  0.00  0.00    +0.047 A 
ATOM     34  N   UNL A   1      41.171 -17.589 -33.421  0.00  0.00    -0.251 NA
ATOM     35  C   UNL A   1      40.086 -18.028 -34.072  0.00  0.00    +0.073 A 
ATOM     36  C   UNL A   1      38.997 -18.437 -33.311  0.00  0.00    -0.036 A 
ATOM     37  C   UNL A   1      37.822 -18.912 -33.895  0.00  0.00    -0.060 A 
ATOM     38  C   UNL A   1      37.725 -18.983 -35.276  0.00  0.00    -0.061 A 
ATOM     39  C   UNL A   1      38.804 -18.577 -36.060  0.00  0.00    -0.051 A 
ATOM     40  C   UNL A   1      40.005 -18.093 -35.478  0.00  0.00    +0.021 A 
ATOM     41  C   UNL A   1      43.425 -16.723 -33.316  0.00  0.00    -0.010 C 
ATOM     42  C   UNL A   1      44.407 -15.862 -34.102  0.00  0.00    -0.047 C 
ATOM     43  C   UNL A   1      44.749 -16.541 -35.419  0.00  0.00    -0.049 C 
ATOM     44  C   UNL A   1      43.498 -16.698 -36.282  0.00  0.00    -0.024 C 
ENDBRANCH  29  31
ENDBRANCH  28  29
ENDBRANCH  27  28
ENDBRANCH  26  27
ENDBRANCH  25  26
ENDBRANCH  24  25
ENDBRANCH   2  24
TORSDOF 13
ENDMDL
MODEL 19
REMARK VINA RESULT:    -6.413     17.817     21.234
REMARK INTER + INTRA:         -13.837
REMARK INTER:                 -10.563
REMARK INTRA:                  -3.274
REMARK UNBOUND:                -2.551
REMARK  Name = cpd150.pdb
REMARK  13 active torsions:
REMARK  status: ('A' for Active; 'I' for Inactive)
REMARK    1  A    between atoms: C_2  and  C_3
REMARK    2  A    between atoms: C_3  and  S_4
REMARK    3  A    between atoms: S_4  and  C_5
REMARK    4  A    between atoms: C_5  and  C_6
REMARK    5  A    between atoms: C_6  and  N_7
REMARK    6  A    between atoms: C_6  and  C_30
REMARK    7  A    between atoms: C_8  and  C_10
REMARK    8  A    between atoms: C_10  and  C_11
REMARK    9  A    between atoms: C_11  and  C_12
REMARK   10  A    between atoms: C_12  and  C_13
REMARK   11  A    between atoms: C_13  and  C_14
REMARK   12  A    between atoms: C_14  and  N_15
REMARK   13  A    between atoms: N_15  and  C_16
REMARK                            x       y       z     vdW  Elec       q    Type
REMARK                         _______ _______ _______ _____ _____    ______ ____
ROOT
ATOM      1  N   UNL A   1      44.574 -18.456 -39.192  0.00  0.00    -0.303 N 
ATOM      2  C   UNL A   1      44.692 -17.626 -40.289  0.00  0.00    +0.214 C 
ATOM      3  O   UNL A   1      44.274 -17.915 -41.405  0.00  0.00    -0.276 OA
ATOM      4  H   UNL A   1      44.885 -18.140 -38.313  0.00  0.00    +0.000 HD
ENDROOT
BRANCH   1   5
ATOM      5  C   UNL A   1      43.995 -19.798 -39.310  0.00  0.00    +0.109 C 
BRANCH   5   6
ATOM      6  C   UNL A   1      42.641 -19.816 -38.542  0.00  0.00    +0.240 C 
ATOM      7  O   UNL A   1      41.706 -19.115 -38.932  0.00  0.00    -0.273 OA
ATOM      8  N   UNL A   1      42.556 -20.774 -37.555  0.00  0.00    -0.263 N 
ATOM      9  C   UNL A   1      41.479 -21.025 -36.740  0.00  0.00    +0.165 A 
ATOM     10  N   UNL A   1      41.494 -22.055 -35.931  0.00  0.00    -0.225 NA
ATOM     11  C   UNL A   1      40.308 -22.099 -35.214  0.00  0.00    +0.080 A 
ATOM     12  C   UNL A   1      39.950 -23.073 -34.260  0.00  0.00    -0.035 A 
ATOM     13  C   UNL A   1      38.713 -22.989 -33.610  0.00  0.00    -0.060 A 
ATOM     14  C   UNL A   1      37.836 -21.948 -33.897  0.00  0.00    -0.061 A 
ATOM     15  C   UNL A   1      38.168 -20.969 -34.837  0.00  0.00    -0.046 A 
ATOM     16  C   UNL A   1      39.409 -21.066 -35.487  0.00  0.00    +0.041 A 
ATOM     17  S   UNL A   1      40.098 -20.037 -36.680  0.00  0.00    -0.052 S 
ATOM     18  H   UNL A   1      43.351 -21.338 -37.419  0.00  0.00    +0.000 HD
ENDBRANCH   5   6
BRANCH   5  19
ATOM     19  C   UNL A   1      44.954 -20.954 -38.962  0.00  0.00    +0.022 C 
BRANCH  19  20
ATOM     20  S   UNL A   1      46.533 -21.027 -39.905  0.00  0.00    -0.146 S 
BRANCH  20  21
ATOM     21  C   UNL A   1      46.013 -21.991 -41.354  0.00  0.00    +0.055 C 
BRANCH  21  23
ATOM     22  C   UNL A   1      47.933 -23.676 -42.126  0.00  0.00    -0.118 C 
ATOM     23  C   UNL A   1      47.071 -22.914 -41.782  0.00  0.00    -0.095 C 
ENDBRANCH  21  23
ENDBRANCH  20  21
ENDBRANCH  19  20
ENDBRANCH   5  19
ENDBRANCH   1   5
BRANCH   2  24
ATOM     24  C   UNL A   1      45.433 -16.332 -40.011  0.00  0.00    +0.024 C 
BRANCH  24  25
ATOM     25  C   UNL A   1      44.569 -15.101 -40.294  0.00  0.00    -0.045 C 
BRANCH  25  26
ATOM     26  C   UNL A   1      43.525 -14.830 -39.208  0.00  0.00    -0.051 C 
BRANCH  26  27
ATOM     27  C   UNL A   1      44.099 -14.884 -37.792  0.00  0.00    -0.037 C 
BRANCH  27  28
ATOM     28  C   UNL A   1      43.268 -15.806 -36.896  0.00  0.00    +0.009 C 
BRANCH  28  29
ATOM     29  N   UNL A   1      43.930 -15.922 -35.590  0.00  0.00    -0.343 N 
ATOM     30  H   UNL A   1      44.252 -15.156 -35.061  0.00  0.00    +0.000 HD
BRANCH  29  31
ATOM     31  C   UNL A   1      44.048 -17.285 -35.183  0.00  0.00    +0.041 A 
ATOM     32  C   UNL A   1      43.068 -17.812 -34.319  0.00  0.00    -0.005 A 
ATOM     33  C   UNL A   1      43.215 -19.137 -33.905  0.00  0.00    +0.047 A 
ATOM     34  N   UNL A   1      44.272 -19.909 -34.253  0.00  0.00    -0.251 NA
ATOM     35  C   UNL A   1      45.213 -19.398 -35.059  0.00  0.00    +0.073 A 
ATOM     36  C   UNL A   1      46.283 -20.216 -35.401  0.00  0.00    -0.036 A 
ATOM     37  C   UNL A   1      47.314 -19.776 -36.232  0.00  0.00    -0.060 A 
ATOM     38  C   UNL A   1      47.283 -18.486 -36.737  0.00  0.00    -0.061 A 
ATOM     39  C   UNL A   1      46.218 -17.647 -36.407  0.00  0.00    -0.051 A 
ATOM     40  C   UNL A   1      45.164 -18.083 -35.563  0.00  0.00    +0.021 A 
ATOM     41  C   UNL A   1      42.220 -19.792 -32.982  0.00  0.00    -0.010 C 
ATOM     42  C   UNL A   1      40.859 -19.104 -32.978  0.00  0.00    -0.047 C 
ATOM     43  C   UNL A   1      41.039 -17.605 -32.791  0.00  0.00    -0.049 C 
ATOM     44  C   UNL A   1      41.840 -17.014 -33.950  0.00  0.00    -0.024 C 
ENDBRANCH  29  31
ENDBRANCH  28  29
ENDBRANCH  27  28
ENDBRANCH  26  27
ENDBRANCH  25  26
ENDBRANCH  24  25
ENDBRANCH   2  24
TORSDOF 13
ENDMDL
MODEL 20
REMARK VINA RESULT:    -6.215     17.612     21.143
REMARK INTER + INTRA:         -13.490
REMARK INTER:                  -9.947
REMARK INTRA:                  -3.542
REMARK UNBOUND:                -2.551
REMARK  Name = cpd150.pdb
REMARK  13 active torsions:
REMARK  status: ('A' for Active; 'I' for Inactive)
REMARK    1  A    between atoms: C_2  and  C_3
REMARK    2  A    between atoms: C_3  and  S_4
REMARK    3  A    between atoms: S_4  and  C_5
REMARK    4  A    between atoms: C_5  and  C_6
REMARK    5  A    between atoms: C_6  and  N_7
REMARK    6  A    between atoms: C_6  and  C_30
REMARK    7  A    between atoms: C_8  and  C_10
REMARK    8  A    between atoms: C_10  and  C_11
REMARK    9  A    between atoms: C_11  and  C_12
REMARK   10  A    between atoms: C_12  and  C_13
REMARK   11  A    between atoms: C_13  and  C_14
REMARK   12  A    between atoms: C_14  and  N_15
REMARK   13  A    between atoms: N_15  and  C_16
REMARK                            x       y       z     vdW  Elec       q    Type
REMARK                         _______ _______ _______ _____ _____    ______ ____
ROOT
ATOM      1  N   UNL A   1      44.395 -18.628 -39.350  0.00  0.00    -0.303 N 
ATOM      2  C   UNL A   1      44.667 -17.902 -40.492  0.00  0.00    +0.214 C 
ATOM      3  O   UNL A   1      44.996 -18.413 -41.556  0.00  0.00    -0.276 OA
ATOM      4  H   UNL A   1      44.084 -18.157 -38.542  0.00  0.00    +0.000 HD
ENDROOT
BRANCH   1   5
ATOM      5  C   UNL A   1      44.560 -20.085 -39.314  0.00  0.00    +0.109 C 
BRANCH   5   6
ATOM      6  C   UNL A   1      43.279 -20.707 -38.685  0.00  0.00    +0.240 C 
ATOM      7  O   UNL A   1      42.512 -21.368 -39.388  0.00  0.00    -0.273 OA
ATOM      8  N   UNL A   1      43.202 -20.596 -37.315  0.00  0.00    -0.263 N 
ATOM      9  C   UNL A   1      42.200 -21.069 -36.503  0.00  0.00    +0.165 A 
ATOM     10  N   UNL A   1      42.323 -21.004 -35.201  0.00  0.00    -0.225 NA
ATOM     11  C   UNL A   1      41.192 -21.535 -34.601  0.00  0.00    +0.080 A 
ATOM     12  C   UNL A   1      40.966 -21.655 -33.214  0.00  0.00    -0.035 A 
ATOM     13  C   UNL A   1      39.770 -22.214 -32.750  0.00  0.00    -0.060 A 
ATOM     14  C   UNL A   1      38.800 -22.650 -33.648  0.00  0.00    -0.061 A 
ATOM     15  C   UNL A   1      39.000 -22.541 -35.027  0.00  0.00    -0.046 A 
ATOM     16  C   UNL A   1      40.206 -21.982 -35.482  0.00  0.00    +0.041 A 
ATOM     17  S   UNL A   1      40.746 -21.720 -37.093  0.00  0.00    -0.052 S 
ATOM     18  H   UNL A   1      43.945 -20.127 -36.869  0.00  0.00    +0.000 HD
ENDBRANCH   5   6
BRANCH   5  19
ATOM     19  C   UNL A   1      45.888 -20.575 -38.702  0.00  0.00    +0.022 C 
BRANCH  19  20
ATOM     20  S   UNL A   1      47.245 -20.964 -39.882  0.00  0.00    -0.146 S 
BRANCH  20  21
ATOM     21  C   UNL A   1      46.583 -22.460 -40.673  0.00  0.00    +0.055 C 
BRANCH  21  23
ATOM     22  C   UNL A   1      44.968 -21.831 -42.702  0.00  0.00    -0.118 C 
ATOM     23  C   UNL A   1      45.690 -22.117 -41.787  0.00  0.00    -0.095 C 
ENDBRANCH  21  23
ENDBRANCH  20  21
ENDBRANCH  19  20
ENDBRANCH   5  19
ENDBRANCH   1   5
BRANCH   2  24
ATOM     24  C   UNL A   1      44.570 -16.399 -40.310  0.00  0.00    +0.024 C 
BRANCH  24  25
ATOM     25  C   UNL A   1      43.240 -15.841 -40.821  0.00  0.00    -0.045 C 
BRANCH  25  26
ATOM     26  C   UNL A   1      42.378 -15.223 -39.719  0.00  0.00    -0.051 C 
BRANCH  26  27
ATOM     27  C   UNL A   1      41.302 -16.172 -39.189  0.00  0.00    -0.037 C 
BRANCH  27  28
ATOM     28  C   UNL A   1      41.295 -16.198 -37.659  0.00  0.00    +0.009 C 
BRANCH  28  29
ATOM     29  N   UNL A   1      41.512 -17.578 -37.206  0.00  0.00    -0.343 N 
ATOM     30  H   UNL A   1      41.638 -18.347 -37.808  0.00  0.00    +0.000 HD
BRANCH  29  31
ATOM     31  C   UNL A   1      41.516 -17.665 -35.781  0.00  0.00    +0.041 A 
ATOM     32  C   UNL A   1      40.310 -17.982 -35.127  0.00  0.00    -0.005 A 
ATOM     33  C   UNL A   1      40.323 -18.032 -33.733  0.00  0.00    +0.047 A 
ATOM     34  N   UNL A   1      41.419 -17.741 -32.991  0.00  0.00    -0.251 NA
ATOM     35  C   UNL A   1      42.560 -17.419 -33.615  0.00  0.00    +0.073 A 
ATOM     36  C   UNL A   1      43.667 -17.130 -32.828  0.00  0.00    -0.036 A 
ATOM     37  C   UNL A   1      44.899 -16.783 -33.383  0.00  0.00    -0.060 A 
ATOM     38  C   UNL A   1      45.035 -16.719 -34.761  0.00  0.00    -0.061 A 
ATOM     39  C   UNL A   1      43.937 -17.006 -35.572  0.00  0.00    -0.051 A 
ATOM     40  C   UNL A   1      42.679 -17.360 -35.018  0.00  0.00    +0.021 A 
ATOM     41  C   UNL A   1      39.084 -18.363 -32.941  0.00  0.00    -0.010 C 
ATOM     42  C   UNL A   1      38.034 -19.112 -33.753  0.00  0.00    -0.047 C 
ATOM     43  C   UNL A   1      37.796 -18.398 -35.074  0.00  0.00    -0.049 C 
ATOM     44  C   UNL A   1      39.077 -18.373 -35.907  0.00  0.00    -0.024 C 
ENDBRANCH  29  31
ENDBRANCH  28  29
ENDBRANCH  27  28
ENDBRANCH  26  27
ENDBRANCH  25  26
ENDBRANCH  24  25
ENDBRANCH   2  24
TORSDOF 13
ENDMDL
