@<TRIPOS>MOLECULE
*****
 41 45 0 0 0
SMALL
GASTEIGER

@<TRIPOS>ATOM
      1 C           5.3007    4.9945    0.0000 C.1     1  UNL1       -0.0133
      2 C           4.4347    4.4945    0.0000 C.1     1  UNL1       -0.0660
      3 C           3.5686    3.9945    0.0000 C.3     1  UNL1        0.1342
      4 S           3.5686    2.9945    0.0000 S.3     1  UNL1       -0.1237
      5 C           2.7026    2.4945    0.0000 C.3     1  UNL1        0.0896
      6 C           2.7026    1.4945    0.0000 C.3     1  UNL1        0.1838
      7 N           3.5686    0.9945    0.0000 N.am    1  UNL1       -0.1968
      8 C           4.4347    1.4945    0.0000 C.2     1  UNL1        0.2418
      9 O           4.4347    2.4945    0.0000 O.2     1  UNL1       -0.2733
     10 C           5.3007    0.9945    0.0000 C.3     1  UNL1        0.0868
     11 C           6.1667    1.4945    0.0000 C.3     1  UNL1        0.0097
     12 C           7.0327    0.9945    0.0000 C.3     1  UNL1        0.0023
     13 C           7.8988    1.4945    0.0000 C.3     1  UNL1        0.0233
     14 C           8.7648    0.9945    0.0000 C.3     1  UNL1        0.1122
     15 N           9.6308    1.4945    0.0000 N.pl3   1  UNL1       -0.2378
     16 C          10.4968    0.9945    0.0000 C.ar    1  UNL1        0.0638
     17 C          10.4968   -0.0055    0.0000 C.ar    1  UNL1        0.0062
     18 C          11.3629   -0.5055    0.0000 C.ar    1  UNL1        0.0562
     19 N          12.2289   -0.0055    0.0000 N.ar    1  UNL1       -0.2499
     20 C          12.2289    0.9945    0.0000 C.ar    1  UNL1        0.0821
     21 C          13.0949    1.4945    0.0000 C.ar    1  UNL1        0.0191
     22 C          13.0949    2.4945    0.0000 C.ar    1  UNL1        0.0015
     23 C          12.2289    2.9945    0.0000 C.ar    1  UNL1        0.0001
     24 C          11.3629    2.4945    0.0000 C.ar    1  UNL1        0.0028
     25 C          11.3629    1.4945    0.0000 C.ar    1  UNL1        0.0322
     26 C          11.3629   -1.5055    0.0000 C.3     1  UNL1        0.0455
     27 C          10.4968   -2.0055    0.0000 C.3     1  UNL1        0.0066
     28 C           9.6308   -1.5055    0.0000 C.3     1  UNL1        0.0052
     29 C           9.6308   -0.5055    0.0000 C.3     1  UNL1        0.0289
     30 C           1.8366    0.9945    0.0000 C.2     1  UNL1        0.2680
     31 O           1.8366   -0.0055    0.0000 O.2     1  UNL1       -0.2710
     32 N           0.9706    1.4945    0.0000 N.am    1  UNL1       -0.1528
     33 C           0.1045    0.9945    0.0000 C.ar    1  UNL1        0.1858
     34 N          -0.8090    1.4013    0.0000 N.ar    1  UNL1       -0.2225
     35 C          -1.4781    0.6581    0.0000 C.ar    1  UNL1        0.0893
     36 C          -2.4781    0.6581    0.0000 C.ar    1  UNL1        0.0197
     37 C          -2.9781   -0.2079    0.0000 C.ar    1  UNL1        0.0016
     38 C          -2.4781   -1.0739    0.0000 C.ar    1  UNL1        0.0006
     39 C          -1.4781   -1.0739    0.0000 C.ar    1  UNL1        0.0081
     40 C          -0.9781   -0.2079    0.0000 C.ar    1  UNL1        0.0498
     41 S          -0.0000   -0.0000    0.0000 S.2     1  UNL1       -0.0497
@<TRIPOS>BOND
     1     1     2    3
     2     2     3    1
     3     3     4    1
     4     4     5    1
     5     5     6    1
     6     6     7    1
     7     7     8   am
     8     8     9    2
     9     8    10    1
    10    10    11    1
    11    11    12    1
    12    12    13    1
    13    13    14    1
    14    14    15    1
    15    15    16    1
    16    16    17   ar
    17    17    18   ar
    18    18    19   ar
    19    19    20   ar
    20    20    21   ar
    21    21    22   ar
    22    22    23   ar
    23    23    24   ar
    24    24    25   ar
    25    16    25   ar
    26    20    25   ar
    27    18    26    1
    28    26    27    1
    29    27    28    1
    30    28    29    1
    31    17    29    1
    32     6    30    1
    33    30    31    2
    34    30    32   am
    35    32    33    1
    36    33    34   ar
    37    34    35   ar
    38    35    36   ar
    39    36    37   ar
    40    37    38   ar
    41    38    39   ar
    42    39    40   ar
    43    35    40   ar
    44    40    41   ar
    45    33    41   ar
