REMARK  Name = cpd150.pdb
REMARK  13 active torsions:
REMARK  status: ('A' for Active; 'I' for Inactive)
REMARK    1  A    between atoms: C_2  and  C_3
REMARK    2  A    between atoms: C_3  and  S_4
REMARK    3  A    between atoms: S_4  and  C_5
REMARK    4  A    between atoms: C_5  and  C_6
REMARK    5  A    between atoms: C_6  and  N_7
REMARK    6  A    between atoms: C_6  and  C_30
REMARK    7  A    between atoms: C_8  and  C_10
REMARK    8  A    between atoms: C_10  and  C_11
REMARK    9  A    between atoms: C_11  and  C_12
REMARK   10  A    between atoms: C_12  and  C_13
REMARK   11  A    between atoms: C_13  and  C_14
REMARK   12  A    between atoms: C_14  and  N_15
REMARK   13  A    between atoms: N_15  and  C_16
REMARK                            x       y       z     vdW  Elec       q    Type
REMARK                         _______ _______ _______ _____ _____    ______ ____
ROOT
ATOM      1  N   UNL A   1       3.033   2.313   0.556  0.00  0.00    -0.303 N 
ATOM      2  C   UNL A   1       3.739   1.691  -0.454  0.00  0.00    +0.214 C 
ATOM      3  O   UNL A   1       3.297   1.524  -1.585  0.00  0.00    -0.276 OA
ATOM      4  H   UNL A   1       3.468   2.462   1.427  0.00  0.00    +0.000 HD
ENDROOT
BRANCH   1   5
ATOM      5  C   UNL A   1       1.649   2.756   0.359  0.00  0.00    +0.109 C 
BRANCH   5   6
ATOM      6  C   UNL A   1       0.720   1.509   0.435  0.00  0.00    +0.240 C 
ATOM      7  O   UNL A   1       1.142   0.460   0.925  0.00  0.00    -0.273 OA
ATOM      8  N   UNL A   1      -0.590   1.749   0.083  0.00  0.00    -0.263 N 
ATOM      9  C   UNL A   1      -1.622   0.843   0.077  0.00  0.00    +0.165 A 
ATOM     10  N   UNL A   1      -2.847   1.244  -0.157  0.00  0.00    -0.225 NA
ATOM     11  C   UNL A   1      -3.707   0.157  -0.115  0.00  0.00    +0.080 A 
ATOM     12  C   UNL A   1      -5.104   0.196  -0.300  0.00  0.00    -0.035 A 
ATOM     13  C   UNL A   1      -5.848  -0.987  -0.230  0.00  0.00    -0.060 A 
ATOM     14  C   UNL A   1      -5.218  -2.203   0.018  0.00  0.00    -0.061 A 
ATOM     15  C   UNL A   1      -3.834  -2.268   0.204  0.00  0.00    -0.046 A 
ATOM     16  C   UNL A   1      -3.098  -1.074   0.136  0.00  0.00    +0.041 A 
ATOM     17  S   UNL A   1      -1.407  -0.824   0.324  0.00  0.00    -0.052 S 
ATOM     18  H   UNL A   1      -0.810   2.668  -0.194  0.00  0.00    +0.000 HD
ENDBRANCH   5   6
BRANCH   5  19
ATOM     19  C   UNL A   1       1.423   3.660  -0.869  0.00  0.00    +0.022 C 
BRANCH  19  20
ATOM     20  S   UNL A   1       2.634   5.022  -1.124  0.00  0.00    -0.146 S 
BRANCH  20  21
ATOM     21  C   UNL A   1       2.588   5.821   0.507  0.00  0.00    +0.055 C 
BRANCH  21  23
ATOM     22  C   UNL A   1       4.079   8.034   0.534  0.00  0.00    -0.118 C 
ATOM     23  C   UNL A   1       3.404   7.041   0.520  0.00  0.00    -0.095 C 
ENDBRANCH  21  23
ENDBRANCH  20  21
ENDBRANCH  19  20
ENDBRANCH   5  19
ENDBRANCH   1   5
BRANCH   2  24
ATOM     24  C   UNL A   1       5.105   1.183  -0.034  0.00  0.00    +0.024 C 
BRANCH  24  25
ATOM     25  C   UNL A   1       5.973   2.291   0.565  0.00  0.00    -0.045 C 
BRANCH  25  26
ATOM     26  C   UNL A   1       7.369   1.815   0.972  0.00  0.00    -0.051 C 
BRANCH  26  27
ATOM     27  C   UNL A   1       8.273   1.503  -0.221  0.00  0.00    -0.037 C 
BRANCH  27  28
ATOM     28  C   UNL A   1       9.688   1.145   0.239  0.00  0.00    +0.009 C 
BRANCH  28  29
ATOM     29  N   UNL A   1      10.520   0.883  -0.943  0.00  0.00    -0.343 N 
ATOM     30  H   UNL A   1      10.221   1.014  -1.872  0.00  0.00    +0.000 HD
BRANCH  29  31
ATOM     31  C   UNL A   1      11.817   0.414  -0.575  0.00  0.00    +0.041 A 
ATOM     32  C   UNL A   1      12.023  -0.976  -0.479  0.00  0.00    -0.005 A 
ATOM     33  C   UNL A   1      13.287  -1.418  -0.087  0.00  0.00    +0.047 A 
ATOM     34  N   UNL A   1      14.294  -0.577   0.250  0.00  0.00    -0.251 NA
ATOM     35  C   UNL A   1      14.089   0.745   0.178  0.00  0.00    +0.073 A 
ATOM     36  C   UNL A   1      15.142   1.582   0.526  0.00  0.00    -0.036 A 
ATOM     37  C   UNL A   1      15.027   2.972   0.486  0.00  0.00    -0.060 A 
ATOM     38  C   UNL A   1      13.831   3.548   0.089  0.00  0.00    -0.061 A 
ATOM     39  C   UNL A   1      12.760   2.728  -0.266  0.00  0.00    -0.051 A 
ATOM     40  C   UNL A   1      12.865   1.313  -0.228  0.00  0.00    +0.021 A 
ATOM     41  C   UNL A   1      13.607  -2.885   0.045  0.00  0.00    -0.010 C 
ATOM     42  C   UNL A   1      12.664  -3.780  -0.751  0.00  0.00    -0.047 C 
ATOM     43  C   UNL A   1      11.221  -3.395  -0.463  0.00  0.00    -0.049 C 
ATOM     44  C   UNL A   1      10.953  -1.956  -0.901  0.00  0.00    -0.024 C 
ENDBRANCH  29  31
ENDBRANCH  28  29
ENDBRANCH  27  28
ENDBRANCH  26  27
ENDBRANCH  25  26
ENDBRANCH  24  25
ENDBRANCH   2  24
TORSDOF 13
