MODEL 1
REMARK VINA RESULT:    -8.735      0.000      0.000
REMARK INTER + INTRA:         -12.634
REMARK INTER:                 -12.054
REMARK INTRA:                  -0.580
REMARK UNBOUND:                -0.580
REMARK  Name = cpd68.pdb
REMARK  8 active torsions:
REMARK  status: ('A' for Active; 'I' for Inactive)
REMARK    1  A    between atoms: C_1  and  C_2
REMARK    2  A    between atoms: C_10  and  N_11
REMARK    3  A    between atoms: C_12  and  C_13
REMARK    4  A    between atoms: C_13  and  O_14
REMARK    5  A    between atoms: O_14  and  C_15
REMARK    6  A    between atoms: C_15  and  C_16
REMARK    7  A    between atoms: C_20  and  C_21
REMARK    8  A    between atoms: C_21  and  C_23
REMARK                            x       y       z     vdW  Elec       q    Type
REMARK                         _______ _______ _______ _____ _____    ______ ____
ROOT
ATOM      1  C   UNL A   1      35.318 -35.717 -29.433  0.00  0.00    +0.077 C 
ENDROOT
BRANCH   1  12
ATOM      2  C   UNL A   1      36.247 -33.314 -31.132  0.00  0.00    -0.022 C 
ATOM      3  C   UNL A   1      34.944 -33.353 -30.389  0.00  0.00    +0.046 A 
ATOM      4  N   UNL A   1      34.217 -32.212 -30.512  0.00  0.00    -0.251 NA
ATOM      5  C   UNL A   1      33.048 -32.098 -29.876  0.00  0.00    +0.073 A 
ATOM      6  C   UNL A   1      32.370 -30.890 -29.978  0.00  0.00    -0.036 A 
ATOM      7  C   UNL A   1      31.151 -30.668 -29.336  0.00  0.00    -0.060 A 
ATOM      8  C   UNL A   1      30.593 -31.678 -28.568  0.00  0.00    -0.061 A 
ATOM      9  C   UNL A   1      31.255 -32.900 -28.457  0.00  0.00    -0.051 A 
ATOM     10  C   UNL A   1      32.490 -33.141 -29.116  0.00  0.00    +0.021 A 
ATOM     11  C   UNL A   1      33.209 -34.371 -29.073  0.00  0.00    +0.041 A 
ATOM     12  C   UNL A   1      34.510 -34.450 -29.634  0.00  0.00    +0.020 A 
BRANCH  11  13
ATOM     13  N   UNL A   1      32.709 -35.451 -28.295  0.00  0.00    -0.357 N 
ATOM     14  H   UNL A   1      31.738 -35.578 -28.196  0.00  0.00    +0.000 HD
ATOM     15  H   UNL A   1      33.334 -36.072 -27.855  0.00  0.00    +0.000 HD
ENDBRANCH  11  13
ENDBRANCH   1  12
BRANCH   1  16
ATOM     16  O   UNL A   1      35.699 -36.394 -30.629  0.00  0.00    -0.370 OA
BRANCH  16  17
ATOM     17  C   UNL A   1      36.191 -37.713 -30.395  0.00  0.00    +0.073 C 
BRANCH  17  18
ATOM     18  C   UNL A   1      37.642 -37.708 -29.981  0.00  0.00    -0.021 A 
ATOM     19  C   UNL A   1      38.029 -38.247 -28.749  0.00  0.00    -0.056 A 
ATOM     20  C   UNL A   1      39.368 -38.226 -28.359  0.00  0.00    -0.061 A 
ATOM     21  C   UNL A   1      40.337 -37.659 -29.190  0.00  0.00    -0.051 A 
ATOM     22  C   UNL A   1      39.970 -37.109 -30.424  0.00  0.00    +0.027 A 
ATOM     23  C   UNL A   1      38.620 -37.141 -30.812  0.00  0.00    -0.046 A 
BRANCH  22  24
ATOM     24  C   UNL A   1      40.952 -36.468 -31.350  0.00  0.00    +0.265 C 
ATOM     25  O   UNL A   1      40.864 -35.253 -31.549  0.00  0.00    -0.283 OA
BRANCH  24  26
ATOM     26  C   UNL A   1      42.020 -37.342 -31.987  0.00  0.00    +0.455 C 
ATOM     27  F   UNL A   1      43.268 -36.805 -31.872  0.00  0.00    -0.163 F 
ATOM     28  F   UNL A   1      41.809 -37.523 -33.322  0.00  0.00    -0.163 F 
ATOM     29  F   UNL A   1      42.091 -38.586 -31.442  0.00  0.00    -0.163 F 
ENDBRANCH  24  26
ENDBRANCH  22  24
ENDBRANCH  17  18
ENDBRANCH  16  17
ENDBRANCH   1  16
TORSDOF 7
ENDMDL
MODEL 2
REMARK VINA RESULT:    -8.473      1.191      2.099
REMARK INTER + INTRA:         -12.273
REMARK INTER:                 -11.723
REMARK INTRA:                  -0.550
REMARK UNBOUND:                -0.580
REMARK  Name = cpd68.pdb
REMARK  8 active torsions:
REMARK  status: ('A' for Active; 'I' for Inactive)
REMARK    1  A    between atoms: C_1  and  C_2
REMARK    2  A    between atoms: C_10  and  N_11
REMARK    3  A    between atoms: C_12  and  C_13
REMARK    4  A    between atoms: C_13  and  O_14
REMARK    5  A    between atoms: O_14  and  C_15
REMARK    6  A    between atoms: C_15  and  C_16
REMARK    7  A    between atoms: C_20  and  C_21
REMARK    8  A    between atoms: C_21  and  C_23
REMARK                            x       y       z     vdW  Elec       q    Type
REMARK                         _______ _______ _______ _____ _____    ______ ____
ROOT
ATOM      1  C   UNL A   1      34.779 -35.615 -31.783  0.00  0.00    +0.077 C 
ENDROOT
BRANCH   1  12
ATOM      2  C   UNL A   1      32.265 -36.782 -30.426  0.00  0.00    -0.022 C 
ATOM      3  C   UNL A   1      32.572 -35.314 -30.487  0.00  0.00    +0.046 A 
ATOM      4  N   UNL A   1      31.619 -34.538 -29.907  0.00  0.00    -0.251 NA
ATOM      5  C   UNL A   1      31.750 -33.208 -29.917  0.00  0.00    +0.073 A 
ATOM      6  C   UNL A   1      30.720 -32.452 -29.371  0.00  0.00    -0.036 A 
ATOM      7  C   UNL A   1      30.757 -31.058 -29.351  0.00  0.00    -0.060 A 
ATOM      8  C   UNL A   1      31.848 -30.397 -29.891  0.00  0.00    -0.061 A 
ATOM      9  C   UNL A   1      32.895 -31.138 -30.440  0.00  0.00    -0.051 A 
ATOM     10  C   UNL A   1      32.874 -32.558 -30.455  0.00  0.00    +0.021 A 
ATOM     11  C   UNL A   1      33.917 -33.382 -30.970  0.00  0.00    +0.041 A 
ATOM     12  C   UNL A   1      33.722 -34.783 -31.083  0.00  0.00    +0.020 A 
BRANCH  11  13
ATOM     13  N   UNL A   1      35.065 -32.779 -31.555  0.00  0.00    -0.357 N 
ATOM     14  H   UNL A   1      35.784 -32.431 -30.981  0.00  0.00    +0.000 HD
ATOM     15  H   UNL A   1      35.140 -32.711 -32.535  0.00  0.00    +0.000 HD
ENDBRANCH  11  13
ENDBRANCH   1  12
BRANCH   1  16
ATOM     16  O   UNL A   1      36.077 -35.573 -31.193  0.00  0.00    -0.370 OA
BRANCH  16  17
ATOM     17  C   UNL A   1      36.180 -36.357 -30.006  0.00  0.00    +0.073 C 
BRANCH  17  18
ATOM     18  C   UNL A   1      37.574 -36.901 -29.808  0.00  0.00    -0.021 A 
ATOM     19  C   UNL A   1      37.859 -37.739 -28.725  0.00  0.00    -0.056 A 
ATOM     20  C   UNL A   1      39.152 -38.226 -28.531  0.00  0.00    -0.061 A 
ATOM     21  C   UNL A   1      40.178 -37.876 -29.412  0.00  0.00    -0.051 A 
ATOM     22  C   UNL A   1      39.915 -37.033 -30.498  0.00  0.00    +0.027 A 
ATOM     23  C   UNL A   1      38.608 -36.552 -30.689  0.00  0.00    -0.046 A 
BRANCH  22  24
ATOM     24  C   UNL A   1      40.970 -36.600 -31.464  0.00  0.00    +0.265 C 
ATOM     25  O   UNL A   1      40.876 -35.480 -31.973  0.00  0.00    -0.283 OA
BRANCH  24  26
ATOM     26  C   UNL A   1      42.115 -37.556 -31.757  0.00  0.00    +0.455 C 
ATOM     27  F   UNL A   1      43.333 -37.009 -31.480  0.00  0.00    -0.163 F 
ATOM     28  F   UNL A   1      42.156 -37.924 -33.069  0.00  0.00    -0.163 F 
ATOM     29  F   UNL A   1      42.048 -38.711 -31.042  0.00  0.00    -0.163 F 
ENDBRANCH  24  26
ENDBRANCH  22  24
ENDBRANCH  17  18
ENDBRANCH  16  17
ENDBRANCH   1  16
TORSDOF 7
ENDMDL
MODEL 3
REMARK VINA RESULT:    -8.428      5.424      9.375
REMARK INTER + INTRA:         -12.211
REMARK INTER:                 -11.294
REMARK INTRA:                  -0.917
REMARK UNBOUND:                -0.580
REMARK  Name = cpd68.pdb
REMARK  8 active torsions:
REMARK  status: ('A' for Active; 'I' for Inactive)
REMARK    1  A    between atoms: C_1  and  C_2
REMARK    2  A    between atoms: C_10  and  N_11
REMARK    3  A    between atoms: C_12  and  C_13
REMARK    4  A    between atoms: C_13  and  O_14
REMARK    5  A    between atoms: O_14  and  C_15
REMARK    6  A    between atoms: C_15  and  C_16
REMARK    7  A    between atoms: C_20  and  C_21
REMARK    8  A    between atoms: C_21  and  C_23
REMARK                            x       y       z     vdW  Elec       q    Type
REMARK                         _______ _______ _______ _____ _____    ______ ____
ROOT
ATOM      1  C   UNL A   1      35.780 -36.747 -29.868  0.00  0.00    +0.077 C 
ENDROOT
BRANCH   1  12
ATOM      2  C   UNL A   1      37.773 -38.202 -28.014  0.00  0.00    -0.022 C 
ATOM      3  C   UNL A   1      38.176 -37.484 -29.268  0.00  0.00    +0.046 A 
ATOM      4  N   UNL A   1      39.514 -37.512 -29.500  0.00  0.00    -0.251 NA
ATOM      5  C   UNL A   1      40.016 -36.884 -30.568  0.00  0.00    +0.073 A 
ATOM      6  C   UNL A   1      41.396 -36.883 -30.730  0.00  0.00    -0.036 A 
ATOM      7  C   UNL A   1      42.015 -36.241 -31.803  0.00  0.00    -0.060 A 
ATOM      8  C   UNL A   1      41.238 -35.578 -32.739  0.00  0.00    -0.061 A 
ATOM      9  C   UNL A   1      39.850 -35.571 -32.598  0.00  0.00    -0.051 A 
ATOM     10  C   UNL A   1      39.209 -36.232 -31.517  0.00  0.00    +0.021 A 
ATOM     11  C   UNL A   1      37.798 -36.294 -31.322  0.00  0.00    +0.041 A 
ATOM     12  C   UNL A   1      37.272 -36.841 -30.122  0.00  0.00    +0.020 A 
BRANCH  11  13
ATOM     13  N   UNL A   1      36.933 -35.626 -32.232  0.00  0.00    -0.357 N 
ATOM     14  H   UNL A   1      37.249 -35.402 -33.136  0.00  0.00    +0.000 HD
ATOM     15  H   UNL A   1      36.018 -35.389 -31.957  0.00  0.00    +0.000 HD
ENDBRANCH  11  13
ENDBRANCH   1  12
BRANCH   1  16
ATOM     16  O   UNL A   1      35.327 -35.496 -29.355  0.00  0.00    -0.370 OA
BRANCH  16  17
ATOM     17  C   UNL A   1      33.917 -35.316 -29.479  0.00  0.00    +0.073 C 
BRANCH  17  18
ATOM     18  C   UNL A   1      33.564 -33.922 -29.937  0.00  0.00    -0.021 A 
ATOM     19  C   UNL A   1      34.535 -33.103 -30.523  0.00  0.00    -0.056 A 
ATOM     20  C   UNL A   1      34.214 -31.807 -30.929  0.00  0.00    -0.061 A 
ATOM     21  C   UNL A   1      32.921 -31.311 -30.748  0.00  0.00    -0.051 A 
ATOM     22  C   UNL A   1      31.936 -32.112 -30.157  0.00  0.00    +0.027 A 
ATOM     23  C   UNL A   1      32.268 -33.418 -29.757  0.00  0.00    -0.046 A 
BRANCH  22  24
ATOM     24  C   UNL A   1      30.541 -31.636 -29.913  0.00  0.00    +0.265 C 
ATOM     25  O   UNL A   1      29.657 -31.983 -30.700  0.00  0.00    -0.283 OA
BRANCH  24  26
ATOM     26  C   UNL A   1      30.279 -30.763 -28.696  0.00  0.00    +0.455 C 
ATOM     27  F   UNL A   1      29.092 -30.097 -28.780  0.00  0.00    -0.163 F 
ATOM     28  F   UNL A   1      31.238 -29.807 -28.533  0.00  0.00    -0.163 F 
ATOM     29  F   UNL A   1      30.239 -31.463 -27.531  0.00  0.00    -0.163 F 
ENDBRANCH  24  26
ENDBRANCH  22  24
ENDBRANCH  17  18
ENDBRANCH  16  17
ENDBRANCH   1  16
TORSDOF 7
ENDMDL
MODEL 4
REMARK VINA RESULT:    -8.405      4.614      7.870
REMARK INTER + INTRA:         -12.179
REMARK INTER:                 -10.734
REMARK INTRA:                  -1.445
REMARK UNBOUND:                -0.580
REMARK  Name = cpd68.pdb
REMARK  8 active torsions:
REMARK  status: ('A' for Active; 'I' for Inactive)
REMARK    1  A    between atoms: C_1  and  C_2
REMARK    2  A    between atoms: C_10  and  N_11
REMARK    3  A    between atoms: C_12  and  C_13
REMARK    4  A    between atoms: C_13  and  O_14
REMARK    5  A    between atoms: O_14  and  C_15
REMARK    6  A    between atoms: C_15  and  C_16
REMARK    7  A    between atoms: C_20  and  C_21
REMARK    8  A    between atoms: C_21  and  C_23
REMARK                            x       y       z     vdW  Elec       q    Type
REMARK                         _______ _______ _______ _____ _____    ______ ____
ROOT
ATOM      1  C   UNL A   1      37.142 -38.156 -27.982  0.00  0.00    +0.077 C 
ENDROOT
BRANCH   1  12
ATOM      2  C   UNL A   1      36.485 -35.880 -29.961  0.00  0.00    -0.022 C 
ATOM      3  C   UNL A   1      37.809 -36.586 -29.914  0.00  0.00    +0.046 A 
ATOM      4  N   UNL A   1      38.690 -36.145 -30.850  0.00  0.00    -0.251 NA
ATOM      5  C   UNL A   1      39.898 -36.708 -30.941  0.00  0.00    +0.073 A 
ATOM      6  C   UNL A   1      40.742 -36.269 -31.954  0.00  0.00    -0.036 A 
ATOM      7  C   UNL A   1      42.015 -36.808 -32.142  0.00  0.00    -0.060 A 
ATOM      8  C   UNL A   1      42.460 -37.813 -31.299  0.00  0.00    -0.061 A 
ATOM      9  C   UNL A   1      41.630 -38.264 -30.272  0.00  0.00    -0.051 A 
ATOM     10  C   UNL A   1      40.337 -37.715 -30.064  0.00  0.00    +0.021 A 
ATOM     11  C   UNL A   1      39.446 -38.103 -29.021  0.00  0.00    +0.041 A 
ATOM     12  C   UNL A   1      38.117 -37.604 -29.004  0.00  0.00    +0.020 A 
BRANCH  11  13
ATOM     13  N   UNL A   1      39.823 -39.138 -28.123  0.00  0.00    -0.357 N 
ATOM     14  H   UNL A   1      39.159 -39.803 -27.832  0.00  0.00    +0.000 HD
ATOM     15  H   UNL A   1      40.749 -39.190 -27.793  0.00  0.00    +0.000 HD
ENDBRANCH  11  13
ENDBRANCH   1  12
BRANCH   1  16
ATOM     16  O   UNL A   1      36.018 -38.848 -28.523  0.00  0.00    -0.370 OA
BRANCH  16  17
ATOM     17  C   UNL A   1      36.381 -39.867 -29.453  0.00  0.00    +0.073 C 
BRANCH  17  18
ATOM     18  C   UNL A   1      35.474 -39.879 -30.659  0.00  0.00    -0.021 A 
ATOM     19  C   UNL A   1      35.570 -40.903 -31.607  0.00  0.00    -0.056 A 
ATOM     20  C   UNL A   1      34.745 -40.903 -32.732  0.00  0.00    -0.061 A 
ATOM     21  C   UNL A   1      33.818 -39.876 -32.927  0.00  0.00    -0.051 A 
ATOM     22  C   UNL A   1      33.710 -38.839 -31.994  0.00  0.00    +0.027 A 
ATOM     23  C   UNL A   1      34.541 -38.850 -30.861  0.00  0.00    -0.046 A 
BRANCH  22  24
ATOM     24  C   UNL A   1      32.756 -37.699 -32.153  0.00  0.00    +0.265 C 
ATOM     25  O   UNL A   1      31.547 -37.939 -32.132  0.00  0.00    -0.283 OA
BRANCH  24  26
ATOM     26  C   UNL A   1      33.327 -36.299 -32.315  0.00  0.00    +0.455 C 
ATOM     27  F   UNL A   1      33.354 -35.610 -31.139  0.00  0.00    -0.163 F 
ATOM     28  F   UNL A   1      32.595 -35.541 -33.180  0.00  0.00    -0.163 F 
ATOM     29  F   UNL A   1      34.602 -36.290 -32.789  0.00  0.00    -0.163 F 
ENDBRANCH  24  26
ENDBRANCH  22  24
ENDBRANCH  17  18
ENDBRANCH  16  17
ENDBRANCH   1  16
TORSDOF 7
ENDMDL
MODEL 5
REMARK VINA RESULT:    -8.338      5.373      9.571
REMARK INTER + INTRA:         -12.087
REMARK INTER:                 -11.333
REMARK INTRA:                  -0.754
REMARK UNBOUND:                -0.580
REMARK  Name = cpd68.pdb
REMARK  8 active torsions:
REMARK  status: ('A' for Active; 'I' for Inactive)
REMARK    1  A    between atoms: C_1  and  C_2
REMARK    2  A    between atoms: C_10  and  N_11
REMARK    3  A    between atoms: C_12  and  C_13
REMARK    4  A    between atoms: C_13  and  O_14
REMARK    5  A    between atoms: O_14  and  C_15
REMARK    6  A    between atoms: C_15  and  C_16
REMARK    7  A    between atoms: C_20  and  C_21
REMARK    8  A    between atoms: C_21  and  C_23
REMARK                            x       y       z     vdW  Elec       q    Type
REMARK                         _______ _______ _______ _____ _____    ______ ____
ROOT
ATOM      1  C   UNL A   1      36.080 -35.627 -30.930  0.00  0.00    +0.077 C 
ENDROOT
BRANCH   1  12
ATOM      2  C   UNL A   1      36.823 -37.218 -28.391  0.00  0.00    -0.022 C 
ATOM      3  C   UNL A   1      37.770 -36.980 -29.531  0.00  0.00    +0.046 A 
ATOM      4  N   UNL A   1      39.004 -37.511 -29.329  0.00  0.00    -0.251 NA
ATOM      5  C   UNL A   1      39.957 -37.348 -30.252  0.00  0.00    +0.073 A 
ATOM      6  C   UNL A   1      41.221 -37.852 -29.973  0.00  0.00    -0.036 A 
ATOM      7  C   UNL A   1      42.285 -37.716 -30.866  0.00  0.00    -0.060 A 
ATOM      8  C   UNL A   1      42.085 -37.056 -32.068  0.00  0.00    -0.061 A 
ATOM      9  C   UNL A   1      40.822 -36.547 -32.368  0.00  0.00    -0.051 A 
ATOM     10  C   UNL A   1      39.729 -36.691 -31.473  0.00  0.00    +0.021 A 
ATOM     11  C   UNL A   1      38.405 -36.224 -31.723  0.00  0.00    +0.041 A 
ATOM     12  C   UNL A   1      37.430 -36.277 -30.693  0.00  0.00    +0.020 A 
BRANCH  11  13
ATOM     13  N   UNL A   1      38.122 -35.525 -32.928  0.00  0.00    -0.357 N 
ATOM     14  H   UNL A   1      38.853 -35.107 -33.437  0.00  0.00    +0.000 HD
ATOM     15  H   UNL A   1      37.195 -35.459 -33.253  0.00  0.00    +0.000 HD
ENDBRANCH  11  13
ENDBRANCH   1  12
BRANCH   1  16
ATOM     16  O   UNL A   1      35.816 -34.466 -30.144  0.00  0.00    -0.370 OA
BRANCH  16  17
ATOM     17  C   UNL A   1      34.838 -33.606 -30.726  0.00  0.00    +0.073 C 
BRANCH  17  18
ATOM     18  C   UNL A   1      33.624 -33.452 -29.842  0.00  0.00    -0.021 A 
ATOM     19  C   UNL A   1      33.305 -34.437 -28.901  0.00  0.00    -0.056 A 
ATOM     20  C   UNL A   1      32.173 -34.304 -28.097  0.00  0.00    -0.061 A 
ATOM     21  C   UNL A   1      31.341 -33.190 -28.228  0.00  0.00    -0.051 A 
ATOM     22  C   UNL A   1      31.639 -32.196 -29.168  0.00  0.00    +0.027 A 
ATOM     23  C   UNL A   1      32.785 -32.336 -29.969  0.00  0.00    -0.046 A 
BRANCH  22  24
ATOM     24  C   UNL A   1      30.779 -30.991 -29.375  0.00  0.00    +0.265 C 
ATOM     25  O   UNL A   1      30.906 -30.040 -28.599  0.00  0.00    -0.283 OA
BRANCH  24  26
ATOM     26  C   UNL A   1      29.807 -30.991 -30.543  0.00  0.00    +0.455 C 
ATOM     27  F   UNL A   1      28.774 -30.121 -30.360  0.00  0.00    -0.163 F 
ATOM     28  F   UNL A   1      29.239 -32.215 -30.741  0.00  0.00    -0.163 F 
ATOM     29  F   UNL A   1      30.387 -30.647 -31.725  0.00  0.00    -0.163 F 
ENDBRANCH  24  26
ENDBRANCH  22  24
ENDBRANCH  17  18
ENDBRANCH  16  17
ENDBRANCH   1  16
TORSDOF 7
ENDMDL
MODEL 6
REMARK VINA RESULT:    -8.257     15.589     18.367
REMARK INTER + INTRA:         -11.974
REMARK INTER:                 -11.094
REMARK INTRA:                  -0.880
REMARK UNBOUND:                -0.580
REMARK  Name = cpd68.pdb
REMARK  8 active torsions:
REMARK  status: ('A' for Active; 'I' for Inactive)
REMARK    1  A    between atoms: C_1  and  C_2
REMARK    2  A    between atoms: C_10  and  N_11
REMARK    3  A    between atoms: C_12  and  C_13
REMARK    4  A    between atoms: C_13  and  O_14
REMARK    5  A    between atoms: O_14  and  C_15
REMARK    6  A    between atoms: C_15  and  C_16
REMARK    7  A    between atoms: C_20  and  C_21
REMARK    8  A    between atoms: C_21  and  C_23
REMARK                            x       y       z     vdW  Elec       q    Type
REMARK                         _______ _______ _______ _____ _____    ______ ____
ROOT
ATOM      1  C   UNL A   1      43.979 -20.160 -37.925  0.00  0.00    +0.077 C 
ENDROOT
BRANCH   1  12
ATOM      2  C   UNL A   1      42.586 -20.862 -40.588  0.00  0.00    -0.022 C 
ATOM      3  C   UNL A   1      44.024 -21.174 -40.294  0.00  0.00    +0.046 A 
ATOM      4  N   UNL A   1      44.654 -21.824 -41.307  0.00  0.00    -0.251 NA
ATOM      5  C   UNL A   1      45.931 -22.192 -41.167  0.00  0.00    +0.073 A 
ATOM      6  C   UNL A   1      46.515 -22.911 -42.202  0.00  0.00    -0.036 A 
ATOM      7  C   UNL A   1      47.836 -23.354 -42.142  0.00  0.00    -0.060 A 
ATOM      8  C   UNL A   1      48.598 -23.074 -41.018  0.00  0.00    -0.061 A 
ATOM      9  C   UNL A   1      48.031 -22.349 -39.970  0.00  0.00    -0.051 A 
ATOM     10  C   UNL A   1      46.691 -21.883 -40.026  0.00  0.00    +0.021 A 
ATOM     11  C   UNL A   1      46.054 -21.113 -39.009  0.00  0.00    +0.041 A 
ATOM     12  C   UNL A   1      44.664 -20.838 -39.095  0.00  0.00    +0.020 A 
BRANCH  11  13
ATOM     13  N   UNL A   1      46.764 -20.797 -37.818  0.00  0.00    -0.357 N 
ATOM     14  H   UNL A   1      47.740 -20.914 -37.781  0.00  0.00    +0.000 HD
ATOM     15  H   UNL A   1      46.279 -20.460 -37.030  0.00  0.00    +0.000 HD
ENDBRANCH  11  13
ENDBRANCH   1  12
BRANCH   1  16
ATOM     16  O   UNL A   1      43.575 -21.027 -36.868  0.00  0.00    -0.370 OA
BRANCH  16  17
ATOM     17  C   UNL A   1      42.160 -21.187 -36.782  0.00  0.00    +0.073 C 
BRANCH  17  18
ATOM     18  C   UNL A   1      41.685 -21.250 -35.351  0.00  0.00    -0.021 A 
ATOM     19  C   UNL A   1      42.072 -20.268 -34.433  0.00  0.00    -0.056 A 
ATOM     20  C   UNL A   1      41.649 -20.337 -33.106  0.00  0.00    -0.061 A 
ATOM     21  C   UNL A   1      40.839 -21.392 -32.677  0.00  0.00    -0.051 A 
ATOM     22  C   UNL A   1      40.446 -22.388 -33.577  0.00  0.00    +0.027 A 
ATOM     23  C   UNL A   1      40.872 -22.307 -34.914  0.00  0.00    -0.046 A 
BRANCH  22  24
ATOM     24  C   UNL A   1      39.601 -23.555 -33.180  0.00  0.00    +0.265 C 
ATOM     25  O   UNL A   1      40.051 -24.349 -32.350  0.00  0.00    -0.283 OA
BRANCH  24  26
ATOM     26  C   UNL A   1      38.222 -23.692 -33.805  0.00  0.00    +0.455 C 
ATOM     27  F   UNL A   1      38.279 -24.099 -35.105  0.00  0.00    -0.163 F 
ATOM     28  F   UNL A   1      37.538 -22.513 -33.807  0.00  0.00    -0.163 F 
ATOM     29  F   UNL A   1      37.428 -24.591 -33.162  0.00  0.00    -0.163 F 
ENDBRANCH  24  26
ENDBRANCH  22  24
ENDBRANCH  17  18
ENDBRANCH  16  17
ENDBRANCH   1  16
TORSDOF 7
ENDMDL
MODEL 7
REMARK VINA RESULT:    -8.152      4.012      7.972
REMARK INTER + INTRA:         -11.829
REMARK INTER:                 -10.721
REMARK INTRA:                  -1.108
REMARK UNBOUND:                -0.580
REMARK  Name = cpd68.pdb
REMARK  8 active torsions:
REMARK  status: ('A' for Active; 'I' for Inactive)
REMARK    1  A    between atoms: C_1  and  C_2
REMARK    2  A    between atoms: C_10  and  N_11
REMARK    3  A    between atoms: C_12  and  C_13
REMARK    4  A    between atoms: C_13  and  O_14
REMARK    5  A    between atoms: O_14  and  C_15
REMARK    6  A    between atoms: C_15  and  C_16
REMARK    7  A    between atoms: C_20  and  C_21
REMARK    8  A    between atoms: C_21  and  C_23
REMARK                            x       y       z     vdW  Elec       q    Type
REMARK                         _______ _______ _______ _____ _____    ______ ____
ROOT
ATOM      1  C   UNL A   1      36.625 -37.508 -29.509  0.00  0.00    +0.077 C 
ENDROOT
BRANCH   1  12
ATOM      2  C   UNL A   1      38.923 -38.911 -28.001  0.00  0.00    -0.022 C 
ATOM      3  C   UNL A   1      39.135 -37.970 -29.152  0.00  0.00    +0.046 A 
ATOM      4  N   UNL A   1      40.445 -37.772 -29.453  0.00  0.00    -0.251 NA
ATOM      5  C   UNL A   1      40.779 -36.933 -30.438  0.00  0.00    +0.073 A 
ATOM      6  C   UNL A   1      42.131 -36.710 -30.669  0.00  0.00    -0.036 A 
ATOM      7  C   UNL A   1      42.579 -35.840 -31.662  0.00  0.00    -0.060 A 
ATOM      8  C   UNL A   1      41.654 -35.169 -32.447  0.00  0.00    -0.061 A 
ATOM      9  C   UNL A   1      40.292 -35.382 -32.235  0.00  0.00    -0.051 A 
ATOM     10  C   UNL A   1      39.825 -36.276 -31.235  0.00  0.00    +0.021 A 
ATOM     11  C   UNL A   1      38.453 -36.566 -30.979  0.00  0.00    +0.041 A 
ATOM     12  C   UNL A   1      38.094 -37.349 -29.851  0.00  0.00    +0.020 A 
BRANCH  11  13
ATOM     13  N   UNL A   1      37.443 -35.908 -31.732  0.00  0.00    -0.357 N 
ATOM     14  H   UNL A   1      37.636 -35.594 -32.645  0.00  0.00    +0.000 HD
ATOM     15  H   UNL A   1      36.551 -35.766 -31.341  0.00  0.00    +0.000 HD
ENDBRANCH  11  13
ENDBRANCH   1  12
BRANCH   1  16
ATOM     16  O   UNL A   1      35.802 -37.997 -30.566  0.00  0.00    -0.370 OA
BRANCH  16  17
ATOM     17  C   UNL A   1      34.438 -38.165 -30.184  0.00  0.00    +0.073 C 
BRANCH  17  18
ATOM     18  C   UNL A   1      33.748 -36.843 -29.956  0.00  0.00    -0.021 A 
ATOM     19  C   UNL A   1      32.800 -36.705 -28.937  0.00  0.00    -0.056 A 
ATOM     20  C   UNL A   1      32.148 -35.488 -28.739  0.00  0.00    -0.061 A 
ATOM     21  C   UNL A   1      32.431 -34.394 -29.560  0.00  0.00    -0.051 A 
ATOM     22  C   UNL A   1      33.371 -34.512 -30.590  0.00  0.00    +0.027 A 
ATOM     23  C   UNL A   1      34.027 -35.741 -30.778  0.00  0.00    -0.046 A 
BRANCH  22  24
ATOM     24  C   UNL A   1      33.704 -33.389 -31.519  0.00  0.00    +0.265 C 
ATOM     25  O   UNL A   1      33.390 -33.499 -32.707  0.00  0.00    -0.283 OA
BRANCH  24  26
ATOM     26  C   UNL A   1      34.395 -32.162 -30.948  0.00  0.00    +0.455 C 
ATOM     27  F   UNL A   1      33.517 -31.291 -30.374  0.00  0.00    -0.163 F 
ATOM     28  F   UNL A   1      35.058 -31.453 -31.905  0.00  0.00    -0.163 F 
ATOM     29  F   UNL A   1      35.314 -32.459 -29.990  0.00  0.00    -0.163 F 
ENDBRANCH  24  26
ENDBRANCH  22  24
ENDBRANCH  17  18
ENDBRANCH  16  17
ENDBRANCH   1  16
TORSDOF 7
ENDMDL
MODEL 8
REMARK VINA RESULT:    -8.150      4.100      8.058
REMARK INTER + INTRA:         -11.826
REMARK INTER:                 -10.707
REMARK INTRA:                  -1.119
REMARK UNBOUND:                -0.580
REMARK  Name = cpd68.pdb
REMARK  8 active torsions:
REMARK  status: ('A' for Active; 'I' for Inactive)
REMARK    1  A    between atoms: C_1  and  C_2
REMARK    2  A    between atoms: C_10  and  N_11
REMARK    3  A    between atoms: C_12  and  C_13
REMARK    4  A    between atoms: C_13  and  O_14
REMARK    5  A    between atoms: O_14  and  C_15
REMARK    6  A    between atoms: C_15  and  C_16
REMARK    7  A    between atoms: C_20  and  C_21
REMARK    8  A    between atoms: C_21  and  C_23
REMARK                            x       y       z     vdW  Elec       q    Type
REMARK                         _______ _______ _______ _____ _____    ______ ____
ROOT
ATOM      1  C   UNL A   1      36.512 -37.168 -29.090  0.00  0.00    +0.077 C 
ENDROOT
BRANCH   1  12
ATOM      2  C   UNL A   1      36.700 -34.780 -31.035  0.00  0.00    -0.022 C 
ATOM      3  C   UNL A   1      37.857 -35.675 -30.703  0.00  0.00    +0.046 A 
ATOM      4  N   UNL A   1      38.999 -35.350 -31.364  0.00  0.00    -0.251 NA
ATOM      5  C   UNL A   1      40.101 -36.084 -31.185  0.00  0.00    +0.073 A 
ATOM      6  C   UNL A   1      41.226 -35.755 -31.931  0.00  0.00    -0.036 A 
ATOM      7  C   UNL A   1      42.418 -36.472 -31.828  0.00  0.00    -0.060 A 
ATOM      8  C   UNL A   1      42.491 -37.550 -30.960  0.00  0.00    -0.061 A 
ATOM      9  C   UNL A   1      41.374 -37.893 -30.198  0.00  0.00    -0.051 A 
ATOM     10  C   UNL A   1      40.160 -37.163 -30.286  0.00  0.00    +0.021 A 
ATOM     11  C   UNL A   1      38.988 -37.436 -29.521  0.00  0.00    +0.041 A 
ATOM     12  C   UNL A   1      37.781 -36.746 -29.805  0.00  0.00    +0.020 A 
BRANCH  11  13
ATOM     13  N   UNL A   1      38.979 -38.534 -28.618  0.00  0.00    -0.357 N 
ATOM     14  H   UNL A   1      39.769 -38.721 -28.062  0.00  0.00    +0.000 HD
ATOM     15  H   UNL A   1      38.182 -39.107 -28.549  0.00  0.00    +0.000 HD
ENDBRANCH  11  13
ENDBRANCH   1  12
BRANCH   1  16
ATOM     16  O   UNL A   1      35.449 -37.598 -29.937  0.00  0.00    -0.370 OA
BRANCH  16  17
ATOM     17  C   UNL A   1      34.220 -37.796 -29.239  0.00  0.00    +0.073 C 
BRANCH  17  18
ATOM     18  C   UNL A   1      33.541 -36.489 -28.909  0.00  0.00    -0.021 A 
ATOM     19  C   UNL A   1      32.915 -36.310 -27.671  0.00  0.00    -0.056 A 
ATOM     20  C   UNL A   1      32.271 -35.108 -27.374  0.00  0.00    -0.061 A 
ATOM     21  C   UNL A   1      32.239 -34.074 -28.312  0.00  0.00    -0.051 A 
ATOM     22  C   UNL A   1      32.854 -34.235 -29.559  0.00  0.00    +0.027 A 
ATOM     23  C   UNL A   1      33.505 -35.447 -29.847  0.00  0.00    -0.046 A 
BRANCH  22  24
ATOM     24  C   UNL A   1      32.837 -33.179 -30.616  0.00  0.00    +0.265 C 
ATOM     25  O   UNL A   1      31.967 -33.236 -31.489  0.00  0.00    -0.283 OA
BRANCH  24  26
ATOM     26  C   UNL A   1      33.882 -32.077 -30.550  0.00  0.00    +0.455 C 
ATOM     27  F   UNL A   1      33.326 -30.841 -30.396  0.00  0.00    -0.163 F 
ATOM     28  F   UNL A   1      34.635 -32.013 -31.685  0.00  0.00    -0.163 F 
ATOM     29  F   UNL A   1      34.758 -32.228 -29.521  0.00  0.00    -0.163 F 
ENDBRANCH  24  26
ENDBRANCH  22  24
ENDBRANCH  17  18
ENDBRANCH  16  17
ENDBRANCH   1  16
TORSDOF 7
ENDMDL
MODEL 9
REMARK VINA RESULT:    -8.146      4.524      7.075
REMARK INTER + INTRA:         -11.822
REMARK INTER:                 -10.975
REMARK INTRA:                  -0.847
REMARK UNBOUND:                -0.580
REMARK  Name = cpd68.pdb
REMARK  8 active torsions:
REMARK  status: ('A' for Active; 'I' for Inactive)
REMARK    1  A    between atoms: C_1  and  C_2
REMARK    2  A    between atoms: C_10  and  N_11
REMARK    3  A    between atoms: C_12  and  C_13
REMARK    4  A    between atoms: C_13  and  O_14
REMARK    5  A    between atoms: O_14  and  C_15
REMARK    6  A    between atoms: C_15  and  C_16
REMARK    7  A    between atoms: C_20  and  C_21
REMARK    8  A    between atoms: C_21  and  C_23
REMARK                            x       y       z     vdW  Elec       q    Type
REMARK                         _______ _______ _______ _____ _____    ______ ____
ROOT
ATOM      1  C   UNL A   1      36.330 -39.839 -29.896  0.00  0.00    +0.077 C 
ENDROOT
BRANCH   1  12
ATOM      2  C   UNL A   1      33.846 -40.285 -31.671  0.00  0.00    -0.022 C 
ATOM      3  C   UNL A   1      34.165 -41.116 -30.463  0.00  0.00    +0.046 A 
ATOM      4  N   UNL A   1      33.237 -42.074 -30.206  0.00  0.00    -0.251 NA
ATOM      5  C   UNL A   1      33.381 -42.868 -29.141  0.00  0.00    +0.073 A 
ATOM      6  C   UNL A   1      32.374 -43.790 -28.880  0.00  0.00    -0.036 A 
ATOM      7  C   UNL A   1      32.425 -44.650 -27.783  0.00  0.00    -0.060 A 
ATOM      8  C   UNL A   1      33.507 -44.588 -26.919  0.00  0.00    -0.061 A 
ATOM      9  C   UNL A   1      34.530 -43.673 -27.166  0.00  0.00    -0.051 A 
ATOM     10  C   UNL A   1      34.495 -42.802 -28.287  0.00  0.00    +0.021 A 
ATOM     11  C   UNL A   1      35.514 -41.862 -28.620  0.00  0.00    +0.041 A 
ATOM     12  C   UNL A   1      35.302 -40.930 -29.668  0.00  0.00    +0.020 A 
BRANCH  11  13
ATOM     13  N   UNL A   1      36.650 -41.729 -27.775  0.00  0.00    -0.357 N 
ATOM     14  H   UNL A   1      37.212 -42.512 -27.578  0.00  0.00    +0.000 HD
ATOM     15  H   UNL A   1      36.874 -40.852 -27.387  0.00  0.00    +0.000 HD
ENDBRANCH  11  13
ENDBRANCH   1  12
BRANCH   1  16
ATOM     16  O   UNL A   1      36.018 -38.575 -29.313  0.00  0.00    -0.370 OA
BRANCH  16  17
ATOM     17  C   UNL A   1      37.155 -37.919 -28.754  0.00  0.00    +0.073 C 
BRANCH  17  18
ATOM     18  C   UNL A   1      37.907 -37.116 -29.787  0.00  0.00    -0.021 A 
ATOM     19  C   UNL A   1      37.214 -36.358 -30.737  0.00  0.00    -0.056 A 
ATOM     20  C   UNL A   1      37.909 -35.631 -31.704  0.00  0.00    -0.061 A 
ATOM     21  C   UNL A   1      39.305 -35.658 -31.739  0.00  0.00    -0.051 A 
ATOM     22  C   UNL A   1      40.018 -36.415 -30.802  0.00  0.00    +0.027 A 
ATOM     23  C   UNL A   1      39.309 -37.139 -29.828  0.00  0.00    -0.046 A 
BRANCH  22  24
ATOM     24  C   UNL A   1      41.509 -36.506 -30.797  0.00  0.00    +0.265 C 
ATOM     25  O   UNL A   1      42.140 -35.766 -30.037  0.00  0.00    -0.283 OA
BRANCH  24  26
ATOM     26  C   UNL A   1      42.173 -37.519 -31.716  0.00  0.00    +0.455 C 
ATOM     27  F   UNL A   1      41.610 -37.542 -32.957  0.00  0.00    -0.163 F 
ATOM     28  F   UNL A   1      42.078 -38.791 -31.234  0.00  0.00    -0.163 F 
ATOM     29  F   UNL A   1      43.499 -37.284 -31.906  0.00  0.00    -0.163 F 
ENDBRANCH  24  26
ENDBRANCH  22  24
ENDBRANCH  17  18
ENDBRANCH  16  17
ENDBRANCH   1  16
TORSDOF 7
ENDMDL
MODEL 10
REMARK VINA RESULT:    -8.004      1.819      2.523
REMARK INTER + INTRA:         -11.626
REMARK INTER:                 -10.837
REMARK INTRA:                  -0.789
REMARK UNBOUND:                -0.580
REMARK  Name = cpd68.pdb
REMARK  8 active torsions:
REMARK  status: ('A' for Active; 'I' for Inactive)
REMARK    1  A    between atoms: C_1  and  C_2
REMARK    2  A    between atoms: C_10  and  N_11
REMARK    3  A    between atoms: C_12  and  C_13
REMARK    4  A    between atoms: C_13  and  O_14
REMARK    5  A    between atoms: O_14  and  C_15
REMARK    6  A    between atoms: C_15  and  C_16
REMARK    7  A    between atoms: C_20  and  C_21
REMARK    8  A    between atoms: C_21  and  C_23
REMARK                            x       y       z     vdW  Elec       q    Type
REMARK                         _______ _______ _______ _____ _____    ______ ____
ROOT
ATOM      1  C   UNL A   1      34.520 -33.961 -31.347  0.00  0.00    +0.077 C 
ENDROOT
BRANCH   1  12
ATOM      2  C   UNL A   1      31.948 -35.238 -32.480  0.00  0.00    -0.022 C 
ATOM      3  C   UNL A   1      31.951 -34.097 -31.505  0.00  0.00    +0.046 A 
ATOM      4  N   UNL A   1      30.706 -33.656 -31.184  0.00  0.00    -0.251 NA
ATOM      5  C   UNL A   1      30.563 -32.624 -30.349  0.00  0.00    +0.073 A 
ATOM      6  C   UNL A   1      29.274 -32.166 -30.100  0.00  0.00    -0.036 A 
ATOM      7  C   UNL A   1      29.023 -31.084 -29.257  0.00  0.00    -0.060 A 
ATOM      8  C   UNL A   1      30.085 -30.436 -28.645  0.00  0.00    -0.061 A 
ATOM      9  C   UNL A   1      31.386 -30.884 -28.878  0.00  0.00    -0.051 A 
ATOM     10  C   UNL A   1      31.652 -31.992 -29.724  0.00  0.00    +0.021 A 
ATOM     11  C   UNL A   1      32.949 -32.523 -29.986  0.00  0.00    +0.041 A 
ATOM     12  C   UNL A   1      33.115 -33.530 -30.973  0.00  0.00    +0.020 A 
BRANCH  11  13
ATOM     13  N   UNL A   1      34.091 -31.906 -29.407  0.00  0.00    -0.357 N 
ATOM     14  H   UNL A   1      33.980 -31.174 -28.760  0.00  0.00    +0.000 HD
ATOM     15  H   UNL A   1      34.994 -32.212 -29.653  0.00  0.00    +0.000 HD
ENDBRANCH  11  13
ENDBRANCH   1  12
BRANCH   1  16
ATOM     16  O   UNL A   1      35.416 -34.136 -30.252  0.00  0.00    -0.370 OA
BRANCH  16  17
ATOM     17  C   UNL A   1      35.321 -35.426 -29.650  0.00  0.00    +0.073 C 
BRANCH  17  18
ATOM     18  C   UNL A   1      36.640 -36.159 -29.676  0.00  0.00    -0.021 A 
ATOM     19  C   UNL A   1      36.950 -37.095 -28.683  0.00  0.00    -0.056 A 
ATOM     20  C   UNL A   1      38.177 -37.758 -28.697  0.00  0.00    -0.061 A 
ATOM     21  C   UNL A   1      39.113 -37.491 -29.699  0.00  0.00    -0.051 A 
ATOM     22  C   UNL A   1      38.826 -36.554 -30.698  0.00  0.00    +0.027 A 
ATOM     23  C   UNL A   1      37.585 -35.894 -30.679  0.00  0.00    -0.046 A 
BRANCH  22  24
ATOM     24  C   UNL A   1      39.790 -36.203 -31.784  0.00  0.00    +0.265 C 
ATOM     25  O   UNL A   1      39.340 -35.861 -32.880  0.00  0.00    -0.283 OA
BRANCH  24  26
ATOM     26  C   UNL A   1      41.278 -36.269 -31.477  0.00  0.00    +0.455 C 
ATOM     27  F   UNL A   1      41.750 -37.548 -31.466  0.00  0.00    -0.163 F 
ATOM     28  F   UNL A   1      41.574 -35.746 -30.253  0.00  0.00    -0.163 F 
ATOM     29  F   UNL A   1      42.042 -35.590 -32.374  0.00  0.00    -0.163 F 
ENDBRANCH  24  26
ENDBRANCH  22  24
ENDBRANCH  17  18
ENDBRANCH  16  17
ENDBRANCH   1  16
TORSDOF 7
ENDMDL
MODEL 11
REMARK VINA RESULT:    -7.861      5.218      8.762
REMARK INTER + INTRA:         -11.429
REMARK INTER:                  -9.865
REMARK INTRA:                  -1.564
REMARK UNBOUND:                -0.580
REMARK  Name = cpd68.pdb
REMARK  8 active torsions:
REMARK  status: ('A' for Active; 'I' for Inactive)
REMARK    1  A    between atoms: C_1  and  C_2
REMARK    2  A    between atoms: C_10  and  N_11
REMARK    3  A    between atoms: C_12  and  C_13
REMARK    4  A    between atoms: C_13  and  O_14
REMARK    5  A    between atoms: O_14  and  C_15
REMARK    6  A    between atoms: C_15  and  C_16
REMARK    7  A    between atoms: C_20  and  C_21
REMARK    8  A    between atoms: C_21  and  C_23
REMARK                            x       y       z     vdW  Elec       q    Type
REMARK                         _______ _______ _______ _____ _____    ______ ____
ROOT
ATOM      1  C   UNL A   1      34.964 -37.158 -29.153  0.00  0.00    +0.077 C 
ENDROOT
BRANCH   1  12
ATOM      2  C   UNL A   1      35.581 -35.607 -31.750  0.00  0.00    -0.022 C 
ATOM      3  C   UNL A   1      36.630 -36.278 -30.912  0.00  0.00    +0.046 A 
ATOM      4  N   UNL A   1      37.884 -36.162 -31.421  0.00  0.00    -0.251 NA
ATOM      5  C   UNL A   1      38.912 -36.739 -30.791  0.00  0.00    +0.073 A 
ATOM      6  C   UNL A   1      40.166 -36.649 -31.383  0.00  0.00    -0.036 A 
ATOM      7  C   UNL A   1      41.297 -37.233 -30.811  0.00  0.00    -0.060 A 
ATOM      8  C   UNL A   1      41.175 -37.930 -29.620  0.00  0.00    -0.061 A 
ATOM      9  C   UNL A   1      39.925 -38.027 -29.008  0.00  0.00    -0.051 A 
ATOM     10  C   UNL A   1      38.770 -37.426 -29.574  0.00  0.00    +0.021 A 
ATOM     11  C   UNL A   1      37.468 -37.458 -28.993  0.00  0.00    +0.041 A 
ATOM     12  C   UNL A   1      36.356 -36.964 -29.723  0.00  0.00    +0.020 A 
BRANCH  11  13
ATOM     13  N   UNL A   1      37.258 -38.165 -27.778  0.00  0.00    -0.357 N 
ATOM     14  H   UNL A   1      37.911 -38.089 -27.045  0.00  0.00    +0.000 HD
ATOM     15  H   UNL A   1      36.460 -38.731 -27.669  0.00  0.00    +0.000 HD
ENDBRANCH  11  13
ENDBRANCH   1  12
BRANCH   1  16
ATOM     16  O   UNL A   1      34.653 -36.356 -28.016  0.00  0.00    -0.370 OA
BRANCH  16  17
ATOM     17  C   UNL A   1      33.353 -35.770 -28.080  0.00  0.00    +0.073 C 
BRANCH  17  18
ATOM     18  C   UNL A   1      33.317 -34.578 -29.005  0.00  0.00    -0.021 A 
ATOM     19  C   UNL A   1      34.331 -33.616 -28.960  0.00  0.00    -0.056 A 
ATOM     20  C   UNL A   1      34.287 -32.505 -29.802  0.00  0.00    -0.061 A 
ATOM     21  C   UNL A   1      33.226 -32.336 -30.694  0.00  0.00    -0.051 A 
ATOM     22  C   UNL A   1      32.197 -33.283 -30.750  0.00  0.00    +0.027 A 
ATOM     23  C   UNL A   1      32.253 -34.403 -29.903  0.00  0.00    -0.046 A 
BRANCH  22  24
ATOM     24  C   UNL A   1      31.022 -33.153 -31.664  0.00  0.00    +0.265 C 
ATOM     25  O   UNL A   1      30.909 -33.955 -32.594  0.00  0.00    -0.283 OA
BRANCH  24  26
ATOM     26  C   UNL A   1      30.014 -32.048 -31.389  0.00  0.00    +0.455 C 
ATOM     27  F   UNL A   1      28.851 -32.222 -32.079  0.00  0.00    -0.163 F 
ATOM     28  F   UNL A   1      30.485 -30.820 -31.746  0.00  0.00    -0.163 F 
ATOM     29  F   UNL A   1      29.665 -31.954 -30.078  0.00  0.00    -0.163 F 
ENDBRANCH  24  26
ENDBRANCH  22  24
ENDBRANCH  17  18
ENDBRANCH  16  17
ENDBRANCH   1  16
TORSDOF 7
ENDMDL
MODEL 12
REMARK VINA RESULT:    -7.860      2.026      2.443
REMARK INTER + INTRA:         -11.427
REMARK INTER:                 -10.539
REMARK INTRA:                  -0.889
REMARK UNBOUND:                -0.580
REMARK  Name = cpd68.pdb
REMARK  8 active torsions:
REMARK  status: ('A' for Active; 'I' for Inactive)
REMARK    1  A    between atoms: C_1  and  C_2
REMARK    2  A    between atoms: C_10  and  N_11
REMARK    3  A    between atoms: C_12  and  C_13
REMARK    4  A    between atoms: C_13  and  O_14
REMARK    5  A    between atoms: O_14  and  C_15
REMARK    6  A    between atoms: C_15  and  C_16
REMARK    7  A    between atoms: C_20  and  C_21
REMARK    8  A    between atoms: C_21  and  C_23
REMARK                            x       y       z     vdW  Elec       q    Type
REMARK                         _______ _______ _______ _____ _____    ______ ____
ROOT
ATOM      1  C   UNL A   1      34.342 -35.919 -29.763  0.00  0.00    +0.077 C 
ENDROOT
BRANCH   1  12
ATOM      2  C   UNL A   1      35.101 -32.928 -29.778  0.00  0.00    -0.022 C 
ATOM      3  C   UNL A   1      33.785 -33.455 -30.272  0.00  0.00    +0.046 A 
ATOM      4  N   UNL A   1      32.942 -32.482 -30.705  0.00  0.00    -0.251 NA
ATOM      5  C   UNL A   1      31.722 -32.808 -31.143  0.00  0.00    +0.073 A 
ATOM      6  C   UNL A   1      30.870 -31.775 -31.515  0.00  0.00    -0.036 A 
ATOM      7  C   UNL A   1      29.573 -32.013 -31.969  0.00  0.00    -0.060 A 
ATOM      8  C   UNL A   1      29.109 -33.316 -32.052  0.00  0.00    -0.061 A 
ATOM      9  C   UNL A   1      29.951 -34.367 -31.688  0.00  0.00    -0.051 A 
ATOM     10  C   UNL A   1      31.278 -34.138 -31.237  0.00  0.00    +0.021 A 
ATOM     11  C   UNL A   1      32.203 -35.160 -30.877  0.00  0.00    +0.041 A 
ATOM     12  C   UNL A   1      33.446 -34.812 -30.286  0.00  0.00    +0.020 A 
BRANCH  11  13
ATOM     13  N   UNL A   1      31.799 -36.522 -30.922  0.00  0.00    -0.357 N 
ATOM     14  H   UNL A   1      31.967 -37.111 -30.151  0.00  0.00    +0.000 HD
ATOM     15  H   UNL A   1      31.350 -36.876 -31.723  0.00  0.00    +0.000 HD
ENDBRANCH  11  13
ENDBRANCH   1  12
BRANCH   1  16
ATOM     16  O   UNL A   1      35.155 -36.560 -30.744  0.00  0.00    -0.370 OA
BRANCH  16  17
ATOM     17  C   UNL A   1      36.280 -37.237 -30.185  0.00  0.00    +0.073 C 
BRANCH  17  18
ATOM     18  C   UNL A   1      37.585 -36.698 -30.717  0.00  0.00    -0.021 A 
ATOM     19  C   UNL A   1      37.591 -35.657 -31.653  0.00  0.00    -0.056 A 
ATOM     20  C   UNL A   1      38.797 -35.171 -32.159  0.00  0.00    -0.061 A 
ATOM     21  C   UNL A   1      40.011 -35.724 -31.744  0.00  0.00    -0.051 A 
ATOM     22  C   UNL A   1      40.026 -36.770 -30.814  0.00  0.00    +0.027 A 
ATOM     23  C   UNL A   1      38.807 -37.248 -30.304  0.00  0.00    -0.046 A 
BRANCH  22  24
ATOM     24  C   UNL A   1      41.287 -37.421 -30.345  0.00  0.00    +0.265 C 
ATOM     25  O   UNL A   1      41.334 -37.841 -29.186  0.00  0.00    -0.283 OA
BRANCH  24  26
ATOM     26  C   UNL A   1      42.441 -37.549 -31.326  0.00  0.00    +0.455 C 
ATOM     27  F   UNL A   1      43.372 -38.457 -30.918  0.00  0.00    -0.163 F 
ATOM     28  F   UNL A   1      43.109 -36.372 -31.491  0.00  0.00    -0.163 F 
ATOM     29  F   UNL A   1      42.049 -37.940 -32.568  0.00  0.00    -0.163 F 
ENDBRANCH  24  26
ENDBRANCH  22  24
ENDBRANCH  17  18
ENDBRANCH  16  17
ENDBRANCH   1  16
TORSDOF 7
ENDMDL
MODEL 13
REMARK VINA RESULT:    -7.849     15.986     18.846
REMARK INTER + INTRA:         -11.412
REMARK INTER:                 -10.330
REMARK INTRA:                  -1.082
REMARK UNBOUND:                -0.580
REMARK  Name = cpd68.pdb
REMARK  8 active torsions:
REMARK  status: ('A' for Active; 'I' for Inactive)
REMARK    1  A    between atoms: C_1  and  C_2
REMARK    2  A    between atoms: C_10  and  N_11
REMARK    3  A    between atoms: C_12  and  C_13
REMARK    4  A    between atoms: C_13  and  O_14
REMARK    5  A    between atoms: O_14  and  C_15
REMARK    6  A    between atoms: C_15  and  C_16
REMARK    7  A    between atoms: C_20  and  C_21
REMARK    8  A    between atoms: C_21  and  C_23
REMARK                            x       y       z     vdW  Elec       q    Type
REMARK                         _______ _______ _______ _____ _____    ______ ____
ROOT
ATOM      1  C   UNL A   1      43.414 -19.757 -39.283  0.00  0.00    +0.077 C 
ENDROOT
BRANCH   1  12
ATOM      2  C   UNL A   1      45.731 -20.240 -37.302  0.00  0.00    -0.022 C 
ATOM      3  C   UNL A   1      45.672 -20.841 -38.677  0.00  0.00    +0.046 A 
ATOM      4  N   UNL A   1      46.756 -21.602 -38.980  0.00  0.00    -0.251 NA
ATOM      5  C   UNL A   1      46.849 -22.173 -40.185  0.00  0.00    +0.073 A 
ATOM      6  C   UNL A   1      48.004 -22.888 -40.475  0.00  0.00    -0.036 A 
ATOM      7  C   UNL A   1      48.201 -23.505 -41.711  0.00  0.00    -0.060 A 
ATOM      8  C   UNL A   1      47.222 -23.405 -42.686  0.00  0.00    -0.061 A 
ATOM      9  C   UNL A   1      46.053 -22.695 -42.413  0.00  0.00    -0.051 A 
ATOM     10  C   UNL A   1      45.836 -22.074 -41.154  0.00  0.00    +0.021 A 
ATOM     11  C   UNL A   1      44.657 -21.358 -40.793  0.00  0.00    +0.041 A 
ATOM     12  C   UNL A   1      44.613 -20.640 -39.569  0.00  0.00    +0.020 A 
BRANCH  11  13
ATOM     13  N   UNL A   1      43.612 -21.198 -41.744  0.00  0.00    -0.357 N 
ATOM     14  H   UNL A   1      43.716 -21.557 -42.654  0.00  0.00    +0.000 HD
ATOM     15  H   UNL A   1      42.784 -20.729 -41.491  0.00  0.00    +0.000 HD
ENDBRANCH  11  13
ENDBRANCH   1  12
BRANCH   1  16
ATOM     16  O   UNL A   1      42.177 -20.445 -39.109  0.00  0.00    -0.370 OA
BRANCH  16  17
ATOM     17  C   UNL A   1      42.214 -21.410 -38.058  0.00  0.00    +0.073 C 
BRANCH  17  18
ATOM     18  C   UNL A   1      40.973 -21.358 -37.201  0.00  0.00    -0.021 A 
ATOM     19  C   UNL A   1      39.844 -20.653 -37.632  0.00  0.00    -0.056 A 
ATOM     20  C   UNL A   1      38.704 -20.589 -36.830  0.00  0.00    -0.061 A 
ATOM     21  C   UNL A   1      38.680 -21.222 -35.585  0.00  0.00    -0.051 A 
ATOM     22  C   UNL A   1      39.801 -21.927 -35.133  0.00  0.00    +0.027 A 
ATOM     23  C   UNL A   1      40.943 -21.991 -35.950  0.00  0.00    -0.046 A 
BRANCH  22  24
ATOM     24  C   UNL A   1      39.850 -22.607 -33.803  0.00  0.00    +0.265 C 
ATOM     25  O   UNL A   1      39.532 -23.797 -33.741  0.00  0.00    -0.283 OA
BRANCH  24  26
ATOM     26  C   UNL A   1      40.307 -21.802 -32.598  0.00  0.00    +0.455 C 
ATOM     27  F   UNL A   1      41.000 -20.682 -32.953  0.00  0.00    -0.163 F 
ATOM     28  F   UNL A   1      41.137 -22.517 -31.785  0.00  0.00    -0.163 F 
ATOM     29  F   UNL A   1      39.280 -21.378 -31.813  0.00  0.00    -0.163 F 
ENDBRANCH  24  26
ENDBRANCH  22  24
ENDBRANCH  17  18
ENDBRANCH  16  17
ENDBRANCH   1  16
TORSDOF 7
ENDMDL
MODEL 14
REMARK VINA RESULT:    -7.722      2.443      2.718
REMARK INTER + INTRA:         -11.236
REMARK INTER:                 -10.745
REMARK INTRA:                  -0.491
REMARK UNBOUND:                -0.580
REMARK  Name = cpd68.pdb
REMARK  8 active torsions:
REMARK  status: ('A' for Active; 'I' for Inactive)
REMARK    1  A    between atoms: C_1  and  C_2
REMARK    2  A    between atoms: C_10  and  N_11
REMARK    3  A    between atoms: C_12  and  C_13
REMARK    4  A    between atoms: C_13  and  O_14
REMARK    5  A    between atoms: O_14  and  C_15
REMARK    6  A    between atoms: C_15  and  C_16
REMARK    7  A    between atoms: C_20  and  C_21
REMARK    8  A    between atoms: C_21  and  C_23
REMARK                            x       y       z     vdW  Elec       q    Type
REMARK                         _______ _______ _______ _____ _____    ______ ____
ROOT
ATOM      1  C   UNL A   1      35.156 -35.019 -29.810  0.00  0.00    +0.077 C 
ENDROOT
BRANCH   1  12
ATOM      2  C   UNL A   1      34.272 -32.066 -29.642  0.00  0.00    -0.022 C 
ATOM      3  C   UNL A   1      33.498 -33.126 -30.370  0.00  0.00    +0.046 A 
ATOM      4  N   UNL A   1      32.349 -32.668 -30.930  0.00  0.00    -0.251 NA
ATOM      5  C   UNL A   1      31.546 -33.513 -31.583  0.00  0.00    +0.073 A 
ATOM      6  C   UNL A   1      30.350 -33.013 -32.084  0.00  0.00    -0.036 A 
ATOM      7  C   UNL A   1      29.438 -33.820 -32.764  0.00  0.00    -0.060 A 
ATOM      8  C   UNL A   1      29.724 -35.163 -32.950  0.00  0.00    -0.061 A 
ATOM      9  C   UNL A   1      30.921 -35.683 -32.459  0.00  0.00    -0.051 A 
ATOM     10  C   UNL A   1      31.863 -34.868 -31.776  0.00  0.00    +0.021 A 
ATOM     11  C   UNL A   1      33.118 -35.321 -31.273  0.00  0.00    +0.041 A 
ATOM     12  C   UNL A   1      33.907 -34.462 -30.465  0.00  0.00    +0.020 A 
BRANCH  11  13
ATOM     13  N   UNL A   1      33.478 -36.689 -31.411  0.00  0.00    -0.357 N 
ATOM     14  H   UNL A   1      33.551 -37.262 -30.614  0.00  0.00    +0.000 HD
ATOM     15  H   UNL A   1      33.654 -37.064 -32.304  0.00  0.00    +0.000 HD
ENDBRANCH  11  13
ENDBRANCH   1  12
BRANCH   1  16
ATOM     16  O   UNL A   1      36.319 -35.044 -30.635  0.00  0.00    -0.370 OA
BRANCH  16  17
ATOM     17  C   UNL A   1      36.673 -36.358 -31.066  0.00  0.00    +0.073 C 
BRANCH  17  18
ATOM     18  C   UNL A   1      37.770 -36.953 -30.218  0.00  0.00    -0.021 A 
ATOM     19  C   UNL A   1      37.471 -37.539 -28.983  0.00  0.00    -0.056 A 
ATOM     20  C   UNL A   1      38.488 -38.071 -28.190  0.00  0.00    -0.061 A 
ATOM     21  C   UNL A   1      39.817 -38.019 -28.617  0.00  0.00    -0.051 A 
ATOM     22  C   UNL A   1      40.138 -37.431 -29.846  0.00  0.00    +0.027 A 
ATOM     23  C   UNL A   1      39.107 -36.902 -30.641  0.00  0.00    -0.046 A 
BRANCH  22  24
ATOM     24  C   UNL A   1      41.540 -37.321 -30.351  0.00  0.00    +0.265 C 
ATOM     25  O   UNL A   1      42.295 -38.285 -30.201  0.00  0.00    -0.283 OA
BRANCH  24  26
ATOM     26  C   UNL A   1      41.959 -36.033 -31.042  0.00  0.00    +0.455 C 
ATOM     27  F   UNL A   1      41.665 -36.039 -32.374  0.00  0.00    -0.163 F 
ATOM     28  F   UNL A   1      43.301 -35.813 -30.952  0.00  0.00    -0.163 F 
ATOM     29  F   UNL A   1      41.358 -34.927 -30.527  0.00  0.00    -0.163 F 
ENDBRANCH  24  26
ENDBRANCH  22  24
ENDBRANCH  17  18
ENDBRANCH  16  17
ENDBRANCH   1  16
TORSDOF 7
ENDMDL
MODEL 15
REMARK VINA RESULT:    -7.693     16.304     18.290
REMARK INTER + INTRA:         -11.197
REMARK INTER:                 -10.137
REMARK INTRA:                  -1.059
REMARK UNBOUND:                -0.580
REMARK  Name = cpd68.pdb
REMARK  8 active torsions:
REMARK  status: ('A' for Active; 'I' for Inactive)
REMARK    1  A    between atoms: C_1  and  C_2
REMARK    2  A    between atoms: C_10  and  N_11
REMARK    3  A    between atoms: C_12  and  C_13
REMARK    4  A    between atoms: C_13  and  O_14
REMARK    5  A    between atoms: O_14  and  C_15
REMARK    6  A    between atoms: C_15  and  C_16
REMARK    7  A    between atoms: C_20  and  C_21
REMARK    8  A    between atoms: C_21  and  C_23
REMARK                            x       y       z     vdW  Elec       q    Type
REMARK                         _______ _______ _______ _____ _____    ______ ____
ROOT
ATOM      1  C   UNL A   1      42.651 -19.675 -38.202  0.00  0.00    +0.077 C 
ENDROOT
BRANCH   1  12
ATOM      2  C   UNL A   1      41.248 -22.075 -39.544  0.00  0.00    -0.022 C 
ATOM      3  C   UNL A   1      41.173 -21.783 -38.074  0.00  0.00    +0.046 A 
ATOM      4  N   UNL A   1      40.402 -22.665 -37.386  0.00  0.00    -0.251 NA
ATOM      5  C   UNL A   1      40.223 -22.506 -36.072  0.00  0.00    +0.073 A 
ATOM      6  C   UNL A   1      39.374 -23.394 -35.422  0.00  0.00    -0.036 A 
ATOM      7  C   UNL A   1      39.111 -23.299 -34.055  0.00  0.00    -0.060 A 
ATOM      8  C   UNL A   1      39.706 -22.290 -33.315  0.00  0.00    -0.061 A 
ATOM      9  C   UNL A   1      40.565 -21.392 -33.948  0.00  0.00    -0.051 A 
ATOM     10  C   UNL A   1      40.851 -21.486 -35.336  0.00  0.00    +0.021 A 
ATOM     11  C   UNL A   1      41.738 -20.625 -36.045  0.00  0.00    +0.041 A 
ATOM     12  C   UNL A   1      41.825 -20.708 -37.459  0.00  0.00    +0.020 A 
BRANCH  11  13
ATOM     13  N   UNL A   1      42.377 -19.556 -35.359  0.00  0.00    -0.357 N 
ATOM     14  H   UNL A   1      42.190 -19.401 -34.405  0.00  0.00    +0.000 HD
ATOM     15  H   UNL A   1      43.007 -18.970 -35.838  0.00  0.00    +0.000 HD
ENDBRANCH  11  13
ENDBRANCH   1  12
BRANCH   1  16
ATOM     16  O   UNL A   1      44.063 -19.864 -38.141  0.00  0.00    -0.370 OA
BRANCH  16  17
ATOM     17  C   UNL A   1      44.781 -19.026 -39.045  0.00  0.00    +0.073 C 
BRANCH  17  18
ATOM     18  C   UNL A   1      44.942 -19.666 -40.402  0.00  0.00    -0.021 A 
ATOM     19  C   UNL A   1      44.262 -19.153 -41.511  0.00  0.00    -0.056 A 
ATOM     20  C   UNL A   1      44.396 -19.756 -42.762  0.00  0.00    -0.061 A 
ATOM     21  C   UNL A   1      45.204 -20.885 -42.918  0.00  0.00    -0.051 A 
ATOM     22  C   UNL A   1      45.887 -21.419 -41.820  0.00  0.00    +0.027 A 
ATOM     23  C   UNL A   1      45.751 -20.800 -40.565  0.00  0.00    -0.046 A 
BRANCH  22  24
ATOM     24  C   UNL A   1      46.748 -22.636 -41.912  0.00  0.00    +0.265 C 
ATOM     25  O   UNL A   1      46.291 -23.637 -42.471  0.00  0.00    -0.283 OA
BRANCH  24  26
ATOM     26  C   UNL A   1      48.151 -22.573 -41.330  0.00  0.00    +0.455 C 
ATOM     27  F   UNL A   1      48.979 -23.515 -41.865  0.00  0.00    -0.163 F 
ATOM     28  F   UNL A   1      48.159 -22.785 -39.983  0.00  0.00    -0.163 F 
ATOM     29  F   UNL A   1      48.762 -21.374 -41.529  0.00  0.00    -0.163 F 
ENDBRANCH  24  26
ENDBRANCH  22  24
ENDBRANCH  17  18
ENDBRANCH  16  17
ENDBRANCH   1  16
TORSDOF 7
ENDMDL
MODEL 16
REMARK VINA RESULT:    -7.567     16.851     19.372
REMARK INTER + INTRA:         -11.022
REMARK INTER:                  -8.654
REMARK INTRA:                  -2.368
REMARK UNBOUND:                -0.580
REMARK  Name = cpd68.pdb
REMARK  8 active torsions:
REMARK  status: ('A' for Active; 'I' for Inactive)
REMARK    1  A    between atoms: C_1  and  C_2
REMARK    2  A    between atoms: C_10  and  N_11
REMARK    3  A    between atoms: C_12  and  C_13
REMARK    4  A    between atoms: C_13  and  O_14
REMARK    5  A    between atoms: O_14  and  C_15
REMARK    6  A    between atoms: C_15  and  C_16
REMARK    7  A    between atoms: C_20  and  C_21
REMARK    8  A    between atoms: C_21  and  C_23
REMARK                            x       y       z     vdW  Elec       q    Type
REMARK                         _______ _______ _______ _____ _____    ______ ____
ROOT
ATOM      1  C   UNL A   1      45.584 -18.988 -36.847  0.00  0.00    +0.077 C 
ENDROOT
BRANCH   1  12
ATOM      2  C   UNL A   1      43.230 -17.865 -38.497  0.00  0.00    -0.022 C 
ATOM      3  C   UNL A   1      44.161 -18.931 -38.996  0.00  0.00    +0.046 A 
ATOM      4  N   UNL A   1      43.853 -19.378 -40.241  0.00  0.00    -0.251 NA
ATOM      5  C   UNL A   1      44.583 -20.350 -40.796  0.00  0.00    +0.073 A 
ATOM      6  C   UNL A   1      44.193 -20.822 -42.043  0.00  0.00    -0.036 A 
ATOM      7  C   UNL A   1      44.880 -21.845 -42.696  0.00  0.00    -0.060 A 
ATOM      8  C   UNL A   1      45.985 -22.419 -42.088  0.00  0.00    -0.061 A 
ATOM      9  C   UNL A   1      46.396 -21.956 -40.838  0.00  0.00    -0.051 A 
ATOM     10  C   UNL A   1      45.712 -20.906 -40.170  0.00  0.00    +0.021 A 
ATOM     11  C   UNL A   1      46.090 -20.362 -38.908  0.00  0.00    +0.041 A 
ATOM     12  C   UNL A   1      45.242 -19.427 -38.258  0.00  0.00    +0.020 A 
BRANCH  11  13
ATOM     13  N   UNL A   1      47.205 -20.906 -38.213  0.00  0.00    -0.357 N 
ATOM     14  H   UNL A   1      48.115 -20.599 -38.427  0.00  0.00    +0.000 HD
ATOM     15  H   UNL A   1      47.067 -21.589 -37.518  0.00  0.00    +0.000 HD
ENDBRANCH  11  13
ENDBRANCH   1  12
BRANCH   1  16
ATOM     16  O   UNL A   1      45.480 -20.003 -35.851  0.00  0.00    -0.370 OA
BRANCH  16  17
ATOM     17  C   UNL A   1      44.538 -19.690 -34.826  0.00  0.00    +0.073 C 
BRANCH  17  18
ATOM     18  C   UNL A   1      43.114 -19.843 -35.304  0.00  0.00    -0.021 A 
ATOM     19  C   UNL A   1      42.132 -18.931 -34.903  0.00  0.00    -0.056 A 
ATOM     20  C   UNL A   1      40.812 -19.084 -35.328  0.00  0.00    -0.061 A 
ATOM     21  C   UNL A   1      40.456 -20.153 -36.154  0.00  0.00    -0.051 A 
ATOM     22  C   UNL A   1      41.422 -21.080 -36.561  0.00  0.00    +0.027 A 
ATOM     23  C   UNL A   1      42.750 -20.914 -36.132  0.00  0.00    -0.046 A 
BRANCH  22  24
ATOM     24  C   UNL A   1      41.105 -22.258 -37.424  0.00  0.00    +0.265 C 
ATOM     25  O   UNL A   1      40.571 -23.240 -36.903  0.00  0.00    -0.283 OA
BRANCH  24  26
ATOM     26  C   UNL A   1      41.439 -22.178 -38.905  0.00  0.00    +0.455 C 
ATOM     27  F   UNL A   1      42.779 -22.267 -39.141  0.00  0.00    -0.163 F 
ATOM     28  F   UNL A   1      41.035 -21.000 -39.461  0.00  0.00    -0.163 F 
ATOM     29  F   UNL A   1      40.859 -23.164 -39.641  0.00  0.00    -0.163 F 
ENDBRANCH  24  26
ENDBRANCH  22  24
ENDBRANCH  17  18
ENDBRANCH  16  17
ENDBRANCH   1  16
TORSDOF 7
ENDMDL
MODEL 17
REMARK VINA RESULT:    -7.436     17.264     20.055
REMARK INTER + INTRA:         -10.842
REMARK INTER:                  -9.536
REMARK INTRA:                  -1.306
REMARK UNBOUND:                -0.580
REMARK  Name = cpd68.pdb
REMARK  8 active torsions:
REMARK  status: ('A' for Active; 'I' for Inactive)
REMARK    1  A    between atoms: C_1  and  C_2
REMARK    2  A    between atoms: C_10  and  N_11
REMARK    3  A    between atoms: C_12  and  C_13
REMARK    4  A    between atoms: C_13  and  O_14
REMARK    5  A    between atoms: O_14  and  C_15
REMARK    6  A    between atoms: C_15  and  C_16
REMARK    7  A    between atoms: C_20  and  C_21
REMARK    8  A    between atoms: C_21  and  C_23
REMARK                            x       y       z     vdW  Elec       q    Type
REMARK                         _______ _______ _______ _____ _____    ______ ____
ROOT
ATOM      1  C   UNL A   1      44.872 -18.290 -40.618  0.00  0.00    +0.077 C 
ENDROOT
BRANCH   1  12
ATOM      2  C   UNL A   1      46.921 -18.991 -38.420  0.00  0.00    -0.022 C 
ATOM      3  C   UNL A   1      46.637 -19.869 -39.603  0.00  0.00    +0.046 A 
ATOM      4  N   UNL A   1      47.392 -20.999 -39.632  0.00  0.00    -0.251 NA
ATOM      5  C   UNL A   1      47.264 -21.857 -40.648  0.00  0.00    +0.073 A 
ATOM      6  C   UNL A   1      48.102 -22.965 -40.669  0.00  0.00    -0.036 A 
ATOM      7  C   UNL A   1      48.055 -23.908 -41.696  0.00  0.00    -0.060 A 
ATOM      8  C   UNL A   1      47.152 -23.741 -42.733  0.00  0.00    -0.061 A 
ATOM      9  C   UNL A   1      46.299 -22.638 -42.728  0.00  0.00    -0.051 A 
ATOM     10  C   UNL A   1      46.328 -21.679 -41.681  0.00  0.00    +0.021 A 
ATOM     11  C   UNL A   1      45.469 -20.544 -41.593  0.00  0.00    +0.041 A 
ATOM     12  C   UNL A   1      45.693 -19.564 -40.591  0.00  0.00    +0.020 A 
BRANCH  11  13
ATOM     13  N   UNL A   1      44.524 -20.296 -42.625  0.00  0.00    -0.357 N 
ATOM     14  H   UNL A   1      43.566 -20.234 -42.411  0.00  0.00    +0.000 HD
ATOM     15  H   UNL A   1      44.829 -20.184 -43.555  0.00  0.00    +0.000 HD
ENDBRANCH  11  13
ENDBRANCH   1  12
BRANCH   1  16
ATOM     16  O   UNL A   1      43.475 -18.459 -40.382  0.00  0.00    -0.370 OA
BRANCH  16  17
ATOM     17  C   UNL A   1      43.180 -18.912 -39.061  0.00  0.00    +0.073 C 
BRANCH  17  18
ATOM     18  C   UNL A   1      42.164 -20.028 -39.062  0.00  0.00    -0.021 A 
ATOM     19  C   UNL A   1      42.164 -20.985 -40.082  0.00  0.00    -0.056 A 
ATOM     20  C   UNL A   1      41.212 -22.004 -40.093  0.00  0.00    -0.061 A 
ATOM     21  C   UNL A   1      40.244 -22.078 -39.088  0.00  0.00    -0.051 A 
ATOM     22  C   UNL A   1      40.223 -21.127 -38.062  0.00  0.00    +0.027 A 
ATOM     23  C   UNL A   1      41.189 -20.106 -38.056  0.00  0.00    -0.046 A 
BRANCH  22  24
ATOM     24  C   UNL A   1      39.202 -21.133 -36.970  0.00  0.00    +0.265 C 
ATOM     25  O   UNL A   1      38.333 -20.257 -36.975  0.00  0.00    -0.283 OA
BRANCH  24  26
ATOM     26  C   UNL A   1      39.275 -22.230 -35.921  0.00  0.00    +0.455 C 
ATOM     27  F   UNL A   1      39.205 -23.477 -36.467  0.00  0.00    -0.163 F 
ATOM     28  F   UNL A   1      38.253 -22.152 -35.022  0.00  0.00    -0.163 F 
ATOM     29  F   UNL A   1      40.423 -22.200 -35.192  0.00  0.00    -0.163 F 
ENDBRANCH  24  26
ENDBRANCH  22  24
ENDBRANCH  17  18
ENDBRANCH  16  17
ENDBRANCH   1  16
TORSDOF 7
ENDMDL
MODEL 18
REMARK VINA RESULT:    -7.426     15.848     17.692
REMARK INTER + INTRA:         -10.828
REMARK INTER:                  -9.844
REMARK INTRA:                  -0.984
REMARK UNBOUND:                -0.580
REMARK  Name = cpd68.pdb
REMARK  8 active torsions:
REMARK  status: ('A' for Active; 'I' for Inactive)
REMARK    1  A    between atoms: C_1  and  C_2
REMARK    2  A    between atoms: C_10  and  N_11
REMARK    3  A    between atoms: C_12  and  C_13
REMARK    4  A    between atoms: C_13  and  O_14
REMARK    5  A    between atoms: O_14  and  C_15
REMARK    6  A    between atoms: C_15  and  C_16
REMARK    7  A    between atoms: C_20  and  C_21
REMARK    8  A    between atoms: C_21  and  C_23
REMARK                            x       y       z     vdW  Elec       q    Type
REMARK                         _______ _______ _______ _____ _____    ______ ____
ROOT
ATOM      1  C   UNL A   1      43.803 -20.173 -35.209  0.00  0.00    +0.077 C 
ENDROOT
BRANCH   1  12
ATOM      2  C   UNL A   1      42.802 -18.442 -32.858  0.00  0.00    -0.022 C 
ATOM      3  C   UNL A   1      41.992 -19.538 -33.488  0.00  0.00    +0.046 A 
ATOM      4  N   UNL A   1      40.778 -19.716 -32.905  0.00  0.00    -0.251 NA
ATOM      5  C   UNL A   1      39.966 -20.681 -33.347  0.00  0.00    +0.073 A 
ATOM      6  C   UNL A   1      38.762 -20.870 -32.679  0.00  0.00    -0.036 A 
ATOM      7  C   UNL A   1      37.855 -21.861 -33.055  0.00  0.00    -0.060 A 
ATOM      8  C   UNL A   1      38.157 -22.690 -34.123  0.00  0.00    -0.061 A 
ATOM      9  C   UNL A   1      39.358 -22.514 -34.810  0.00  0.00    -0.051 A 
ATOM     10  C   UNL A   1      40.282 -21.500 -34.445  0.00  0.00    +0.021 A 
ATOM     11  C   UNL A   1      41.513 -21.241 -35.115  0.00  0.00    +0.041 A 
ATOM     12  C   UNL A   1      42.435 -20.311 -34.568  0.00  0.00    +0.020 A 
BRANCH  11  13
ATOM     13  N   UNL A   1      41.902 -22.057 -36.212  0.00  0.00    -0.357 N 
ATOM     14  H   UNL A   1      41.223 -22.387 -36.844  0.00  0.00    +0.000 HD
ATOM     15  H   UNL A   1      42.849 -22.293 -36.340  0.00  0.00    +0.000 HD
ENDBRANCH  11  13
ENDBRANCH   1  12
BRANCH   1  16
ATOM     16  O   UNL A   1      43.800 -20.031 -36.627  0.00  0.00    -0.370 OA
BRANCH  16  17
ATOM     17  C   UNL A   1      45.081 -20.249 -37.216  0.00  0.00    +0.073 C 
BRANCH  17  18
ATOM     18  C   UNL A   1      44.974 -20.652 -38.667  0.00  0.00    -0.021 A 
ATOM     19  C   UNL A   1      43.720 -20.837 -39.259  0.00  0.00    -0.056 A 
ATOM     20  C   UNL A   1      43.622 -21.228 -40.594  0.00  0.00    -0.061 A 
ATOM     21  C   UNL A   1      44.774 -21.446 -41.353  0.00  0.00    -0.051 A 
ATOM     22  C   UNL A   1      46.038 -21.273 -40.778  0.00  0.00    +0.027 A 
ATOM     23  C   UNL A   1      46.128 -20.873 -39.434  0.00  0.00    -0.046 A 
BRANCH  22  24
ATOM     24  C   UNL A   1      47.310 -21.511 -41.525  0.00  0.00    +0.265 C 
ATOM     25  O   UNL A   1      47.935 -20.535 -41.946  0.00  0.00    -0.283 OA
BRANCH  24  26
ATOM     26  C   UNL A   1      47.778 -22.946 -41.713  0.00  0.00    +0.455 C 
ATOM     27  F   UNL A   1      46.972 -23.843 -41.077  0.00  0.00    -0.163 F 
ATOM     28  F   UNL A   1      49.032 -23.147 -41.217  0.00  0.00    -0.163 F 
ATOM     29  F   UNL A   1      47.819 -23.331 -43.016  0.00  0.00    -0.163 F 
ENDBRANCH  24  26
ENDBRANCH  22  24
ENDBRANCH  17  18
ENDBRANCH  16  17
ENDBRANCH   1  16
TORSDOF 7
ENDMDL
MODEL 19
REMARK VINA RESULT:    -7.296     16.068     18.838
REMARK INTER + INTRA:         -10.648
REMARK INTER:                  -9.365
REMARK INTRA:                  -1.283
REMARK UNBOUND:                -0.580
REMARK  Name = cpd68.pdb
REMARK  8 active torsions:
REMARK  status: ('A' for Active; 'I' for Inactive)
REMARK    1  A    between atoms: C_1  and  C_2
REMARK    2  A    between atoms: C_10  and  N_11
REMARK    3  A    between atoms: C_12  and  C_13
REMARK    4  A    between atoms: C_13  and  O_14
REMARK    5  A    between atoms: O_14  and  C_15
REMARK    6  A    between atoms: C_15  and  C_16
REMARK    7  A    between atoms: C_20  and  C_21
REMARK    8  A    between atoms: C_21  and  C_23
REMARK                            x       y       z     vdW  Elec       q    Type
REMARK                         _______ _______ _______ _____ _____    ______ ____
ROOT
ATOM      1  C   UNL A   1      44.366 -19.317 -37.226  0.00  0.00    +0.077 C 
ENDROOT
BRANCH   1  12
ATOM      2  C   UNL A   1      42.281 -19.381 -39.500  0.00  0.00    -0.022 C 
ATOM      3  C   UNL A   1      43.640 -20.010 -39.599  0.00  0.00    +0.046 A 
ATOM      4  N   UNL A   1      43.859 -20.638 -40.784  0.00  0.00    -0.251 NA
ATOM      5  C   UNL A   1      45.018 -21.268 -40.996  0.00  0.00    +0.073 A 
ATOM      6  C   UNL A   1      45.173 -21.952 -42.196  0.00  0.00    -0.036 A 
ATOM      7  C   UNL A   1      46.339 -22.654 -42.502  0.00  0.00    -0.060 A 
ATOM      8  C   UNL A   1      47.379 -22.679 -41.587  0.00  0.00    -0.061 A 
ATOM      9  C   UNL A   1      47.245 -21.994 -40.379  0.00  0.00    -0.051 A 
ATOM     10  C   UNL A   1      46.068 -21.266 -40.062  0.00  0.00    +0.021 A 
ATOM     11  C   UNL A   1      45.870 -20.520 -38.863  0.00  0.00    +0.041 A 
ATOM     12  C   UNL A   1      44.596 -19.965 -38.578  0.00  0.00    +0.020 A 
BRANCH  11  13
ATOM     13  N   UNL A   1      46.885 -20.507 -37.868  0.00  0.00    -0.357 N 
ATOM     14  H   UNL A   1      46.642 -20.429 -36.917  0.00  0.00    +0.000 HD
ATOM     15  H   UNL A   1      47.832 -20.576 -38.129  0.00  0.00    +0.000 HD
ENDBRANCH  11  13
ENDBRANCH   1  12
BRANCH   1  16
ATOM     16  O   UNL A   1      43.979 -20.208 -36.181  0.00  0.00    -0.370 OA
BRANCH  16  17
ATOM     17  C   UNL A   1      43.042 -19.632 -35.272  0.00  0.00    +0.073 C 
BRANCH  17  18
ATOM     18  C   UNL A   1      41.619 -19.983 -35.632  0.00  0.00    -0.021 A 
ATOM     19  C   UNL A   1      40.785 -19.032 -36.230  0.00  0.00    -0.056 A 
ATOM     20  C   UNL A   1      39.464 -19.350 -36.545  0.00  0.00    -0.061 A 
ATOM     21  C   UNL A   1      38.956 -20.619 -36.260  0.00  0.00    -0.051 A 
ATOM     22  C   UNL A   1      39.771 -21.583 -35.655  0.00  0.00    +0.027 A 
ATOM     23  C   UNL A   1      41.103 -21.256 -35.347  0.00  0.00    -0.046 A 
BRANCH  22  24
ATOM     24  C   UNL A   1      39.285 -22.951 -35.302  0.00  0.00    +0.265 C 
ATOM     25  O   UNL A   1      39.245 -23.807 -36.189  0.00  0.00    -0.283 OA
BRANCH  24  26
ATOM     26  C   UNL A   1      38.883 -23.224 -33.861  0.00  0.00    +0.455 C 
ATOM     27  F   UNL A   1      38.501 -22.092 -33.205  0.00  0.00    -0.163 F 
ATOM     28  F   UNL A   1      39.905 -23.756 -33.133  0.00  0.00    -0.163 F 
ATOM     29  F   UNL A   1      37.844 -24.095 -33.749  0.00  0.00    -0.163 F 
ENDBRANCH  24  26
ENDBRANCH  22  24
ENDBRANCH  17  18
ENDBRANCH  16  17
ENDBRANCH   1  16
TORSDOF 7
ENDMDL
MODEL 20
REMARK VINA RESULT:    -7.209     17.955     20.428
REMARK INTER + INTRA:         -10.529
REMARK INTER:                  -8.145
REMARK INTRA:                  -2.383
REMARK UNBOUND:                -0.580
REMARK  Name = cpd68.pdb
REMARK  8 active torsions:
REMARK  status: ('A' for Active; 'I' for Inactive)
REMARK    1  A    between atoms: C_1  and  C_2
REMARK    2  A    between atoms: C_10  and  N_11
REMARK    3  A    between atoms: C_12  and  C_13
REMARK    4  A    between atoms: C_13  and  O_14
REMARK    5  A    between atoms: O_14  and  C_15
REMARK    6  A    between atoms: C_15  and  C_16
REMARK    7  A    between atoms: C_20  and  C_21
REMARK    8  A    between atoms: C_21  and  C_23
REMARK                            x       y       z     vdW  Elec       q    Type
REMARK                         _______ _______ _______ _____ _____    ______ ____
ROOT
ATOM      1  C   UNL A   1      45.476 -17.001 -38.997  0.00  0.00    +0.077 C 
ENDROOT
BRANCH   1  12
ATOM      2  C   UNL A   1      47.380 -19.014 -37.638  0.00  0.00    -0.022 C 
ATOM      3  C   UNL A   1      46.620 -19.308 -38.898  0.00  0.00    +0.046 A 
ATOM      4  N   UNL A   1      46.870 -20.544 -39.404  0.00  0.00    -0.251 NA
ATOM      5  C   UNL A   1      46.282 -20.926 -40.542  0.00  0.00    +0.073 A 
ATOM      6  C   UNL A   1      46.618 -22.172 -41.057  0.00  0.00    -0.036 A 
ATOM      7  C   UNL A   1      46.071 -22.653 -42.247  0.00  0.00    -0.060 A 
ATOM      8  C   UNL A   1      45.167 -21.869 -42.947  0.00  0.00    -0.061 A 
ATOM      9  C   UNL A   1      44.814 -20.617 -42.444  0.00  0.00    -0.051 A 
ATOM     10  C   UNL A   1      45.354 -20.123 -41.227  0.00  0.00    +0.021 A 
ATOM     11  C   UNL A   1      45.019 -18.869 -40.637  0.00  0.00    +0.041 A 
ATOM     12  C   UNL A   1      45.739 -18.405 -39.505  0.00  0.00    +0.020 A 
BRANCH  11  13
ATOM     13  N   UNL A   1      44.110 -18.001 -41.300  0.00  0.00    -0.357 N 
ATOM     14  H   UNL A   1      44.007 -17.071 -40.996  0.00  0.00    +0.000 HD
ATOM     15  H   UNL A   1      43.584 -18.329 -42.065  0.00  0.00    +0.000 HD
ENDBRANCH  11  13
ENDBRANCH   1  12
BRANCH   1  16
ATOM     16  O   UNL A   1      44.141 -16.750 -38.561  0.00  0.00    -0.370 OA
BRANCH  16  17
ATOM     17  C   UNL A   1      43.942 -17.022 -37.175  0.00  0.00    +0.073 C 
BRANCH  17  18
ATOM     18  C   UNL A   1      43.465 -18.435 -36.940  0.00  0.00    -0.021 A 
ATOM     19  C   UNL A   1      43.930 -19.165 -35.841  0.00  0.00    -0.056 A 
ATOM     20  C   UNL A   1      43.504 -20.478 -35.635  0.00  0.00    -0.061 A 
ATOM     21  C   UNL A   1      42.614 -21.079 -36.528  0.00  0.00    -0.051 A 
ATOM     22  C   UNL A   1      42.142 -20.369 -37.637  0.00  0.00    +0.027 A 
ATOM     23  C   UNL A   1      42.572 -19.045 -37.833  0.00  0.00    -0.046 A 
BRANCH  22  24
ATOM     24  C   UNL A   1      41.207 -20.959 -38.643  0.00  0.00    +0.265 C 
ATOM     25  O   UNL A   1      40.003 -20.713 -38.540  0.00  0.00    -0.283 OA
BRANCH  24  26
ATOM     26  C   UNL A   1      41.792 -21.819 -39.752  0.00  0.00    +0.455 C 
ATOM     27  F   UNL A   1      43.118 -22.074 -39.568  0.00  0.00    -0.163 F 
ATOM     28  F   UNL A   1      41.687 -21.224 -40.974  0.00  0.00    -0.163 F 
ATOM     29  F   UNL A   1      41.186 -23.031 -39.868  0.00  0.00    -0.163 F 
ENDBRANCH  24  26
ENDBRANCH  22  24
ENDBRANCH  17  18
ENDBRANCH  16  17
ENDBRANCH   1  16
TORSDOF 7
ENDMDL
