@<TRIPOS>MOLECULE
*****
 27 29 0 0 0
SMALL
GASTEIGER

@<TRIPOS>ATOM
      1 C          -3.4641   -1.0000    0.0000 C.3     1  UNL1        0.0519
      2 C          -3.4641   -0.0000    0.0000 C.ar    1  UNL1        0.0590
      3 N          -4.3301    0.5000    0.0000 N.ar    1  UNL1       -0.2498
      4 C          -4.3301    1.5000    0.0000 C.ar    1  UNL1        0.0822
      5 C          -5.1962    2.0000    0.0000 C.ar    1  UNL1        0.0191
      6 C          -5.1962    3.0000    0.0000 C.ar    1  UNL1        0.0015
      7 C          -4.3301    3.5000    0.0000 C.ar    1  UNL1        0.0001
      8 C          -3.4641    3.0000    0.0000 C.ar    1  UNL1        0.0028
      9 C          -3.4641    2.0000    0.0000 C.ar    1  UNL1        0.0342
     10 C          -2.5981    1.5000    0.0000 C.ar    1  UNL1        0.0900
     11 N          -1.7321    2.0000    0.0000 N.pl3   1  UNL1       -0.1282
     12 C          -2.5981    0.5000    0.0000 C.ar    1  UNL1        0.0376
     13 C          -1.7321   -0.0000    0.0000 C.3     1  UNL1        0.1716
     14 O          -1.7321   -1.0000    0.0000 O.3     1  UNL1       -0.3442
     15 C          -0.8660   -1.5000    0.0000 C.3     1  UNL1        0.1691
     16 C           0.0000   -1.0000    0.0000 C.ar    1  UNL1        0.0074
     17 C           0.8660   -1.5000    0.0000 C.ar    1  UNL1       -0.0018
     18 C           1.7321   -1.0000    0.0000 C.ar    1  UNL1       -0.0002
     19 C           1.7321    0.0000    0.0000 C.ar    1  UNL1        0.0031
     20 C           0.8660    0.5000    0.0000 C.ar    1  UNL1        0.0429
     21 C           0.8660    1.5000    0.0000 C.2     1  UNL1        0.2666
     22 O          -0.0000    2.0000    0.0000 O.2     1  UNL1       -0.2825
     23 C           1.7321    2.0000    0.0000 C.3     1  UNL1        0.4554
     24 F           2.7321    2.0000    0.0000 F       1  UNL1       -0.1631
     25 F           2.2321    1.1340    0.0000 F       1  UNL1       -0.1631
     26 F           1.7321    3.0000    0.0000 F       1  UNL1       -0.1631
     27 C           0.0000    0.0000    0.0000 C.ar    1  UNL1        0.0013
@<TRIPOS>BOND
     1     1     2    1
     2     2     3   ar
     3     3     4   ar
     4     4     5   ar
     5     5     6   ar
     6     6     7   ar
     7     7     8   ar
     8     8     9   ar
     9     4     9   ar
    10     9    10   ar
    11    10    11    1
    12    10    12   ar
    13     2    12   ar
    14    12    13    1
    15    13    14    1
    16    14    15    1
    17    15    16    1
    18    16    17   ar
    19    17    18   ar
    20    18    19   ar
    21    19    20   ar
    22    20    21    1
    23    21    22    2
    24    21    23    1
    25    23    24    1
    26    23    25    1
    27    23    26    1
    28    20    27   ar
    29    16    27   ar
