REMARK  Name = cpd68.pdb
REMARK  8 active torsions:
REMARK  status: ('A' for Active; 'I' for Inactive)
REMARK    1  A    between atoms: C_1  and  C_2
REMARK    2  A    between atoms: C_10  and  N_11
REMARK    3  A    between atoms: C_12  and  C_13
REMARK    4  A    between atoms: C_13  and  O_14
REMARK    5  A    between atoms: O_14  and  C_15
REMARK    6  A    between atoms: C_15  and  C_16
REMARK    7  A    between atoms: C_20  and  C_21
REMARK    8  A    between atoms: C_21  and  C_23
REMARK                            x       y       z     vdW  Elec       q    Type
REMARK                         _______ _______ _______ _____ _____    ______ ____
ROOT
ATOM      1  C   UNL A   1      -1.847   0.321  -0.578  0.00  0.00    +0.077 C 
ENDROOT
BRANCH   1  12
ATOM      2  C   UNL A   1      -3.962  -1.603   0.584  0.00  0.00    -0.022 C 
ATOM      3  C   UNL A   1      -4.202  -0.138   0.363  0.00  0.00    +0.046 A 
ATOM      4  N   UNL A   1      -5.456   0.261   0.700  0.00  0.00    -0.251 NA
ATOM      5  C   UNL A   1      -5.816   1.536   0.525  0.00  0.00    +0.073 A 
ATOM      6  C   UNL A   1      -7.128   1.885   0.822  0.00  0.00    -0.036 A 
ATOM      7  C   UNL A   1      -7.603   3.186   0.656  0.00  0.00    -0.060 A 
ATOM      8  C   UNL A   1      -6.749   4.167   0.178  0.00  0.00    -0.061 A 
ATOM      9  C   UNL A   1      -5.427   3.838  -0.121  0.00  0.00    -0.051 A 
ATOM     10  C   UNL A   1      -4.929   2.520   0.056  0.00  0.00    +0.021 A 
ATOM     11  C   UNL A   1      -3.586   2.116  -0.200  0.00  0.00    +0.041 A 
ATOM     12  C   UNL A   1      -3.238   0.741  -0.144  0.00  0.00    +0.020 A 
BRANCH  11  13
ATOM     13  N   UNL A   1      -2.652   3.061  -0.706  0.00  0.00    -0.357 N 
ATOM     14  H   UNL A   1      -2.890   4.015  -0.746  0.00  0.00    +0.000 HD
ATOM     15  H   UNL A   1      -1.767   2.761  -1.016  0.00  0.00    +0.000 HD
ENDBRANCH  11  13
ENDBRANCH   1  12
BRANCH   1  16
ATOM     16  O   UNL A   1      -1.663  -1.081  -0.763  0.00  0.00    -0.370 OA
BRANCH  16  17
ATOM     17  C   UNL A   1      -0.463  -1.402  -1.465  0.00  0.00    +0.073 C 
BRANCH  17  18
ATOM     18  C   UNL A   1       0.766  -1.147  -0.627  0.00  0.00    -0.021 A 
ATOM     19  C   UNL A   1       0.997  -1.891   0.535  0.00  0.00    -0.056 A 
ATOM     20  C   UNL A   1       2.123  -1.642   1.320  0.00  0.00    -0.061 A 
ATOM     21  C   UNL A   1       3.029  -0.642   0.958  0.00  0.00    -0.051 A 
ATOM     22  C   UNL A   1       2.813   0.118  -0.197  0.00  0.00    +0.027 A 
ATOM     23  C   UNL A   1       1.679  -0.144  -0.985  0.00  0.00    -0.046 A 
BRANCH  22  24
ATOM     24  C   UNL A   1       3.729   1.217  -0.629  0.00  0.00    +0.265 C 
ATOM     25  O   UNL A   1       3.388   1.925  -1.580  0.00  0.00    -0.283 OA
BRANCH  24  26
ATOM     26  C   UNL A   1       5.026   1.418   0.138  0.00  0.00    +0.455 C 
ATOM     27  F   UNL A   1       5.783   0.285   0.185  0.00  0.00    -0.163 F 
ATOM     28  F   UNL A   1       4.807   1.780   1.434  0.00  0.00    -0.163 F 
ATOM     29  F   UNL A   1       5.822   2.383  -0.396  0.00  0.00    -0.163 F 
ENDBRANCH  24  26
ENDBRANCH  22  24
ENDBRANCH  17  18
ENDBRANCH  16  17
ENDBRANCH   1  16
TORSDOF 7
