@<TRIPOS>MOLECULE
*****
 8 7 0 0 0
SMALL
GASTEIGER

@<TRIPOS>ATOM
      1 C           3.4641   -0.0000    0.0000 C.2     1  UNL1       -0.0049
      2 C           3.4641    1.0000    0.0000 C.2     1  UNL1       -0.0261
      3 C           2.5981    1.5000    0.0000 C.3     1  UNL1        0.0275
      4 C           1.7321    1.0000    0.0000 C.3     1  UNL1        0.0220
      5 C           0.8660    1.5000    0.0000 C.3     1  UNL1        0.0725
      6 N          -0.0000    1.0000    0.0000 N.3     1  UNL1       -0.2703
      7 C          -0.8660    1.5000    0.0000 C.3     1  UNL1        0.0897
      8 C           0.0000    0.0000    0.0000 C.3     1  UNL1        0.0897
@<TRIPOS>BOND
     1     1     2    2
     2     2     3    1
     3     3     4    1
     4     4     5    1
     5     5     6    1
     6     6     7    1
     7     6     8    1
