REMARK  Name = cpd218.pdb
REMARK  6 active torsions:
REMARK  status: ('A' for Active; 'I' for Inactive)
REMARK    1  A    between atoms: C_2  and  C_3
REMARK    2  A    between atoms: C_3  and  C_4
REMARK    3  A    between atoms: C_4  and  C_5
REMARK    4  A    between atoms: C_5  and  N_6
REMARK    5  A    between atoms: N_6  and  C_7
REMARK    6  A    between atoms: N_6  and  C_8
REMARK                            x       y       z     vdW  Elec       q    Type
REMARK                         _______ _______ _______ _____ _____    ______ ____
ROOT
ATOM      1  C   UNL     1       0.628   1.606   0.072  0.00  0.00    -0.001 C 
ENDROOT
BRANCH   1   2
ATOM      2  N   UNL     1      -0.559   0.901  -0.443  0.00  0.00    -0.308 N 
ATOM      3  C   UNL     1      -1.721   1.795  -0.415  0.00  0.00    -0.013 C 
ATOM      4  C   UNL     1      -0.855  -0.313   0.319  0.00  0.00    -0.013 C 
ATOM      5  H   UNL     1      -0.355   0.622  -1.403  0.00  0.00    +0.000 HD
ENDBRANCH   1   2
BRANCH   1   6
ATOM      6  C   UNL     1       1.934   0.828  -0.143  0.00  0.00    -0.037 C 
BRANCH   6   7
ATOM      7  C   UNL     1       3.146   1.668   0.279  0.00  0.00    -0.034 C 
BRANCH   7   9
ATOM      8  C   UNL     1       4.770  -0.204  -0.332  0.00  0.00    -0.103 C 
ATOM      9  C   UNL     1       4.499   1.020   0.136  0.00  0.00    -0.091 C 
ENDBRANCH   7   9
ENDBRANCH   6   7
ENDBRANCH   1   6
TORSDOF 4
