MODEL 1
REMARK VINA RESULT:    -3.849      0.000      0.000
REMARK INTER + INTRA:          -4.817
REMARK INTER:                  -4.749
REMARK INTRA:                  -0.067
REMARK UNBOUND:                -0.067
REMARK  Name = cpd218.pdb
REMARK  6 active torsions:
REMARK  status: ('A' for Active; 'I' for Inactive)
REMARK    1  A    between atoms: C_2  and  C_3
REMARK    2  A    between atoms: C_3  and  C_4
REMARK    3  A    between atoms: C_4  and  C_5
REMARK    4  A    between atoms: C_5  and  N_6
REMARK    5  A    between atoms: N_6  and  C_7
REMARK    6  A    between atoms: N_6  and  C_8
REMARK                            x       y       z     vdW  Elec       q    Type
REMARK                         _______ _______ _______ _____ _____    ______ ____
ROOT
ATOM      1  C   UNL     1      62.183 -26.159  -7.127  0.00  0.00    -0.001 C 
ENDROOT
BRANCH   1   2
ATOM      2  N   UNL     1      63.237 -26.609  -6.201  0.00  0.00    -0.308 N 
ATOM      3  C   UNL     1      64.557 -26.314  -6.767  0.00  0.00    -0.013 C 
ATOM      4  C   UNL     1      63.138 -28.038  -5.903  0.00  0.00    -0.013 C 
ATOM      5  H   UNL     1      63.110 -26.101  -5.325  0.00  0.00    +0.000 HD
ENDBRANCH   1   2
BRANCH   1   6
ATOM      6  C   UNL     1      62.523 -24.839  -7.835  0.00  0.00    -0.037 C 
BRANCH   6   7
ATOM      7  C   UNL     1      61.944 -24.816  -9.255  0.00  0.00    -0.034 C 
BRANCH   7   9
ATOM      8  C   UNL     1      63.479 -23.191 -10.487  0.00  0.00    -0.103 C 
ATOM      9  C   UNL     1      62.874 -24.377 -10.356  0.00  0.00    -0.091 C 
ENDBRANCH   7   9
ENDBRANCH   6   7
ENDBRANCH   1   6
TORSDOF 4
ENDMDL
MODEL 2
REMARK VINA RESULT:    -3.846     33.632     34.578
REMARK INTER + INTRA:          -4.813
REMARK INTER:                  -4.642
REMARK INTRA:                  -0.171
REMARK UNBOUND:                -0.067
REMARK  Name = cpd218.pdb
REMARK  6 active torsions:
REMARK  status: ('A' for Active; 'I' for Inactive)
REMARK    1  A    between atoms: C_2  and  C_3
REMARK    2  A    between atoms: C_3  and  C_4
REMARK    3  A    between atoms: C_4  and  C_5
REMARK    4  A    between atoms: C_5  and  N_6
REMARK    5  A    between atoms: N_6  and  C_7
REMARK    6  A    between atoms: N_6  and  C_8
REMARK                            x       y       z     vdW  Elec       q    Type
REMARK                         _______ _______ _______ _____ _____    ______ ____
ROOT
ATOM      1  C   UNL     1      40.151 -35.916 -32.632  0.00  0.00    -0.001 C 
ENDROOT
BRANCH   1   2
ATOM      2  N   UNL     1      38.786 -35.942 -32.077  0.00  0.00    -0.308 N 
ATOM      3  C   UNL     1      38.337 -34.575 -31.796  0.00  0.00    -0.013 C 
ATOM      4  C   UNL     1      38.701 -36.747 -30.858  0.00  0.00    -0.013 C 
ATOM      5  H   UNL     1      38.181 -36.373 -32.776  0.00  0.00    +0.000 HD
ENDBRANCH   1   2
BRANCH   1   6
ATOM      6  C   UNL     1      41.229 -35.636 -31.576  0.00  0.00    -0.037 C 
BRANCH   6   7
ATOM      7  C   UNL     1      42.470 -36.504 -31.817  0.00  0.00    -0.034 C 
BRANCH   7   9
ATOM      8  C   UNL     1      42.072 -38.548 -30.341  0.00  0.00    -0.103 C 
ATOM      9  C   UNL     1      42.332 -37.975 -31.522  0.00  0.00    -0.091 C 
ENDBRANCH   7   9
ENDBRANCH   6   7
ENDBRANCH   1   6
TORSDOF 4
ENDMDL
MODEL 3
REMARK VINA RESULT:    -3.776      1.178      1.999
REMARK INTER + INTRA:          -4.727
REMARK INTER:                  -4.608
REMARK INTRA:                  -0.119
REMARK UNBOUND:                -0.067
REMARK  Name = cpd218.pdb
REMARK  6 active torsions:
REMARK  status: ('A' for Active; 'I' for Inactive)
REMARK    1  A    between atoms: C_2  and  C_3
REMARK    2  A    between atoms: C_3  and  C_4
REMARK    3  A    between atoms: C_4  and  C_5
REMARK    4  A    between atoms: C_5  and  N_6
REMARK    5  A    between atoms: N_6  and  C_7
REMARK    6  A    between atoms: N_6  and  C_8
REMARK                            x       y       z     vdW  Elec       q    Type
REMARK                         _______ _______ _______ _____ _____    ______ ____
ROOT
ATOM      1  C   UNL     1      64.624 -26.248  -6.908  0.00  0.00    -0.001 C 
ENDROOT
BRANCH   1   2
ATOM      2  N   UNL     1      63.405 -26.845  -6.335  0.00  0.00    -0.308 N 
ATOM      3  C   UNL     1      63.612 -28.278  -6.105  0.00  0.00    -0.013 C 
ATOM      4  C   UNL     1      62.237 -26.650  -7.195  0.00  0.00    -0.013 C 
ATOM      5  H   UNL     1      63.220 -26.372  -5.450  0.00  0.00    +0.000 HD
ENDBRANCH   1   2
BRANCH   1   6
ATOM      6  C   UNL     1      64.403 -24.831  -7.456  0.00  0.00    -0.037 C 
BRANCH   6   7
ATOM      7  C   UNL     1      64.881 -24.727  -8.910  0.00  0.00    -0.034 C 
BRANCH   7   9
ATOM      8  C   UNL     1      62.680 -24.484 -10.179  0.00  0.00    -0.103 C 
ATOM      9  C   UNL     1      63.928 -24.095  -9.891  0.00  0.00    -0.091 C 
ENDBRANCH   7   9
ENDBRANCH   6   7
ENDBRANCH   1   6
TORSDOF 4
ENDMDL
MODEL 4
REMARK VINA RESULT:    -3.626     33.534     34.672
REMARK INTER + INTRA:          -4.542
REMARK INTER:                  -4.487
REMARK INTRA:                  -0.055
REMARK UNBOUND:                -0.067
REMARK  Name = cpd218.pdb
REMARK  6 active torsions:
REMARK  status: ('A' for Active; 'I' for Inactive)
REMARK    1  A    between atoms: C_2  and  C_3
REMARK    2  A    between atoms: C_3  and  C_4
REMARK    3  A    between atoms: C_4  and  C_5
REMARK    4  A    between atoms: C_5  and  N_6
REMARK    5  A    between atoms: N_6  and  C_7
REMARK    6  A    between atoms: N_6  and  C_8
REMARK                            x       y       z     vdW  Elec       q    Type
REMARK                         _______ _______ _______ _____ _____    ______ ____
ROOT
ATOM      1  C   UNL     1      39.338 -35.967 -31.428  0.00  0.00    -0.001 C 
ENDROOT
BRANCH   1   2
ATOM      2  N   UNL     1      40.709 -35.547 -31.765  0.00  0.00    -0.308 N 
ATOM      3  C   UNL     1      41.127 -36.173 -33.024  0.00  0.00    -0.013 C 
ATOM      4  C   UNL     1      41.665 -35.883 -30.709  0.00  0.00    -0.013 C 
ATOM      5  H   UNL     1      40.702 -34.532 -31.864  0.00  0.00    +0.000 HD
ENDBRANCH   1   2
BRANCH   1   6
ATOM      6  C   UNL     1      39.277 -36.943 -30.245  0.00  0.00    -0.037 C 
BRANCH   6   7
ATOM      7  C   UNL     1      37.861 -37.005 -29.659  0.00  0.00    -0.034 C 
BRANCH   7   9
ATOM      8  C   UNL     1      36.736 -37.741 -27.489  0.00  0.00    -0.103 C 
ATOM      9  C   UNL     1      37.673 -37.867 -28.437  0.00  0.00    -0.091 C 
ENDBRANCH   7   9
ENDBRANCH   6   7
ENDBRANCH   1   6
TORSDOF 4
ENDMDL
MODEL 5
REMARK VINA RESULT:    -3.543     37.302     38.468
REMARK INTER + INTRA:          -4.439
REMARK INTER:                  -4.305
REMARK INTRA:                  -0.134
REMARK UNBOUND:                -0.067
REMARK  Name = cpd218.pdb
REMARK  6 active torsions:
REMARK  status: ('A' for Active; 'I' for Inactive)
REMARK    1  A    between atoms: C_2  and  C_3
REMARK    2  A    between atoms: C_3  and  C_4
REMARK    3  A    between atoms: C_4  and  C_5
REMARK    4  A    between atoms: C_5  and  N_6
REMARK    5  A    between atoms: N_6  and  C_7
REMARK    6  A    between atoms: N_6  and  C_8
REMARK                            x       y       z     vdW  Elec       q    Type
REMARK                         _______ _______ _______ _____ _____    ______ ____
ROOT
ATOM      1  C   UNL     1      46.010 -21.762 -41.824  0.00  0.00    -0.001 C 
ENDROOT
BRANCH   1   2
ATOM      2  N   UNL     1      47.338 -22.153 -42.329  0.00  0.00    -0.308 N 
ATOM      3  C   UNL     1      47.723 -23.451 -41.764  0.00  0.00    -0.013 C 
ATOM      4  C   UNL     1      48.364 -21.158 -42.016  0.00  0.00    -0.013 C 
ATOM      5  H   UNL     1      47.271 -22.220 -43.345  0.00  0.00    +0.000 HD
ENDBRANCH   1   2
BRANCH   1   6
ATOM      6  C   UNL     1      44.995 -21.486 -42.943  0.00  0.00    -0.037 C 
BRANCH   6   7
ATOM      7  C   UNL     1      44.589 -20.008 -42.960  0.00  0.00    -0.034 C 
BRANCH   7   9
ATOM      8  C   UNL     1      44.666 -17.907 -41.513  0.00  0.00    -0.103 C 
ATOM      9  C   UNL     1      44.915 -19.204 -41.728  0.00  0.00    -0.091 C 
ENDBRANCH   7   9
ENDBRANCH   6   7
ENDBRANCH   1   6
TORSDOF 4
ENDMDL
MODEL 6
REMARK VINA RESULT:    -3.513     34.079     35.534
REMARK INTER + INTRA:          -4.402
REMARK INTER:                  -4.337
REMARK INTRA:                  -0.065
REMARK UNBOUND:                -0.067
REMARK  Name = cpd218.pdb
REMARK  6 active torsions:
REMARK  status: ('A' for Active; 'I' for Inactive)
REMARK    1  A    between atoms: C_2  and  C_3
REMARK    2  A    between atoms: C_3  and  C_4
REMARK    3  A    between atoms: C_4  and  C_5
REMARK    4  A    between atoms: C_5  and  N_6
REMARK    5  A    between atoms: N_6  and  C_7
REMARK    6  A    between atoms: N_6  and  C_8
REMARK                            x       y       z     vdW  Elec       q    Type
REMARK                         _______ _______ _______ _____ _____    ______ ____
ROOT
ATOM      1  C   UNL     1      38.939 -22.900 -34.008  0.00  0.00    -0.001 C 
ENDROOT
BRANCH   1   2
ATOM      2  N   UNL     1      39.800 -22.450 -32.900  0.00  0.00    -0.308 N 
ATOM      3  C   UNL     1      40.215 -21.062 -33.124  0.00  0.00    -0.013 C 
ATOM      4  C   UNL     1      40.983 -23.297 -32.740  0.00  0.00    -0.013 C 
ATOM      5  H   UNL     1      39.253 -22.518 -32.042  0.00  0.00    +0.000 HD
ENDBRANCH   1   2
BRANCH   1   6
ATOM      6  C   UNL     1      37.621 -23.526 -33.533  0.00  0.00    -0.037 C 
BRANCH   6   7
ATOM      7  C   UNL     1      37.687 -25.057 -33.602  0.00  0.00    -0.034 C 
BRANCH   7   9
ATOM      8  C   UNL     1      35.979 -26.901 -33.158  0.00  0.00    -0.103 C 
ATOM      9  C   UNL     1      36.377 -25.782 -33.775  0.00  0.00    -0.091 C 
ENDBRANCH   7   9
ENDBRANCH   6   7
ENDBRANCH   1   6
TORSDOF 4
ENDMDL
MODEL 7
REMARK VINA RESULT:    -3.443     33.824     34.879
REMARK INTER + INTRA:          -4.316
REMARK INTER:                  -4.239
REMARK INTRA:                  -0.077
REMARK UNBOUND:                -0.067
REMARK  Name = cpd218.pdb
REMARK  6 active torsions:
REMARK  status: ('A' for Active; 'I' for Inactive)
REMARK    1  A    between atoms: C_2  and  C_3
REMARK    2  A    between atoms: C_3  and  C_4
REMARK    3  A    between atoms: C_4  and  C_5
REMARK    4  A    between atoms: C_5  and  N_6
REMARK    5  A    between atoms: N_6  and  C_7
REMARK    6  A    between atoms: N_6  and  C_8
REMARK                            x       y       z     vdW  Elec       q    Type
REMARK                         _______ _______ _______ _____ _____    ______ ____
ROOT
ATOM      1  C   UNL     1      38.861 -36.936 -30.675  0.00  0.00    -0.001 C 
ENDROOT
BRANCH   1   2
ATOM      2  N   UNL     1      37.439 -36.847 -30.300  0.00  0.00    -0.308 N 
ATOM      3  C   UNL     1      36.881 -35.572 -30.761  0.00  0.00    -0.013 C 
ATOM      4  C   UNL     1      37.238 -36.977 -28.856  0.00  0.00    -0.013 C 
ATOM      5  H   UNL     1      36.956 -37.624 -30.751  0.00  0.00    +0.000 HD
ENDBRANCH   1   2
BRANCH   1   6
ATOM      6  C   UNL     1      39.260 -35.943 -31.776  0.00  0.00    -0.037 C 
BRANCH   6   7
ATOM      7  C   UNL     1      40.771 -35.682 -31.755  0.00  0.00    -0.034 C 
BRANCH   7   9
ATOM      8  C   UNL     1      42.259 -37.756 -31.767  0.00  0.00    -0.103 C 
ATOM      9  C   UNL     1      41.632 -36.754 -31.139  0.00  0.00    -0.091 C 
ENDBRANCH   7   9
ENDBRANCH   6   7
ENDBRANCH   1   6
TORSDOF 4
ENDMDL
MODEL 8
REMARK VINA RESULT:    -3.348     39.971     41.506
REMARK INTER + INTRA:          -4.198
REMARK INTER:                  -4.115
REMARK INTRA:                  -0.083
REMARK UNBOUND:                -0.067
REMARK  Name = cpd218.pdb
REMARK  6 active torsions:
REMARK  status: ('A' for Active; 'I' for Inactive)
REMARK    1  A    between atoms: C_2  and  C_3
REMARK    2  A    between atoms: C_3  and  C_4
REMARK    3  A    between atoms: C_4  and  C_5
REMARK    4  A    between atoms: C_5  and  N_6
REMARK    5  A    between atoms: N_6  and  C_7
REMARK    6  A    between atoms: N_6  and  C_8
REMARK                            x       y       z     vdW  Elec       q    Type
REMARK                         _______ _______ _______ _____ _____    ______ ____
ROOT
ATOM      1  C   UNL     1      55.500 -35.355 -48.352  0.00  0.00    -0.001 C 
ENDROOT
BRANCH   1   2
ATOM      2  N   UNL     1      56.258 -36.610 -48.502  0.00  0.00    -0.308 N 
ATOM      3  C   UNL     1      56.405 -36.937 -49.923  0.00  0.00    -0.013 C 
ATOM      4  C   UNL     1      55.620 -37.727 -47.804  0.00  0.00    -0.013 C 
ATOM      5  H   UNL     1      57.175 -36.464 -48.079  0.00  0.00    +0.000 HD
ENDBRANCH   1   2
BRANCH   1   6
ATOM      6  C   UNL     1      56.303 -34.243 -47.661  0.00  0.00    -0.037 C 
BRANCH   6   7
ATOM      7  C   UNL     1      55.651 -33.844 -46.331  0.00  0.00    -0.034 C 
BRANCH   7   9
ATOM      8  C   UNL     1      53.740 -35.166 -45.275  0.00  0.00    -0.103 C 
ATOM      9  C   UNL     1      55.039 -34.956 -45.519  0.00  0.00    -0.091 C 
ENDBRANCH   7   9
ENDBRANCH   6   7
ENDBRANCH   1   6
TORSDOF 4
ENDMDL
MODEL 9
REMARK VINA RESULT:    -3.256     35.964     37.481
REMARK INTER + INTRA:          -4.085
REMARK INTER:                  -3.877
REMARK INTRA:                  -0.208
REMARK UNBOUND:                -0.067
REMARK  Name = cpd218.pdb
REMARK  6 active torsions:
REMARK  status: ('A' for Active; 'I' for Inactive)
REMARK    1  A    between atoms: C_2  and  C_3
REMARK    2  A    between atoms: C_3  and  C_4
REMARK    3  A    between atoms: C_4  and  C_5
REMARK    4  A    between atoms: C_5  and  N_6
REMARK    5  A    between atoms: N_6  and  C_7
REMARK    6  A    between atoms: N_6  and  C_8
REMARK                            x       y       z     vdW  Elec       q    Type
REMARK                         _______ _______ _______ _____ _____    ______ ____
ROOT
ATOM      1  C   UNL     1      47.077 -21.676 -39.849  0.00  0.00    -0.001 C 
ENDROOT
BRANCH   1   2
ATOM      2  N   UNL     1      47.999 -22.161 -40.891  0.00  0.00    -0.308 N 
ATOM      3  C   UNL     1      48.288 -21.083 -41.843  0.00  0.00    -0.013 C 
ATOM      4  C   UNL     1      47.463 -23.318 -41.609  0.00  0.00    -0.013 C 
ATOM      5  H   UNL     1      48.858 -22.456 -40.425  0.00  0.00    +0.000 HD
ENDBRANCH   1   2
BRANCH   1   6
ATOM      6  C   UNL     1      45.612 -22.048 -40.118  0.00  0.00    -0.037 C 
BRANCH   6   7
ATOM      7  C   UNL     1      44.799 -20.810 -40.517  0.00  0.00    -0.034 C 
BRANCH   7   9
ATOM      8  C   UNL     1      44.688 -20.236 -43.002  0.00  0.00    -0.103 C 
ATOM      9  C   UNL     1      44.198 -20.815 -41.899  0.00  0.00    -0.091 C 
ENDBRANCH   7   9
ENDBRANCH   6   7
ENDBRANCH   1   6
TORSDOF 4
ENDMDL
MODEL 10
REMARK VINA RESULT:    -3.253     34.632     35.283
REMARK INTER + INTRA:          -4.081
REMARK INTER:                  -4.027
REMARK INTRA:                  -0.054
REMARK UNBOUND:                -0.067
REMARK  Name = cpd218.pdb
REMARK  6 active torsions:
REMARK  status: ('A' for Active; 'I' for Inactive)
REMARK    1  A    between atoms: C_2  and  C_3
REMARK    2  A    between atoms: C_3  and  C_4
REMARK    3  A    between atoms: C_4  and  C_5
REMARK    4  A    between atoms: C_5  and  N_6
REMARK    5  A    between atoms: N_6  and  C_7
REMARK    6  A    between atoms: N_6  and  C_8
REMARK                            x       y       z     vdW  Elec       q    Type
REMARK                         _______ _______ _______ _____ _____    ______ ____
ROOT
ATOM      1  C   UNL     1      37.479 -36.312 -30.123  0.00  0.00    -0.001 C 
ENDROOT
BRANCH   1   2
ATOM      2  N   UNL     1      36.937 -37.415 -29.309  0.00  0.00    -0.308 N 
ATOM      3  C   UNL     1      37.977 -37.931 -28.413  0.00  0.00    -0.013 C 
ATOM      4  C   UNL     1      36.414 -38.505 -30.134  0.00  0.00    -0.013 C 
ATOM      5  H   UNL     1      36.160 -37.039 -28.765  0.00  0.00    +0.000 HD
ENDBRANCH   1   2
BRANCH   1   6
ATOM      6  C   UNL     1      38.881 -36.601 -30.676  0.00  0.00    -0.037 C 
BRANCH   6   7
ATOM      7  C   UNL     1      39.155 -35.767 -31.934  0.00  0.00    -0.034 C 
BRANCH   7   9
ATOM      8  C   UNL     1      41.416 -36.892 -32.306  0.00  0.00    -0.103 C 
ATOM      9  C   UNL     1      40.488 -35.974 -32.604  0.00  0.00    -0.091 C 
ENDBRANCH   7   9
ENDBRANCH   6   7
ENDBRANCH   1   6
TORSDOF 4
ENDMDL
MODEL 11
REMARK VINA RESULT:    -3.250     35.044     36.116
REMARK INTER + INTRA:          -4.078
REMARK INTER:                  -3.953
REMARK INTRA:                  -0.124
REMARK UNBOUND:                -0.067
REMARK  Name = cpd218.pdb
REMARK  6 active torsions:
REMARK  status: ('A' for Active; 'I' for Inactive)
REMARK    1  A    between atoms: C_2  and  C_3
REMARK    2  A    between atoms: C_3  and  C_4
REMARK    3  A    between atoms: C_4  and  C_5
REMARK    4  A    between atoms: C_5  and  N_6
REMARK    5  A    between atoms: N_6  and  C_7
REMARK    6  A    between atoms: N_6  and  C_8
REMARK                            x       y       z     vdW  Elec       q    Type
REMARK                         _______ _______ _______ _____ _____    ______ ____
ROOT
ATOM      1  C   UNL     1      36.907 -35.757 -30.605  0.00  0.00    -0.001 C 
ENDROOT
BRANCH   1   2
ATOM      2  N   UNL     1      35.890 -36.394 -31.460  0.00  0.00    -0.308 N 
ATOM      3  C   UNL     1      34.846 -35.422 -31.802  0.00  0.00    -0.013 C 
ATOM      4  C   UNL     1      35.283 -37.562 -30.821  0.00  0.00    -0.013 C 
ATOM      5  H   UNL     1      36.361 -36.714 -32.307  0.00  0.00    +0.000 HD
ENDBRANCH   1   2
BRANCH   1   6
ATOM      6  C   UNL     1      37.722 -36.765 -29.782  0.00  0.00    -0.037 C 
BRANCH   6   7
ATOM      7  C   UNL     1      39.105 -36.988 -30.407  0.00  0.00    -0.034 C 
BRANCH   7   9
ATOM      8  C   UNL     1      40.741 -35.410 -31.567  0.00  0.00    -0.103 C 
ATOM      9  C   UNL     1      39.543 -35.994 -31.451  0.00  0.00    -0.091 C 
ENDBRANCH   7   9
ENDBRANCH   6   7
ENDBRANCH   1   6
TORSDOF 4
ENDMDL
MODEL 12
REMARK VINA RESULT:    -3.190     35.000     35.631
REMARK INTER + INTRA:          -4.003
REMARK INTER:                  -3.926
REMARK INTRA:                  -0.077
REMARK UNBOUND:                -0.067
REMARK  Name = cpd218.pdb
REMARK  6 active torsions:
REMARK  status: ('A' for Active; 'I' for Inactive)
REMARK    1  A    between atoms: C_2  and  C_3
REMARK    2  A    between atoms: C_3  and  C_4
REMARK    3  A    between atoms: C_4  and  C_5
REMARK    4  A    between atoms: C_5  and  N_6
REMARK    5  A    between atoms: N_6  and  C_7
REMARK    6  A    between atoms: N_6  and  C_8
REMARK                            x       y       z     vdW  Elec       q    Type
REMARK                         _______ _______ _______ _____ _____    ______ ____
ROOT
ATOM      1  C   UNL     1      37.215 -37.950 -27.834  0.00  0.00    -0.001 C 
ENDROOT
BRANCH   1   2
ATOM      2  N   UNL     1      36.107 -38.920 -27.771  0.00  0.00    -0.308 N 
ATOM      3  C   UNL     1      36.293 -39.956 -28.792  0.00  0.00    -0.013 C 
ATOM      4  C   UNL     1      34.803 -38.281 -27.952  0.00  0.00    -0.013 C 
ATOM      5  H   UNL     1      36.120 -39.338 -26.841  0.00  0.00    +0.000 HD
ENDBRANCH   1   2
BRANCH   1   6
ATOM      6  C   UNL     1      37.085 -36.958 -28.998  0.00  0.00    -0.037 C 
BRANCH   6   7
ATOM      7  C   UNL     1      38.352 -36.962 -29.863  0.00  0.00    -0.034 C 
BRANCH   7   9
ATOM      8  C   UNL     1      39.290 -35.957 -32.014  0.00  0.00    -0.103 C 
ATOM      9  C   UNL     1      38.354 -36.048 -31.061  0.00  0.00    -0.091 C 
ENDBRANCH   7   9
ENDBRANCH   6   7
ENDBRANCH   1   6
TORSDOF 4
ENDMDL
MODEL 13
REMARK VINA RESULT:    -3.102      1.957      4.709
REMARK INTER + INTRA:          -3.895
REMARK INTER:                  -3.830
REMARK INTRA:                  -0.066
REMARK UNBOUND:                -0.067
REMARK  Name = cpd218.pdb
REMARK  6 active torsions:
REMARK  status: ('A' for Active; 'I' for Inactive)
REMARK    1  A    between atoms: C_2  and  C_3
REMARK    2  A    between atoms: C_3  and  C_4
REMARK    3  A    between atoms: C_4  and  C_5
REMARK    4  A    between atoms: C_5  and  N_6
REMARK    5  A    between atoms: N_6  and  C_7
REMARK    6  A    between atoms: N_6  and  C_8
REMARK                            x       y       z     vdW  Elec       q    Type
REMARK                         _______ _______ _______ _____ _____    ______ ____
ROOT
ATOM      1  C   UNL     1      63.723 -23.761  -7.546  0.00  0.00    -0.001 C 
ENDROOT
BRANCH   1   2
ATOM      2  N   UNL     1      63.128 -23.216  -8.779  0.00  0.00    -0.308 N 
ATOM      3  C   UNL     1      63.638 -23.946  -9.943  0.00  0.00    -0.013 C 
ATOM      4  C   UNL     1      63.399 -21.787  -8.938  0.00  0.00    -0.013 C 
ATOM      5  H   UNL     1      62.117 -23.333  -8.707  0.00  0.00    +0.000 HD
ENDBRANCH   1   2
BRANCH   1   6
ATOM      6  C   UNL     1      64.558 -25.027  -7.785  0.00  0.00    -0.037 C 
BRANCH   6   7
ATOM      7  C   UNL     1      64.474 -25.973  -6.581  0.00  0.00    -0.034 C 
BRANCH   7   9
ATOM      8  C   UNL     1      63.115 -27.943  -5.695  0.00  0.00    -0.103 C 
ATOM      9  C   UNL     1      63.437 -27.064  -6.651  0.00  0.00    -0.091 C 
ENDBRANCH   7   9
ENDBRANCH   6   7
ENDBRANCH   1   6
TORSDOF 4
ENDMDL
MODEL 14
REMARK VINA RESULT:    -3.094      2.303      2.800
REMARK INTER + INTRA:          -3.884
REMARK INTER:                  -3.815
REMARK INTRA:                  -0.070
REMARK UNBOUND:                -0.067
REMARK  Name = cpd218.pdb
REMARK  6 active torsions:
REMARK  status: ('A' for Active; 'I' for Inactive)
REMARK    1  A    between atoms: C_2  and  C_3
REMARK    2  A    between atoms: C_3  and  C_4
REMARK    3  A    between atoms: C_4  and  C_5
REMARK    4  A    between atoms: C_5  and  N_6
REMARK    5  A    between atoms: N_6  and  C_7
REMARK    6  A    between atoms: N_6  and  C_8
REMARK                            x       y       z     vdW  Elec       q    Type
REMARK                         _______ _______ _______ _____ _____    ______ ____
ROOT
ATOM      1  C   UNL     1      63.918 -24.953  -6.033  0.00  0.00    -0.001 C 
ENDROOT
BRANCH   1   2
ATOM      2  N   UNL     1      63.124 -24.047  -5.184  0.00  0.00    -0.308 N 
ATOM      3  C   UNL     1      63.037 -22.725  -5.812  0.00  0.00    -0.013 C 
ATOM      4  C   UNL     1      63.686 -23.916  -3.839  0.00  0.00    -0.013 C 
ATOM      5  H   UNL     1      62.193 -24.453  -5.093  0.00  0.00    +0.000 HD
ENDBRANCH   1   2
BRANCH   1   6
ATOM      6  C   UNL     1      63.430 -25.000  -7.488  0.00  0.00    -0.037 C 
BRANCH   6   7
ATOM      7  C   UNL     1      64.603 -24.843  -8.463  0.00  0.00    -0.034 C 
BRANCH   7   9
ATOM      8  C   UNL     1      63.097 -23.913 -10.302  0.00  0.00    -0.103 C 
ATOM      9  C   UNL     1      64.301 -24.177  -9.781  0.00  0.00    -0.091 C 
ENDBRANCH   7   9
ENDBRANCH   6   7
ENDBRANCH   1   6
TORSDOF 4
ENDMDL
MODEL 15
REMARK VINA RESULT:    -3.090      2.789      4.734
REMARK INTER + INTRA:          -3.880
REMARK INTER:                  -3.798
REMARK INTRA:                  -0.082
REMARK UNBOUND:                -0.067
REMARK  Name = cpd218.pdb
REMARK  6 active torsions:
REMARK  status: ('A' for Active; 'I' for Inactive)
REMARK    1  A    between atoms: C_2  and  C_3
REMARK    2  A    between atoms: C_3  and  C_4
REMARK    3  A    between atoms: C_4  and  C_5
REMARK    4  A    between atoms: C_5  and  N_6
REMARK    5  A    between atoms: N_6  and  C_7
REMARK    6  A    between atoms: N_6  and  C_8
REMARK                            x       y       z     vdW  Elec       q    Type
REMARK                         _______ _______ _______ _____ _____    ______ ____
ROOT
ATOM      1  C   UNL     1      63.044 -24.385  -6.270  0.00  0.00    -0.001 C 
ENDROOT
BRANCH   1   2
ATOM      2  N   UNL     1      62.029 -25.151  -7.015  0.00  0.00    -0.308 N 
ATOM      3  C   UNL     1      62.355 -26.580  -6.976  0.00  0.00    -0.013 C 
ATOM      4  C   UNL     1      61.917 -24.711  -8.407  0.00  0.00    -0.013 C 
ATOM      5  H   UNL     1      61.129 -24.985  -6.564  0.00  0.00    +0.000 HD
ENDBRANCH   1   2
BRANCH   1   6
ATOM      6  C   UNL     1      64.112 -25.273  -5.616  0.00  0.00    -0.037 C 
BRANCH   6   7
ATOM      7  C   UNL     1      64.297 -24.906  -4.138  0.00  0.00    -0.034 C 
BRANCH   7   9
ATOM      8  C   UNL     1      65.081 -22.756  -3.007  0.00  0.00    -0.103 C 
ATOM      9  C   UNL     1      65.264 -23.791  -3.836  0.00  0.00    -0.091 C 
ENDBRANCH   7   9
ENDBRANCH   6   7
ENDBRANCH   1   6
TORSDOF 4
ENDMDL
MODEL 16
REMARK VINA RESULT:    -3.037     33.869     34.933
REMARK INTER + INTRA:          -3.814
REMARK INTER:                  -3.758
REMARK INTRA:                  -0.056
REMARK UNBOUND:                -0.067
REMARK  Name = cpd218.pdb
REMARK  6 active torsions:
REMARK  status: ('A' for Active; 'I' for Inactive)
REMARK    1  A    between atoms: C_2  and  C_3
REMARK    2  A    between atoms: C_3  and  C_4
REMARK    3  A    between atoms: C_4  and  C_5
REMARK    4  A    between atoms: C_5  and  N_6
REMARK    5  A    between atoms: N_6  and  C_7
REMARK    6  A    between atoms: N_6  and  C_8
REMARK                            x       y       z     vdW  Elec       q    Type
REMARK                         _______ _______ _______ _____ _____    ______ ____
ROOT
ATOM      1  C   UNL     1      39.444 -36.830 -31.049  0.00  0.00    -0.001 C 
ENDROOT
BRANCH   1   2
ATOM      2  N   UNL     1      40.703 -36.159 -30.677  0.00  0.00    -0.308 N 
ATOM      3  C   UNL     1      40.893 -34.963 -31.503  0.00  0.00    -0.013 C 
ATOM      4  C   UNL     1      41.862 -37.042 -30.816  0.00  0.00    -0.013 C 
ATOM      5  H   UNL     1      40.629 -35.897 -29.693  0.00  0.00    +0.000 HD
ENDBRANCH   1   2
BRANCH   1   6
ATOM      6  C   UNL     1      38.475 -36.993 -29.869  0.00  0.00    -0.037 C 
BRANCH   6   7
ATOM      7  C   UNL     1      37.036 -37.180 -30.367  0.00  0.00    -0.034 C 
BRANCH   7   9
ATOM      8  C   UNL     1      36.381 -34.758 -30.840  0.00  0.00    -0.103 C 
ATOM      9  C   UNL     1      36.143 -35.967 -30.318  0.00  0.00    -0.091 C 
ENDBRANCH   7   9
ENDBRANCH   6   7
ENDBRANCH   1   6
TORSDOF 4
ENDMDL
MODEL 17
REMARK VINA RESULT:    -3.034     35.127     36.146
REMARK INTER + INTRA:          -3.810
REMARK INTER:                  -3.706
REMARK INTRA:                  -0.104
REMARK UNBOUND:                -0.067
REMARK  Name = cpd218.pdb
REMARK  6 active torsions:
REMARK  status: ('A' for Active; 'I' for Inactive)
REMARK    1  A    between atoms: C_2  and  C_3
REMARK    2  A    between atoms: C_3  and  C_4
REMARK    3  A    between atoms: C_4  and  C_5
REMARK    4  A    between atoms: C_5  and  N_6
REMARK    5  A    between atoms: N_6  and  C_7
REMARK    6  A    between atoms: N_6  and  C_8
REMARK                            x       y       z     vdW  Elec       q    Type
REMARK                         _______ _______ _______ _____ _____    ______ ____
ROOT
ATOM      1  C   UNL     1      36.023 -37.376 -30.307  0.00  0.00    -0.001 C 
ENDROOT
BRANCH   1   2
ATOM      2  N   UNL     1      36.156 -38.804 -30.643  0.00  0.00    -0.308 N 
ATOM      3  C   UNL     1      34.980 -39.250 -31.397  0.00  0.00    -0.013 C 
ATOM      4  C   UNL     1      36.321 -39.640 -29.452  0.00  0.00    -0.013 C 
ATOM      5  H   UNL     1      36.997 -38.907 -31.212  0.00  0.00    +0.000 HD
ENDBRANCH   1   2
BRANCH   1   6
ATOM      6  C   UNL     1      37.166 -36.853 -29.425  0.00  0.00    -0.037 C 
BRANCH   6   7
ATOM      7  C   UNL     1      38.480 -36.791 -30.214  0.00  0.00    -0.034 C 
BRANCH   7   9
ATOM      8  C   UNL     1      40.918 -37.536 -30.074  0.00  0.00    -0.103 C 
ATOM      9  C   UNL     1      39.658 -37.523 -29.624  0.00  0.00    -0.091 C 
ENDBRANCH   7   9
ENDBRANCH   6   7
ENDBRANCH   1   6
TORSDOF 4
ENDMDL
MODEL 18
REMARK VINA RESULT:    -3.014     35.258     37.034
REMARK INTER + INTRA:          -3.786
REMARK INTER:                  -3.649
REMARK INTRA:                  -0.138
REMARK UNBOUND:                -0.067
REMARK  Name = cpd218.pdb
REMARK  6 active torsions:
REMARK  status: ('A' for Active; 'I' for Inactive)
REMARK    1  A    between atoms: C_2  and  C_3
REMARK    2  A    between atoms: C_3  and  C_4
REMARK    3  A    between atoms: C_4  and  C_5
REMARK    4  A    between atoms: C_5  and  N_6
REMARK    5  A    between atoms: N_6  and  C_7
REMARK    6  A    between atoms: N_6  and  C_8
REMARK                            x       y       z     vdW  Elec       q    Type
REMARK                         _______ _______ _______ _____ _____    ______ ____
ROOT
ATOM      1  C   UNL     1      47.149 -20.790 -39.607  0.00  0.00    -0.001 C 
ENDROOT
BRANCH   1   2
ATOM      2  N   UNL     1      47.170 -19.334 -39.383  0.00  0.00    -0.308 N 
ATOM      3  C   UNL     1      47.212 -19.051 -37.945  0.00  0.00    -0.013 C 
ATOM      4  C   UNL     1      46.015 -18.665 -39.983  0.00  0.00    -0.013 C 
ATOM      5  H   UNL     1      48.009 -18.969 -39.836  0.00  0.00    +0.000 HD
ENDBRANCH   1   2
BRANCH   1   6
ATOM      6  C   UNL     1      45.785 -21.308 -40.087  0.00  0.00    -0.037 C 
BRANCH   6   7
ATOM      7  C   UNL     1      45.950 -22.247 -41.288  0.00  0.00    -0.034 C 
BRANCH   7   9
ATOM      8  C   UNL     1      44.817 -20.637 -42.913  0.00  0.00    -0.103 C 
ATOM      9  C   UNL     1      45.226 -21.859 -42.552  0.00  0.00    -0.091 C 
ENDBRANCH   7   9
ENDBRANCH   6   7
ENDBRANCH   1   6
TORSDOF 4
ENDMDL
MODEL 19
REMARK VINA RESULT:    -2.957     23.665     25.577
REMARK INTER + INTRA:          -3.716
REMARK INTER:                  -3.518
REMARK INTRA:                  -0.198
REMARK UNBOUND:                -0.067
REMARK  Name = cpd218.pdb
REMARK  6 active torsions:
REMARK  status: ('A' for Active; 'I' for Inactive)
REMARK    1  A    between atoms: C_2  and  C_3
REMARK    2  A    between atoms: C_3  and  C_4
REMARK    3  A    between atoms: C_4  and  C_5
REMARK    4  A    between atoms: C_5  and  N_6
REMARK    5  A    between atoms: N_6  and  C_7
REMARK    6  A    between atoms: N_6  and  C_8
REMARK                            x       y       z     vdW  Elec       q    Type
REMARK                         _______ _______ _______ _____ _____    ______ ____
ROOT
ATOM      1  C   UNL     1      63.400 -12.916 -30.416  0.00  0.00    -0.001 C 
ENDROOT
BRANCH   1   2
ATOM      2  N   UNL     1      63.345 -14.258 -29.808  0.00  0.00    -0.308 N 
ATOM      3  C   UNL     1      62.893 -14.157 -28.417  0.00  0.00    -0.013 C 
ATOM      4  C   UNL     1      64.640 -14.939 -29.856  0.00  0.00    -0.013 C 
ATOM      5  H   UNL     1      62.683 -14.812 -30.352  0.00  0.00    +0.000 HD
ENDBRANCH   1   2
BRANCH   1   6
ATOM      6  C   UNL     1      62.610 -12.814 -31.728  0.00  0.00    -0.037 C 
BRANCH   6   7
ATOM      7  C   UNL     1      61.747 -14.064 -31.945  0.00  0.00    -0.034 C 
BRANCH   7   9
ATOM      8  C   UNL     1      59.584 -13.581 -30.677  0.00  0.00    -0.103 C 
ATOM      9  C   UNL     1      60.258 -13.890 -31.792  0.00  0.00    -0.091 C 
ENDBRANCH   7   9
ENDBRANCH   6   7
ENDBRANCH   1   6
TORSDOF 4
ENDMDL
MODEL 20
REMARK VINA RESULT:    -2.899     40.721     42.349
REMARK INTER + INTRA:          -3.644
REMARK INTER:                  -3.471
REMARK INTRA:                  -0.173
REMARK UNBOUND:                -0.067
REMARK  Name = cpd218.pdb
REMARK  6 active torsions:
REMARK  status: ('A' for Active; 'I' for Inactive)
REMARK    1  A    between atoms: C_2  and  C_3
REMARK    2  A    between atoms: C_3  and  C_4
REMARK    3  A    between atoms: C_4  and  C_5
REMARK    4  A    between atoms: C_5  and  N_6
REMARK    5  A    between atoms: N_6  and  C_7
REMARK    6  A    between atoms: N_6  and  C_8
REMARK                            x       y       z     vdW  Elec       q    Type
REMARK                         _______ _______ _______ _____ _____    ______ ____
ROOT
ATOM      1  C   UNL     1      55.909 -36.340 -49.109  0.00  0.00    -0.001 C 
ENDROOT
BRANCH   1   2
ATOM      2  N   UNL     1      55.634 -35.024 -49.712  0.00  0.00    -0.308 N 
ATOM      3  C   UNL     1      55.898 -35.072 -51.154  0.00  0.00    -0.013 C 
ATOM      4  C   UNL     1      56.430 -33.958 -49.102  0.00  0.00    -0.013 C 
ATOM      5  H   UNL     1      54.650 -34.812 -49.544  0.00  0.00    +0.000 HD
ENDBRANCH   1   2
BRANCH   1   6
ATOM      6  C   UNL     1      54.744 -36.873 -48.262  0.00  0.00    -0.037 C 
BRANCH   6   7
ATOM      7  C   UNL     1      55.110 -36.880 -46.773  0.00  0.00    -0.034 C 
BRANCH   7   9
ATOM      8  C   UNL     1      54.922 -34.541 -45.769  0.00  0.00    -0.103 C 
ATOM      9  C   UNL     1      54.495 -35.800 -45.921  0.00  0.00    -0.091 C 
ENDBRANCH   7   9
ENDBRANCH   6   7
ENDBRANCH   1   6
TORSDOF 4
ENDMDL
