MODEL 1
REMARK VINA RESULT:    -8.091      0.000      0.000
REMARK INTER + INTRA:          -9.432
REMARK INTER:                  -9.510
REMARK INTRA:                   0.078
REMARK UNBOUND:                 0.078
REMARK  Name = cpd277.pdb
REMARK  10 active torsions:
REMARK  status: ('A' for Active; 'I' for Inactive)
REMARK    1  A    between atoms: C_2  and  C_3
REMARK    2  A    between atoms: C_2  and  C_5
REMARK    3  A    between atoms: C_8  and  C_9
REMARK    4  A    between atoms: C_15  and  C_16
REMARK    5  A    between atoms: C_19  and  O_20
REMARK    6  A    between atoms: C_21  and  C_22
REMARK    7  A    between atoms: C_21  and  C_23
REMARK    8  A    between atoms: C_27  and  C_28
REMARK    9  A    between atoms: C_29  and  C_30
REMARK   10  A    between atoms: C_32  and  O_33
REMARK                            x       y       z     vdW  Elec       q    Type
REMARK                         _______ _______ _______ _____ _____    ______ ____
ROOT
ATOM      1  C   UNL A   1      37.489 -36.180 -30.315  0.00  0.00    -0.010 C 
ATOM      2  C   UNL A   1      37.673 -37.655 -30.731  0.00  0.00    -0.045 C 
ATOM      3  C   UNL A   1      36.548 -38.434 -30.059  0.00  0.00    -0.044 C 
ATOM      4  C   UNL A   1      35.991 -37.507 -28.960  0.00  0.00    -0.002 C 
ATOM      5  C   UNL A   1      36.917 -37.601 -27.713  0.00  0.00    -0.057 C 
ATOM      6  C   UNL A   1      36.069 -36.094 -29.622  0.00  0.00    -0.023 C 
ATOM      7  C   UNL A   1      34.872 -35.763 -30.577  0.00  0.00    -0.031 C 
ATOM      8  C   UNL A   1      34.860 -34.292 -31.030  0.00  0.00    -0.049 C 
ATOM      9  C   UNL A   1      34.301 -33.311 -30.018  0.00  0.00    -0.049 C 
ATOM     10  C   UNL A   1      32.855 -33.578 -29.573  0.00  0.00    -0.029 C 
ATOM     11  C   UNL A   1      31.717 -32.770 -30.366  0.00  0.00    -0.025 C 
ATOM     12  C   UNL A   1      31.812 -32.950 -31.894  0.00  0.00    -0.059 C 
ATOM     13  C   UNL A   1      31.904 -31.241 -30.088  0.00  0.00    -0.045 C 
ATOM     14  C   UNL A   1      30.739 -30.372 -30.556  0.00  0.00    -0.026 C 
ATOM     15  C   UNL A   1      29.408 -30.812 -29.959  0.00  0.00    +0.061 C 
ATOM     16  C   UNL A   1      29.078 -32.318 -30.186  0.00  0.00    -0.006 C 
ATOM     17  C   UNL A   1      27.880 -32.670 -29.254  0.00  0.00    -0.057 C 
ATOM     18  C   UNL A   1      28.581 -32.580 -31.622  0.00  0.00    -0.057 C 
ATOM     19  C   UNL A   1      30.328 -33.183 -29.769  0.00  0.00    -0.028 C 
ATOM     20  C   UNL A   1      30.138 -34.699 -29.910  0.00  0.00    -0.049 C 
ATOM     21  C   UNL A   1      31.120 -35.443 -29.012  0.00  0.00    -0.047 C 
ATOM     22  C   UNL A   1      32.640 -35.106 -29.177  0.00  0.00    -0.023 C 
ATOM     23  C   UNL A   1      33.191 -35.215 -27.714  0.00  0.00    -0.059 C 
ATOM     24  C   UNL A   1      33.419 -36.195 -30.123  0.00  0.00    -0.021 C 
ATOM     25  C   UNL A   1      32.614 -36.415 -31.443  0.00  0.00    -0.059 C 
ATOM     26  C   UNL A   1      33.479 -37.629 -29.507  0.00  0.00    -0.020 C 
ATOM     27  C   UNL A   1      34.586 -37.918 -28.502  0.00  0.00    +0.061 C 
ENDROOT
BRANCH   1  29
ATOM     28  C   UNL A   1      37.843 -33.860 -31.191  0.00  0.00    -0.092 C 
ATOM     29  C   UNL A   1      37.946 -35.191 -31.359  0.00  0.00    -0.012 C 
BRANCH  29  30
ATOM     30  C   UNL A   1      38.592 -35.664 -32.621  0.00  0.00    +0.146 C 
ATOM     31  O   UNL A   1      39.698 -35.297 -33.000  0.00  0.00    -0.296 OA
ENDBRANCH  29  30
ENDBRANCH   1  29
BRANCH  15  32
ATOM     32  O   UNL A   1      28.402 -29.959 -30.504  0.00  0.00    -0.391 OA
ATOM     33  H   UNL A   1      28.467 -29.959 -31.472  0.00  0.00    +0.000 HD
ENDBRANCH  15  32
BRANCH  27  34
ATOM     34  O   UNL A   1      34.573 -39.324 -28.222  0.00  0.00    -0.391 OA
ATOM     35  H   UNL A   1      34.518 -39.462 -27.264  0.00  0.00    +0.000 HD
ENDBRANCH  27  34
TORSDOF 4
ENDMDL
MODEL 2
REMARK VINA RESULT:    -7.912      1.500      4.183
REMARK INTER + INTRA:          -9.222
REMARK INTER:                  -8.708
REMARK INTRA:                  -0.514
REMARK UNBOUND:                 0.078
REMARK  Name = cpd277.pdb
REMARK  10 active torsions:
REMARK  status: ('A' for Active; 'I' for Inactive)
REMARK    1  A    between atoms: C_2  and  C_3
REMARK    2  A    between atoms: C_2  and  C_5
REMARK    3  A    between atoms: C_8  and  C_9
REMARK    4  A    between atoms: C_15  and  C_16
REMARK    5  A    between atoms: C_19  and  O_20
REMARK    6  A    between atoms: C_21  and  C_22
REMARK    7  A    between atoms: C_21  and  C_23
REMARK    8  A    between atoms: C_27  and  C_28
REMARK    9  A    between atoms: C_29  and  C_30
REMARK   10  A    between atoms: C_32  and  O_33
REMARK                            x       y       z     vdW  Elec       q    Type
REMARK                         _______ _______ _______ _____ _____    ______ ____
ROOT
ATOM      1  C   UNL A   1      35.078 -38.011 -27.962  0.00  0.00    -0.010 C 
ATOM      2  C   UNL A   1      36.574 -37.671 -27.783  0.00  0.00    -0.045 C 
ATOM      3  C   UNL A   1      36.975 -36.845 -29.000  0.00  0.00    -0.044 C 
ATOM      4  C   UNL A   1      35.860 -37.062 -30.042  0.00  0.00    -0.002 C 
ATOM      5  C   UNL A   1      36.114 -38.414 -30.769  0.00  0.00    -0.057 C 
ATOM      6  C   UNL A   1      34.568 -37.120 -29.166  0.00  0.00    -0.023 C 
ATOM      7  C   UNL A   1      33.994 -35.717 -28.771  0.00  0.00    -0.031 C 
ATOM      8  C   UNL A   1      32.608 -35.807 -28.107  0.00  0.00    -0.049 C 
ATOM      9  C   UNL A   1      31.447 -35.993 -29.064  0.00  0.00    -0.049 C 
ATOM     10  C   UNL A   1      31.285 -34.892 -30.123  0.00  0.00    -0.029 C 
ATOM     11  C   UNL A   1      30.257 -33.713 -29.760  0.00  0.00    -0.025 C 
ATOM     12  C   UNL A   1      30.559 -33.058 -28.398  0.00  0.00    -0.059 C 
ATOM     13  C   UNL A   1      28.819 -34.322 -29.648  0.00  0.00    -0.045 C 
ATOM     14  C   UNL A   1      27.703 -33.283 -29.573  0.00  0.00    -0.026 C 
ATOM     15  C   UNL A   1      27.728 -32.315 -30.750  0.00  0.00    +0.061 C 
ATOM     16  C   UNL A   1      29.102 -31.611 -30.963  0.00  0.00    -0.006 C 
ATOM     17  C   UNL A   1      29.056 -30.931 -32.363  0.00  0.00    -0.057 C 
ATOM     18  C   UNL A   1      29.318 -30.469 -29.950  0.00  0.00    -0.057 C 
ATOM     19  C   UNL A   1      30.241 -32.702 -30.957  0.00  0.00    -0.028 C 
ATOM     20  C   UNL A   1      31.656 -32.157 -31.188  0.00  0.00    -0.049 C 
ATOM     21  C   UNL A   1      32.573 -33.261 -31.699  0.00  0.00    -0.047 C 
ATOM     22  C   UNL A   1      32.669 -34.569 -30.843  0.00  0.00    -0.023 C 
ATOM     23  C   UNL A   1      32.822 -35.693 -31.924  0.00  0.00    -0.059 C 
ATOM     24  C   UNL A   1      33.988 -34.581 -29.871  0.00  0.00    -0.021 C 
ATOM     25  C   UNL A   1      34.073 -33.234 -29.085  0.00  0.00    -0.059 C 
ATOM     26  C   UNL A   1      35.340 -34.616 -30.652  0.00  0.00    -0.020 C 
ATOM     27  C   UNL A   1      35.847 -35.972 -31.122  0.00  0.00    +0.061 C 
ENDROOT
BRANCH   1  29
ATOM     28  C   UNL A   1      34.584 -37.357 -25.595  0.00  0.00    -0.092 C 
ATOM     29  C   UNL A   1      34.321 -38.134 -26.662  0.00  0.00    -0.012 C 
BRANCH  29  30
ATOM     30  C   UNL A   1      33.194 -39.105 -26.529  0.00  0.00    +0.146 C 
ATOM     31  O   UNL A   1      32.248 -39.164 -27.306  0.00  0.00    -0.296 OA
ENDBRANCH  29  30
ENDBRANCH   1  29
BRANCH  15  32
ATOM     32  O   UNL A   1      26.676 -31.374 -30.541  0.00  0.00    -0.391 OA
ATOM     33  H   UNL A   1      25.820 -31.821 -30.629  0.00  0.00    +0.000 HD
ENDBRANCH  15  32
BRANCH  27  34
ATOM     34  O   UNL A   1      37.176 -35.796 -31.631  0.00  0.00    -0.391 OA
ATOM     35  H   UNL A   1      37.478 -36.622 -32.039  0.00  0.00    +0.000 HD
ENDBRANCH  27  34
TORSDOF 4
ENDMDL
MODEL 3
REMARK VINA RESULT:    -7.903      3.407      6.291
REMARK INTER + INTRA:          -9.211
REMARK INTER:                  -8.832
REMARK INTRA:                  -0.378
REMARK UNBOUND:                 0.078
REMARK  Name = cpd277.pdb
REMARK  10 active torsions:
REMARK  status: ('A' for Active; 'I' for Inactive)
REMARK    1  A    between atoms: C_2  and  C_3
REMARK    2  A    between atoms: C_2  and  C_5
REMARK    3  A    between atoms: C_8  and  C_9
REMARK    4  A    between atoms: C_15  and  C_16
REMARK    5  A    between atoms: C_19  and  O_20
REMARK    6  A    between atoms: C_21  and  C_22
REMARK    7  A    between atoms: C_21  and  C_23
REMARK    8  A    between atoms: C_27  and  C_28
REMARK    9  A    between atoms: C_29  and  C_30
REMARK   10  A    between atoms: C_32  and  O_33
REMARK                            x       y       z     vdW  Elec       q    Type
REMARK                         _______ _______ _______ _____ _____    ______ ____
ROOT
ATOM      1  C   UNL A   1      33.322 -41.827 -26.293  0.00  0.00    -0.010 C 
ATOM      2  C   UNL A   1      31.910 -42.381 -26.003  0.00  0.00    -0.045 C 
ATOM      3  C   UNL A   1      31.090 -41.211 -25.473  0.00  0.00    -0.044 C 
ATOM      4  C   UNL A   1      32.110 -40.126 -25.076  0.00  0.00    -0.002 C 
ATOM      5  C   UNL A   1      32.684 -40.471 -23.672  0.00  0.00    -0.057 C 
ATOM      6  C   UNL A   1      33.204 -40.252 -26.184  0.00  0.00    -0.023 C 
ATOM      7  C   UNL A   1      32.858 -39.509 -27.519  0.00  0.00    -0.031 C 
ATOM      8  C   UNL A   1      34.043 -39.461 -28.500  0.00  0.00    -0.049 C 
ATOM      9  C   UNL A   1      35.085 -38.401 -28.200  0.00  0.00    -0.049 C 
ATOM     10  C   UNL A   1      34.563 -36.957 -28.172  0.00  0.00    -0.029 C 
ATOM     11  C   UNL A   1      34.716 -36.129 -29.539  0.00  0.00    -0.025 C 
ATOM     12  C   UNL A   1      34.104 -36.860 -30.751  0.00  0.00    -0.059 C 
ATOM     13  C   UNL A   1      36.241 -35.958 -29.851  0.00  0.00    -0.045 C 
ATOM     14  C   UNL A   1      36.543 -34.965 -30.972  0.00  0.00    -0.026 C 
ATOM     15  C   UNL A   1      35.946 -33.588 -30.707  0.00  0.00    +0.061 C 
ATOM     16  C   UNL A   1      34.417 -33.607 -30.406  0.00  0.00    -0.006 C 
ATOM     17  C   UNL A   1      34.043 -32.203 -29.847  0.00  0.00    -0.057 C 
ATOM     18  C   UNL A   1      33.587 -33.779 -31.695  0.00  0.00    -0.057 C 
ATOM     19  C   UNL A   1      34.127 -34.696 -29.303  0.00  0.00    -0.028 C 
ATOM     20  C   UNL A   1      32.657 -34.808 -28.880  0.00  0.00    -0.049 C 
ATOM     21  C   UNL A   1      32.549 -35.443 -27.498  0.00  0.00    -0.047 C 
ATOM     22  C   UNL A   1      33.243 -36.831 -27.290  0.00  0.00    -0.023 C 
ATOM     23  C   UNL A   1      33.762 -36.753 -25.813  0.00  0.00    -0.059 C 
ATOM     24  C   UNL A   1      32.188 -38.079 -27.419  0.00  0.00    -0.021 C 
ATOM     25  C   UNL A   1      31.343 -37.919 -28.723  0.00  0.00    -0.059 C 
ATOM     26  C   UNL A   1      31.101 -38.098 -26.298  0.00  0.00    -0.020 C 
ATOM     27  C   UNL A   1      31.474 -38.734 -24.966  0.00  0.00    +0.061 C 
ENDROOT
BRANCH   1  29
ATOM     28  C   UNL A   1      33.362 -43.233 -28.365  0.00  0.00    -0.092 C 
ATOM     29  C   UNL A   1      34.022 -42.513 -27.440  0.00  0.00    -0.012 C 
BRANCH  29  30
ATOM     30  C   UNL A   1      35.498 -42.371 -27.622  0.00  0.00    +0.146 C 
ATOM     31  O   UNL A   1      36.321 -42.624 -26.750  0.00  0.00    -0.296 OA
ENDBRANCH  29  30
ENDBRANCH   1  29
BRANCH  15  32
ATOM     32  O   UNL A   1      36.255 -32.773 -31.837  0.00  0.00    -0.391 OA
ATOM     33  H   UNL A   1      35.485 -32.731 -32.426  0.00  0.00    +0.000 HD
ENDBRANCH  15  32
BRANCH  27  34
ATOM     34  O   UNL A   1      30.286 -38.819 -24.168  0.00  0.00    -0.391 OA
ATOM     35  H   UNL A   1      29.762 -39.585 -24.450  0.00  0.00    +0.000 HD
ENDBRANCH  27  34
TORSDOF 4
ENDMDL
MODEL 4
REMARK VINA RESULT:    -7.799      2.850      4.901
REMARK INTER + INTRA:          -9.088
REMARK INTER:                  -8.575
REMARK INTRA:                  -0.513
REMARK UNBOUND:                 0.078
REMARK  Name = cpd277.pdb
REMARK  10 active torsions:
REMARK  status: ('A' for Active; 'I' for Inactive)
REMARK    1  A    between atoms: C_2  and  C_3
REMARK    2  A    between atoms: C_2  and  C_5
REMARK    3  A    between atoms: C_8  and  C_9
REMARK    4  A    between atoms: C_15  and  C_16
REMARK    5  A    between atoms: C_19  and  O_20
REMARK    6  A    between atoms: C_21  and  C_22
REMARK    7  A    between atoms: C_21  and  C_23
REMARK    8  A    between atoms: C_27  and  C_28
REMARK    9  A    between atoms: C_29  and  C_30
REMARK   10  A    between atoms: C_32  and  O_33
REMARK                            x       y       z     vdW  Elec       q    Type
REMARK                         _______ _______ _______ _____ _____    ______ ____
ROOT
ATOM      1  C   UNL A   1      34.473 -41.183 -27.428  0.00  0.00    -0.010 C 
ATOM      2  C   UNL A   1      33.290 -42.152 -27.218  0.00  0.00    -0.045 C 
ATOM      3  C   UNL A   1      32.175 -41.334 -26.575  0.00  0.00    -0.044 C 
ATOM      4  C   UNL A   1      32.844 -40.049 -26.049  0.00  0.00    -0.002 C 
ATOM      5  C   UNL A   1      33.520 -40.361 -24.684  0.00  0.00    -0.057 C 
ATOM      6  C   UNL A   1      33.905 -39.732 -27.151  0.00  0.00    -0.023 C 
ATOM      7  C   UNL A   1      33.333 -38.982 -28.402  0.00  0.00    -0.031 C 
ATOM      8  C   UNL A   1      34.434 -38.487 -29.356  0.00  0.00    -0.049 C 
ATOM      9  C   UNL A   1      35.128 -37.208 -28.930  0.00  0.00    -0.049 C 
ATOM     10  C   UNL A   1      34.210 -35.989 -28.753  0.00  0.00    -0.029 C 
ATOM     11  C   UNL A   1      34.089 -35.012 -30.020  0.00  0.00    -0.025 C 
ATOM     12  C   UNL A   1      33.693 -35.754 -31.311  0.00  0.00    -0.059 C 
ATOM     13  C   UNL A   1      35.492 -34.372 -30.292  0.00  0.00    -0.045 C 
ATOM     14  C   UNL A   1      35.472 -33.220 -31.294  0.00  0.00    -0.026 C 
ATOM     15  C   UNL A   1      34.505 -32.113 -30.890  0.00  0.00    +0.061 C 
ATOM     16  C   UNL A   1      33.054 -32.608 -30.613  0.00  0.00    -0.006 C 
ATOM     17  C   UNL A   1      32.298 -31.442 -29.909  0.00  0.00    -0.057 C 
ATOM     18  C   UNL A   1      32.285 -32.874 -31.923  0.00  0.00    -0.057 C 
ATOM     19  C   UNL A   1      33.114 -33.846 -29.638  0.00  0.00    -0.028 C 
ATOM     20  C   UNL A   1      31.748 -34.425 -29.248  0.00  0.00    -0.049 C 
ATOM     21  C   UNL A   1      31.856 -35.208 -27.945  0.00  0.00    -0.047 C 
ATOM     22  C   UNL A   1      32.927 -36.349 -27.879  0.00  0.00    -0.023 C 
ATOM     23  C   UNL A   1      33.429 -36.283 -26.396  0.00  0.00    -0.059 C 
ATOM     24  C   UNL A   1      32.279 -37.828 -28.156  0.00  0.00    -0.021 C 
ATOM     25  C   UNL A   1      31.399 -37.782 -29.446  0.00  0.00    -0.059 C 
ATOM     26  C   UNL A   1      31.266 -38.283 -27.058  0.00  0.00    -0.020 C 
ATOM     27  C   UNL A   1      31.833 -38.923 -25.798  0.00  0.00    +0.061 C 
ENDROOT
BRANCH   1  29
ATOM     28  C   UNL A   1      34.799 -41.979 -29.780  0.00  0.00    -0.092 C 
ATOM     29  C   UNL A   1      35.321 -41.509 -28.633  0.00  0.00    -0.012 C 
BRANCH  29  30
ATOM     30  C   UNL A   1      36.795 -41.264 -28.613  0.00  0.00    +0.146 C 
ATOM     31  O   UNL A   1      37.306 -40.199 -28.287  0.00  0.00    -0.296 OA
ENDBRANCH  29  30
ENDBRANCH   1  29
BRANCH  15  32
ATOM     32  O   UNL A   1      34.542 -31.127 -31.921  0.00  0.00    -0.391 OA
ATOM     33  H   UNL A   1      34.186 -30.291 -31.582  0.00  0.00    +0.000 HD
ENDBRANCH  15  32
BRANCH  27  34
ATOM     34  O   UNL A   1      30.736 -39.435 -25.030  0.00  0.00    -0.391 OA
ATOM     35  H   UNL A   1      29.973 -38.844 -25.123  0.00  0.00    +0.000 HD
ENDBRANCH  27  34
TORSDOF 4
ENDMDL
MODEL 5
REMARK VINA RESULT:    -7.747     15.735     19.399
REMARK INTER + INTRA:          -9.027
REMARK INTER:                  -8.472
REMARK INTRA:                  -0.555
REMARK UNBOUND:                 0.078
REMARK  Name = cpd277.pdb
REMARK  10 active torsions:
REMARK  status: ('A' for Active; 'I' for Inactive)
REMARK    1  A    between atoms: C_2  and  C_3
REMARK    2  A    between atoms: C_2  and  C_5
REMARK    3  A    between atoms: C_8  and  C_9
REMARK    4  A    between atoms: C_15  and  C_16
REMARK    5  A    between atoms: C_19  and  O_20
REMARK    6  A    between atoms: C_21  and  C_22
REMARK    7  A    between atoms: C_21  and  C_23
REMARK    8  A    between atoms: C_27  and  C_28
REMARK    9  A    between atoms: C_29  and  C_30
REMARK   10  A    between atoms: C_32  and  O_33
REMARK                            x       y       z     vdW  Elec       q    Type
REMARK                         _______ _______ _______ _____ _____    ______ ____
ROOT
ATOM      1  C   UNL A   1      38.932 -21.204 -33.492  0.00  0.00    -0.010 C 
ATOM      2  C   UNL A   1      37.411 -21.123 -33.749  0.00  0.00    -0.045 C 
ATOM      3  C   UNL A   1      37.175 -19.827 -34.516  0.00  0.00    -0.044 C 
ATOM      4  C   UNL A   1      38.456 -18.990 -34.336  0.00  0.00    -0.002 C 
ATOM      5  C   UNL A   1      38.399 -18.282 -32.952  0.00  0.00    -0.057 C 
ATOM      6  C   UNL A   1      39.587 -20.067 -34.377  0.00  0.00    -0.023 C 
ATOM      7  C   UNL A   1      40.013 -20.500 -35.821  0.00  0.00    -0.031 C 
ATOM      8  C   UNL A   1      41.272 -21.385 -35.831  0.00  0.00    -0.049 C 
ATOM      9  C   UNL A   1      42.584 -20.638 -35.687  0.00  0.00    -0.049 C 
ATOM     10  C   UNL A   1      42.861 -19.580 -36.766  0.00  0.00    -0.029 C 
ATOM     11  C   UNL A   1      43.750 -20.064 -38.011  0.00  0.00    -0.025 C 
ATOM     12  C   UNL A   1      43.193 -21.333 -38.686  0.00  0.00    -0.059 C 
ATOM     13  C   UNL A   1      45.180 -20.432 -37.490  0.00  0.00    -0.045 C 
ATOM     14  C   UNL A   1      46.212 -20.650 -38.594  0.00  0.00    -0.026 C 
ATOM     15  C   UNL A   1      46.331 -19.450 -39.526  0.00  0.00    +0.061 C 
ATOM     16  C   UNL A   1      44.976 -18.989 -40.143  0.00  0.00    -0.006 C 
ATOM     17  C   UNL A   1      45.218 -17.591 -40.786  0.00  0.00    -0.057 C 
ATOM     18  C   UNL A   1      44.535 -19.910 -41.299  0.00  0.00    -0.057 C 
ATOM     19  C   UNL A   1      43.912 -18.849 -38.988  0.00  0.00    -0.028 C 
ATOM     20  C   UNL A   1      42.528 -18.369 -39.444  0.00  0.00    -0.049 C 
ATOM     21  C   UNL A   1      41.767 -17.755 -38.274  0.00  0.00    -0.047 C 
ATOM     22  C   UNL A   1      41.600 -18.632 -36.987  0.00  0.00    -0.023 C 
ATOM     23  C   UNL A   1      41.688 -17.582 -35.826  0.00  0.00    -0.059 C 
ATOM     24  C   UNL A   1      40.141 -19.374 -36.925  0.00  0.00    -0.021 C 
ATOM     25  C   UNL A   1      39.856 -20.086 -38.286  0.00  0.00    -0.059 C 
ATOM     26  C   UNL A   1      38.940 -18.384 -36.790  0.00  0.00    -0.020 C 
ATOM     27  C   UNL A   1      38.591 -17.887 -35.394  0.00  0.00    +0.061 C 
ENDROOT
BRANCH   1  29
ATOM     28  C   UNL A   1      40.562 -22.952 -32.744  0.00  0.00    -0.092 C 
ATOM     29  C   UNL A   1      39.468 -22.614 -33.450  0.00  0.00    -0.012 C 
BRANCH  29  30
ATOM     30  C   UNL A   1      38.756 -23.718 -34.162  0.00  0.00    +0.146 C 
ATOM     31  O   UNL A   1      38.786 -23.878 -35.377  0.00  0.00    -0.296 OA
ENDBRANCH  29  30
ENDBRANCH   1  29
BRANCH  15  32
ATOM     32  O   UNL A   1      47.283 -19.794 -40.533  0.00  0.00    -0.391 OA
ATOM     33  H   UNL A   1      47.789 -20.571 -40.248  0.00  0.00    +0.000 HD
ENDBRANCH  15  32
BRANCH  27  34
ATOM     34  O   UNL A   1      37.357 -17.161 -35.479  0.00  0.00    -0.391 OA
ATOM     35  H   UNL A   1      37.439 -16.463 -36.147  0.00  0.00    +0.000 HD
ENDBRANCH  27  34
TORSDOF 4
ENDMDL
MODEL 6
REMARK VINA RESULT:    -7.711     17.215     20.299
REMARK INTER + INTRA:          -8.984
REMARK INTER:                  -8.432
REMARK INTRA:                  -0.552
REMARK UNBOUND:                 0.078
REMARK  Name = cpd277.pdb
REMARK  10 active torsions:
REMARK  status: ('A' for Active; 'I' for Inactive)
REMARK    1  A    between atoms: C_2  and  C_3
REMARK    2  A    between atoms: C_2  and  C_5
REMARK    3  A    between atoms: C_8  and  C_9
REMARK    4  A    between atoms: C_15  and  C_16
REMARK    5  A    between atoms: C_19  and  O_20
REMARK    6  A    between atoms: C_21  and  C_22
REMARK    7  A    between atoms: C_21  and  C_23
REMARK    8  A    between atoms: C_27  and  C_28
REMARK    9  A    between atoms: C_29  and  C_30
REMARK   10  A    between atoms: C_32  and  O_33
REMARK                            x       y       z     vdW  Elec       q    Type
REMARK                         _______ _______ _______ _____ _____    ______ ____
ROOT
ATOM      1  C   UNL A   1      45.523 -18.896 -41.452  0.00  0.00    -0.010 C 
ATOM      2  C   UNL A   1      47.024 -18.613 -41.228  0.00  0.00    -0.045 C 
ATOM      3  C   UNL A   1      47.112 -17.701 -40.010  0.00  0.00    -0.044 C 
ATOM      4  C   UNL A   1      45.692 -17.141 -39.798  0.00  0.00    -0.002 C 
ATOM      5  C   UNL A   1      45.474 -15.953 -40.779  0.00  0.00    -0.057 C 
ATOM      6  C   UNL A   1      44.779 -18.355 -40.164  0.00  0.00    -0.023 C 
ATOM      7  C   UNL A   1      44.595 -19.395 -39.006  0.00  0.00    -0.031 C 
ATOM      8  C   UNL A   1      43.519 -20.450 -39.317  0.00  0.00    -0.049 C 
ATOM      9  C   UNL A   1      42.089 -19.992 -39.109  0.00  0.00    -0.049 C 
ATOM     10  C   UNL A   1      41.750 -19.519 -37.687  0.00  0.00    -0.029 C 
ATOM     11  C   UNL A   1      41.100 -20.621 -36.718  0.00  0.00    -0.025 C 
ATOM     12  C   UNL A   1      41.941 -21.910 -36.631  0.00  0.00    -0.059 C 
ATOM     13  C   UNL A   1      39.709 -21.041 -37.301  0.00  0.00    -0.045 C 
ATOM     14  C   UNL A   1      38.858 -21.879 -36.350  0.00  0.00    -0.026 C 
ATOM     15  C   UNL A   1      38.632 -21.190 -35.010  0.00  0.00    +0.061 C 
ATOM     16  C   UNL A   1      39.944 -20.740 -34.299  0.00  0.00    -0.006 C 
ATOM     17  C   UNL A   1      39.533 -19.785 -33.139  0.00  0.00    -0.057 C 
ATOM     18  C   UNL A   1      40.663 -21.928 -33.628  0.00  0.00    -0.057 C 
ATOM     19  C   UNL A   1      40.836 -19.946 -35.329  0.00  0.00    -0.028 C 
ATOM     20  C   UNL A   1      42.155 -19.410 -34.759  0.00  0.00    -0.049 C 
ATOM     21  C   UNL A   1      42.665 -18.247 -35.602  0.00  0.00    -0.047 C 
ATOM     22  C   UNL A   1      42.842 -18.497 -37.138  0.00  0.00    -0.023 C 
ATOM     23  C   UNL A   1      42.445 -17.120 -37.772  0.00  0.00    -0.059 C 
ATOM     24  C   UNL A   1      44.393 -18.841 -37.538  0.00  0.00    -0.021 C 
ATOM     25  C   UNL A   1      44.945 -19.953 -36.590  0.00  0.00    -0.059 C 
ATOM     26  C   UNL A   1      45.379 -17.654 -37.296  0.00  0.00    -0.020 C 
ATOM     27  C   UNL A   1      45.483 -16.592 -38.381  0.00  0.00    +0.061 C 
ENDROOT
BRANCH   1  29
ATOM     28  C   UNL A   1      44.200 -20.485 -42.864  0.00  0.00    -0.092 C 
ATOM     29  C   UNL A   1      45.241 -20.255 -42.044  0.00  0.00    -0.012 C 
BRANCH  29  30
ATOM     30  C   UNL A   1      46.158 -21.404 -41.779  0.00  0.00    +0.146 C 
ATOM     31  O   UNL A   1      45.976 -22.232 -40.894  0.00  0.00    -0.296 OA
ENDBRANCH  29  30
ENDBRANCH   1  29
BRANCH  15  32
ATOM     32  O   UNL A   1      37.870 -22.086 -34.201  0.00  0.00    -0.391 OA
ATOM     33  H   UNL A   1      37.296 -21.577 -33.608  0.00  0.00    +0.000 HD
ENDBRANCH  15  32
BRANCH  27  34
ATOM     34  O   UNL A   1      46.571 -15.721 -38.046  0.00  0.00    -0.391 OA
ATOM     35  H   UNL A   1      46.374 -15.264 -37.214  0.00  0.00    +0.000 HD
ENDBRANCH  27  34
TORSDOF 4
ENDMDL
MODEL 7
REMARK VINA RESULT:    -7.667      2.046      8.069
REMARK INTER + INTRA:          -8.933
REMARK INTER:                  -8.395
REMARK INTRA:                  -0.538
REMARK UNBOUND:                 0.078
REMARK  Name = cpd277.pdb
REMARK  10 active torsions:
REMARK  status: ('A' for Active; 'I' for Inactive)
REMARK    1  A    between atoms: C_2  and  C_3
REMARK    2  A    between atoms: C_2  and  C_5
REMARK    3  A    between atoms: C_8  and  C_9
REMARK    4  A    between atoms: C_15  and  C_16
REMARK    5  A    between atoms: C_19  and  O_20
REMARK    6  A    between atoms: C_21  and  C_22
REMARK    7  A    between atoms: C_21  and  C_23
REMARK    8  A    between atoms: C_27  and  C_28
REMARK    9  A    between atoms: C_29  and  C_30
REMARK   10  A    between atoms: C_32  and  O_33
REMARK                            x       y       z     vdW  Elec       q    Type
REMARK                         _______ _______ _______ _____ _____    ______ ____
ROOT
ATOM      1  C   UNL A   1      28.505 -32.934 -31.479  0.00  0.00    -0.010 C 
ATOM      2  C   UNL A   1      28.610 -31.610 -32.267  0.00  0.00    -0.045 C 
ATOM      3  C   UNL A   1      29.799 -30.856 -31.684  0.00  0.00    -0.044 C 
ATOM      4  C   UNL A   1      30.104 -31.531 -30.332  0.00  0.00    -0.002 C 
ATOM      5  C   UNL A   1      29.118 -30.976 -29.264  0.00  0.00    -0.057 C 
ATOM      6  C   UNL A   1      29.833 -33.041 -30.626  0.00  0.00    -0.023 C 
ATOM      7  C   UNL A   1      31.023 -33.786 -31.322  0.00  0.00    -0.031 C 
ATOM      8  C   UNL A   1      30.814 -35.310 -31.390  0.00  0.00    -0.049 C 
ATOM      9  C   UNL A   1      31.119 -36.059 -30.108  0.00  0.00    -0.049 C 
ATOM     10  C   UNL A   1      32.553 -35.900 -29.579  0.00  0.00    -0.029 C 
ATOM     11  C   UNL A   1      33.590 -37.047 -30.007  0.00  0.00    -0.025 C 
ATOM     12  C   UNL A   1      33.641 -37.266 -31.532  0.00  0.00    -0.059 C 
ATOM     13  C   UNL A   1      33.121 -38.404 -29.381  0.00  0.00    -0.045 C 
ATOM     14  C   UNL A   1      34.150 -39.527 -29.479  0.00  0.00    -0.026 C 
ATOM     15  C   UNL A   1      35.489 -39.146 -28.859  0.00  0.00    +0.061 C 
ATOM     16  C   UNL A   1      36.090 -37.820 -29.414  0.00  0.00    -0.006 C 
ATOM     17  C   UNL A   1      37.258 -37.414 -28.466  0.00  0.00    -0.057 C 
ATOM     18  C   UNL A   1      36.730 -38.023 -30.802  0.00  0.00    -0.057 C 
ATOM     19  C   UNL A   1      34.981 -36.701 -29.373  0.00  0.00    -0.028 C 
ATOM     20  C   UNL A   1      35.440 -35.321 -29.864  0.00  0.00    -0.049 C 
ATOM     21  C   UNL A   1      34.537 -34.230 -29.301  0.00  0.00    -0.047 C 
ATOM     22  C   UNL A   1      32.997 -34.370 -29.553  0.00  0.00    -0.023 C 
ATOM     23  C   UNL A   1      32.366 -33.799 -28.237  0.00  0.00    -0.059 C 
ATOM     24  C   UNL A   1      32.490 -33.468 -30.823  0.00  0.00    -0.021 C 
ATOM     25  C   UNL A   1      33.417 -33.727 -32.054  0.00  0.00    -0.059 C 
ATOM     26  C   UNL A   1      32.633 -31.930 -30.595  0.00  0.00    -0.020 C 
ATOM     27  C   UNL A   1      31.521 -31.225 -29.831  0.00  0.00    +0.061 C 
ENDROOT
BRANCH   1  29
ATOM     28  C   UNL A   1      28.133 -34.177 -33.621  0.00  0.00    -0.092 C 
ATOM     29  C   UNL A   1      27.963 -34.085 -32.290  0.00  0.00    -0.012 C 
BRANCH  29  30
ATOM     30  C   UNL A   1      27.249 -35.215 -31.621  0.00  0.00    +0.146 C 
ATOM     31  O   UNL A   1      27.327 -35.457 -30.422  0.00  0.00    -0.296 OA
ENDBRANCH  29  30
ENDBRANCH   1  29
BRANCH  15  32
ATOM     32  O   UNL A   1      36.371 -40.251 -29.054  0.00  0.00    -0.391 OA
ATOM     33  H   UNL A   1      36.125 -40.972 -28.453  0.00  0.00    +0.000 HD
ENDBRANCH  15  32
BRANCH  27  34
ATOM     34  O   UNL A   1      31.756 -29.813 -29.910  0.00  0.00    -0.391 OA
ATOM     35  H   UNL A   1      31.832 -29.447 -29.015  0.00  0.00    +0.000 HD
ENDBRANCH  27  34
TORSDOF 4
ENDMDL
MODEL 8
REMARK VINA RESULT:    -7.655     17.954     21.098
REMARK INTER + INTRA:          -8.919
REMARK INTER:                  -8.363
REMARK INTRA:                  -0.557
REMARK UNBOUND:                 0.078
REMARK  Name = cpd277.pdb
REMARK  10 active torsions:
REMARK  status: ('A' for Active; 'I' for Inactive)
REMARK    1  A    between atoms: C_2  and  C_3
REMARK    2  A    between atoms: C_2  and  C_5
REMARK    3  A    between atoms: C_8  and  C_9
REMARK    4  A    between atoms: C_15  and  C_16
REMARK    5  A    between atoms: C_19  and  O_20
REMARK    6  A    between atoms: C_21  and  C_22
REMARK    7  A    between atoms: C_21  and  C_23
REMARK    8  A    between atoms: C_27  and  C_28
REMARK    9  A    between atoms: C_29  and  C_30
REMARK   10  A    between atoms: C_32  and  O_33
REMARK                            x       y       z     vdW  Elec       q    Type
REMARK                         _______ _______ _______ _____ _____    ______ ____
ROOT
ATOM      1  C   UNL A   1      42.209 -16.680 -33.979  0.00  0.00    -0.010 C 
ATOM      2  C   UNL A   1      41.376 -17.423 -32.912  0.00  0.00    -0.045 C 
ATOM      3  C   UNL A   1      40.448 -18.364 -33.671  0.00  0.00    -0.044 C 
ATOM      4  C   UNL A   1      40.451 -17.873 -35.132  0.00  0.00    -0.002 C 
ATOM      5  C   UNL A   1      39.473 -16.670 -35.256  0.00  0.00    -0.057 C 
ATOM      6  C   UNL A   1      41.933 -17.427 -35.347  0.00  0.00    -0.023 C 
ATOM      7  C   UNL A   1      42.917 -18.598 -35.686  0.00  0.00    -0.031 C 
ATOM      8  C   UNL A   1      44.310 -18.102 -36.112  0.00  0.00    -0.049 C 
ATOM      9  C   UNL A   1      44.412 -17.624 -37.547  0.00  0.00    -0.049 C 
ATOM     10  C   UNL A   1      44.042 -18.666 -38.614  0.00  0.00    -0.029 C 
ATOM     11  C   UNL A   1      45.267 -19.495 -39.239  0.00  0.00    -0.025 C 
ATOM     12  C   UNL A   1      46.142 -20.169 -38.164  0.00  0.00    -0.059 C 
ATOM     13  C   UNL A   1      46.200 -18.502 -40.010  0.00  0.00    -0.045 C 
ATOM     14  C   UNL A   1      47.255 -19.182 -40.880  0.00  0.00    -0.026 C 
ATOM     15  C   UNL A   1      46.646 -20.152 -41.885  0.00  0.00    +0.061 C 
ATOM     16  C   UNL A   1      45.709 -21.221 -41.246  0.00  0.00    -0.006 C 
ATOM     17  C   UNL A   1      44.930 -21.902 -42.411  0.00  0.00    -0.057 C 
ATOM     18  C   UNL A   1      46.512 -22.347 -40.566  0.00  0.00    -0.057 C 
ATOM     19  C   UNL A   1      44.682 -20.496 -40.294  0.00  0.00    -0.028 C 
ATOM     20  C   UNL A   1      43.668 -21.425 -39.614  0.00  0.00    -0.049 C 
ATOM     21  C   UNL A   1      42.435 -20.640 -39.182  0.00  0.00    -0.047 C 
ATOM     22  C   UNL A   1      42.664 -19.387 -38.271  0.00  0.00    -0.023 C 
ATOM     23  C   UNL A   1      41.563 -18.384 -38.758  0.00  0.00    -0.059 C 
ATOM     24  C   UNL A   1      42.419 -19.719 -36.685  0.00  0.00    -0.021 C 
ATOM     25  C   UNL A   1      43.203 -21.011 -36.291  0.00  0.00    -0.059 C 
ATOM     26  C   UNL A   1      40.940 -20.090 -36.344  0.00  0.00    -0.020 C 
ATOM     27  C   UNL A   1      39.963 -18.946 -36.113  0.00  0.00    +0.061 C 
ENDROOT
BRANCH   1  29
ATOM     28  C   UNL A   1      44.243 -15.220 -33.967  0.00  0.00    -0.092 C 
ATOM     29  C   UNL A   1      43.598 -16.311 -33.518  0.00  0.00    -0.012 C 
BRANCH  29  30
ATOM     30  C   UNL A   1      44.299 -17.134 -32.486  0.00  0.00    +0.146 C 
ATOM     31  O   UNL A   1      45.213 -17.910 -32.737  0.00  0.00    -0.296 OA
ENDBRANCH  29  30
ENDBRANCH   1  29
BRANCH  15  32
ATOM     32  O   UNL A   1      47.727 -20.751 -42.598  0.00  0.00    -0.391 OA
ATOM     33  H   UNL A   1      48.485 -20.863 -42.002  0.00  0.00    +0.000 HD
ENDBRANCH  15  32
BRANCH  27  34
ATOM     34  O   UNL A   1      38.735 -19.506 -35.628  0.00  0.00    -0.391 OA
ATOM     35  H   UNL A   1      38.921 -20.095 -34.881  0.00  0.00    +0.000 HD
ENDBRANCH  27  34
TORSDOF 4
ENDMDL
MODEL 9
REMARK VINA RESULT:    -7.599     17.181     20.105
REMARK INTER + INTRA:          -8.853
REMARK INTER:                  -8.412
REMARK INTRA:                  -0.442
REMARK UNBOUND:                 0.078
REMARK  Name = cpd277.pdb
REMARK  10 active torsions:
REMARK  status: ('A' for Active; 'I' for Inactive)
REMARK    1  A    between atoms: C_2  and  C_3
REMARK    2  A    between atoms: C_2  and  C_5
REMARK    3  A    between atoms: C_8  and  C_9
REMARK    4  A    between atoms: C_15  and  C_16
REMARK    5  A    between atoms: C_19  and  O_20
REMARK    6  A    between atoms: C_21  and  C_22
REMARK    7  A    between atoms: C_21  and  C_23
REMARK    8  A    between atoms: C_27  and  C_28
REMARK    9  A    between atoms: C_29  and  C_30
REMARK   10  A    between atoms: C_32  and  O_33
REMARK                            x       y       z     vdW  Elec       q    Type
REMARK                         _______ _______ _______ _____ _____    ______ ____
ROOT
ATOM      1  C   UNL A   1      43.774 -16.205 -40.177  0.00  0.00    -0.010 C 
ATOM      2  C   UNL A   1      43.780 -16.552 -41.682  0.00  0.00    -0.045 C 
ATOM      3  C   UNL A   1      44.095 -18.040 -41.778  0.00  0.00    -0.044 C 
ATOM      4  C   UNL A   1      44.666 -18.440 -40.403  0.00  0.00    -0.002 C 
ATOM      5  C   UNL A   1      46.168 -18.037 -40.350  0.00  0.00    -0.057 C 
ATOM      6  C   UNL A   1      43.813 -17.588 -39.409  0.00  0.00    -0.023 C 
ATOM      7  C   UNL A   1      42.415 -18.206 -39.065  0.00  0.00    -0.031 C 
ATOM      8  C   UNL A   1      41.701 -17.466 -37.919  0.00  0.00    -0.049 C 
ATOM      9  C   UNL A   1      42.182 -17.820 -36.526  0.00  0.00    -0.049 C 
ATOM     10  C   UNL A   1      42.061 -19.304 -36.146  0.00  0.00    -0.029 C 
ATOM     11  C   UNL A   1      40.733 -19.716 -35.344  0.00  0.00    -0.025 C 
ATOM     12  C   UNL A   1      39.442 -19.276 -36.060  0.00  0.00    -0.059 C 
ATOM     13  C   UNL A   1      40.740 -18.987 -33.958  0.00  0.00    -0.045 C 
ATOM     14  C   UNL A   1      39.681 -19.490 -32.980  0.00  0.00    -0.026 C 
ATOM     15  C   UNL A   1      39.777 -20.991 -32.737  0.00  0.00    +0.061 C 
ATOM     16  C   UNL A   1      39.754 -21.847 -34.039  0.00  0.00    -0.006 C 
ATOM     17  C   UNL A   1      40.184 -23.292 -33.646  0.00  0.00    -0.057 C 
ATOM     18  C   UNL A   1      38.326 -21.977 -34.608  0.00  0.00    -0.057 C 
ATOM     19  C   UNL A   1      40.802 -21.256 -35.058  0.00  0.00    -0.028 C 
ATOM     20  C   UNL A   1      40.913 -22.020 -36.383  0.00  0.00    -0.049 C 
ATOM     21  C   UNL A   1      42.259 -21.745 -37.043  0.00  0.00    -0.047 C 
ATOM     22  C   UNL A   1      42.646 -20.247 -37.289  0.00  0.00    -0.023 C 
ATOM     23  C   UNL A   1      44.195 -20.235 -37.055  0.00  0.00    -0.059 C 
ATOM     24  C   UNL A   1      42.334 -19.768 -38.825  0.00  0.00    -0.021 C 
ATOM     25  C   UNL A   1      40.879 -20.178 -39.218  0.00  0.00    -0.059 C 
ATOM     26  C   UNL A   1      43.205 -20.497 -39.897  0.00  0.00    -0.020 C 
ATOM     27  C   UNL A   1      44.602 -19.953 -40.159  0.00  0.00    +0.061 C 
ENDROOT
BRANCH   1  29
ATOM     28  C   UNL A   1      42.987 -14.323 -38.725  0.00  0.00    -0.092 C 
ATOM     29  C   UNL A   1      42.818 -15.097 -39.812  0.00  0.00    -0.012 C 
BRANCH  29  30
ATOM     30  C   UNL A   1      41.653 -14.778 -40.692  0.00  0.00    +0.146 C 
ATOM     31  O   UNL A   1      41.603 -13.802 -41.431  0.00  0.00    -0.296 OA
ENDBRANCH  29  30
ENDBRANCH   1  29
BRANCH  15  32
ATOM     32  O   UNL A   1      38.714 -21.342 -31.852  0.00  0.00    -0.391 OA
ATOM     33  H   UNL A   1      39.081 -21.735 -31.045  0.00  0.00    +0.000 HD
ENDBRANCH  15  32
BRANCH  27  34
ATOM     34  O   UNL A   1      45.138 -20.638 -41.298  0.00  0.00    -0.391 OA
ATOM     35  H   UNL A   1      45.432 -21.524 -41.034  0.00  0.00    +0.000 HD
ENDBRANCH  27  34
TORSDOF 4
ENDMDL
MODEL 10
REMARK VINA RESULT:    -7.513     17.028     20.058
REMARK INTER + INTRA:          -8.752
REMARK INTER:                  -8.234
REMARK INTRA:                  -0.518
REMARK UNBOUND:                 0.078
REMARK  Name = cpd277.pdb
REMARK  10 active torsions:
REMARK  status: ('A' for Active; 'I' for Inactive)
REMARK    1  A    between atoms: C_2  and  C_3
REMARK    2  A    between atoms: C_2  and  C_5
REMARK    3  A    between atoms: C_8  and  C_9
REMARK    4  A    between atoms: C_15  and  C_16
REMARK    5  A    between atoms: C_19  and  O_20
REMARK    6  A    between atoms: C_21  and  C_22
REMARK    7  A    between atoms: C_21  and  C_23
REMARK    8  A    between atoms: C_27  and  C_28
REMARK    9  A    between atoms: C_29  and  C_30
REMARK   10  A    between atoms: C_32  and  O_33
REMARK                            x       y       z     vdW  Elec       q    Type
REMARK                         _______ _______ _______ _____ _____    ______ ____
ROOT
ATOM      1  C   UNL A   1      44.402 -18.324 -41.461  0.00  0.00    -0.010 C 
ATOM      2  C   UNL A   1      45.692 -17.501 -41.252  0.00  0.00    -0.045 C 
ATOM      3  C   UNL A   1      45.398 -16.522 -40.122  0.00  0.00    -0.044 C 
ATOM      4  C   UNL A   1      43.863 -16.497 -39.974  0.00  0.00    -0.002 C 
ATOM      5  C   UNL A   1      43.273 -15.553 -41.061  0.00  0.00    -0.057 C 
ATOM      6  C   UNL A   1      43.463 -17.984 -40.233  0.00  0.00    -0.023 C 
ATOM      7  C   UNL A   1      43.617 -18.920 -38.987  0.00  0.00    -0.031 C 
ATOM      8  C   UNL A   1      43.005 -20.315 -39.209  0.00  0.00    -0.049 C 
ATOM      9  C   UNL A   1      41.498 -20.388 -39.055  0.00  0.00    -0.049 C 
ATOM     10  C   UNL A   1      40.955 -19.954 -37.685  0.00  0.00    -0.029 C 
ATOM     11  C   UNL A   1      40.705 -21.133 -36.624  0.00  0.00    -0.025 C 
ATOM     12  C   UNL A   1      41.948 -22.019 -36.412  0.00  0.00    -0.059 C 
ATOM     13  C   UNL A   1      39.582 -22.072 -37.178  0.00  0.00    -0.045 C 
ATOM     14  C   UNL A   1      39.050 -23.079 -36.161  0.00  0.00    -0.026 C 
ATOM     15  C   UNL A   1      38.538 -22.410 -34.891  0.00  0.00    +0.061 C 
ATOM     16  C   UNL A   1      39.572 -21.460 -34.214  0.00  0.00    -0.006 C 
ATOM     17  C   UNL A   1      38.799 -20.626 -33.150  0.00  0.00    -0.057 C 
ATOM     18  C   UNL A   1      40.641 -22.248 -33.431  0.00  0.00    -0.057 C 
ATOM     19  C   UNL A   1      40.160 -20.485 -35.305  0.00  0.00    -0.028 C 
ATOM     20  C   UNL A   1      41.175 -19.464 -34.776  0.00  0.00    -0.049 C 
ATOM     21  C   UNL A   1      41.267 -18.270 -35.718  0.00  0.00    -0.047 C 
ATOM     22  C   UNL A   1      41.584 -18.565 -37.223  0.00  0.00    -0.023 C 
ATOM     23  C   UNL A   1      40.746 -17.481 -37.984  0.00  0.00    -0.059 C 
ATOM     24  C   UNL A   1      43.170 -18.358 -37.577  0.00  0.00    -0.021 C 
ATOM     25  C   UNL A   1      44.046 -19.113 -36.527  0.00  0.00    -0.059 C 
ATOM     26  C   UNL A   1      43.655 -16.879 -37.438  0.00  0.00    -0.020 C 
ATOM     27  C   UNL A   1      43.414 -15.945 -38.615  0.00  0.00    +0.061 C 
ENDROOT
BRANCH   1  29
ATOM     28  C   UNL A   1      43.802 -20.391 -42.741  0.00  0.00    -0.092 C 
ATOM     29  C   UNL A   1      44.651 -19.737 -41.928  0.00  0.00    -0.012 C 
BRANCH  29  30
ATOM     30  C   UNL A   1      45.902 -20.456 -41.540  0.00  0.00    +0.146 C 
ATOM     31  O   UNL A   1      45.941 -21.641 -41.230  0.00  0.00    -0.296 OA
ENDBRANCH  29  30
ENDBRANCH   1  29
BRANCH  15  32
ATOM     32  O   UNL A   1      38.117 -23.450 -34.009  0.00  0.00    -0.391 OA
ATOM     33  H   UNL A   1      38.895 -23.893 -33.635  0.00  0.00    +0.000 HD
ENDBRANCH  15  32
BRANCH  27  34
ATOM     34  O   UNL A   1      44.103 -14.716 -38.352  0.00  0.00    -0.391 OA
ATOM     35  H   UNL A   1      44.483 -14.743 -37.461  0.00  0.00    +0.000 HD
ENDBRANCH  27  34
TORSDOF 4
ENDMDL
MODEL 11
REMARK VINA RESULT:    -7.485      1.950      8.274
REMARK INTER + INTRA:          -8.719
REMARK INTER:                  -8.239
REMARK INTRA:                  -0.480
REMARK UNBOUND:                 0.078
REMARK  Name = cpd277.pdb
REMARK  10 active torsions:
REMARK  status: ('A' for Active; 'I' for Inactive)
REMARK    1  A    between atoms: C_2  and  C_3
REMARK    2  A    between atoms: C_2  and  C_5
REMARK    3  A    between atoms: C_8  and  C_9
REMARK    4  A    between atoms: C_15  and  C_16
REMARK    5  A    between atoms: C_19  and  O_20
REMARK    6  A    between atoms: C_21  and  C_22
REMARK    7  A    between atoms: C_21  and  C_23
REMARK    8  A    between atoms: C_27  and  C_28
REMARK    9  A    between atoms: C_29  and  C_30
REMARK   10  A    between atoms: C_32  and  O_33
REMARK                            x       y       z     vdW  Elec       q    Type
REMARK                         _______ _______ _______ _____ _____    ______ ____
ROOT
ATOM      1  C   UNL A   1      27.990 -33.542 -28.785  0.00  0.00    -0.010 C 
ATOM      2  C   UNL A   1      27.222 -33.115 -30.054  0.00  0.00    -0.045 C 
ATOM      3  C   UNL A   1      28.228 -32.392 -30.942  0.00  0.00    -0.044 C 
ATOM      4  C   UNL A   1      29.423 -32.047 -30.031  0.00  0.00    -0.002 C 
ATOM      5  C   UNL A   1      29.081 -30.762 -29.224  0.00  0.00    -0.057 C 
ATOM      6  C   UNL A   1      29.522 -33.295 -29.097  0.00  0.00    -0.023 C 
ATOM      7  C   UNL A   1      30.286 -34.511 -29.724  0.00  0.00    -0.031 C 
ATOM      8  C   UNL A   1      30.562 -35.632 -28.705  0.00  0.00    -0.049 C 
ATOM      9  C   UNL A   1      31.741 -35.388 -27.784  0.00  0.00    -0.049 C 
ATOM     10  C   UNL A   1      33.091 -35.179 -28.486  0.00  0.00    -0.029 C 
ATOM     11  C   UNL A   1      34.012 -36.485 -28.639  0.00  0.00    -0.025 C 
ATOM     12  C   UNL A   1      33.274 -37.659 -29.312  0.00  0.00    -0.059 C 
ATOM     13  C   UNL A   1      34.419 -36.979 -27.211  0.00  0.00    -0.045 C 
ATOM     14  C   UNL A   1      35.510 -38.047 -27.205  0.00  0.00    -0.026 C 
ATOM     15  C   UNL A   1      36.769 -37.600 -27.939  0.00  0.00    +0.061 C 
ATOM     16  C   UNL A   1      36.512 -37.104 -29.394  0.00  0.00    -0.006 C 
ATOM     17  C   UNL A   1      37.812 -36.391 -29.871  0.00  0.00    -0.057 C 
ATOM     18  C   UNL A   1      36.300 -38.282 -30.366  0.00  0.00    -0.057 C 
ATOM     19  C   UNL A   1      35.329 -36.062 -29.377  0.00  0.00    -0.028 C 
ATOM     20  C   UNL A   1      34.981 -35.460 -30.744  0.00  0.00    -0.049 C 
ATOM     21  C   UNL A   1      34.257 -34.130 -30.571  0.00  0.00    -0.047 C 
ATOM     22  C   UNL A   1      32.972 -34.124 -29.674  0.00  0.00    -0.023 C 
ATOM     23  C   UNL A   1      33.036 -32.726 -28.968  0.00  0.00    -0.059 C 
ATOM     24  C   UNL A   1      31.596 -34.212 -30.559  0.00  0.00    -0.021 C 
ATOM     25  C   UNL A   1      31.710 -35.378 -31.592  0.00  0.00    -0.059 C 
ATOM     26  C   UNL A   1      31.353 -32.964 -31.465  0.00  0.00    -0.020 C 
ATOM     27  C   UNL A   1      30.699 -31.746 -30.827  0.00  0.00    +0.061 C 
ENDROOT
BRANCH   1  29
ATOM     28  C   UNL A   1      27.027 -35.852 -28.903  0.00  0.00    -0.092 C 
ATOM     29  C   UNL A   1      27.481 -34.821 -28.167  0.00  0.00    -0.012 C 
BRANCH  29  30
ATOM     30  C   UNL A   1      27.513 -35.013 -26.685  0.00  0.00    +0.146 C 
ATOM     31  O   UNL A   1      28.223 -35.836 -26.119  0.00  0.00    -0.296 OA
ENDBRANCH  29  30
ENDBRANCH   1  29
BRANCH  15  32
ATOM     32  O   UNL A   1      37.686 -38.693 -27.904  0.00  0.00    -0.391 OA
ATOM     33  H   UNL A   1      37.840 -39.015 -28.806  0.00  0.00    +0.000 HD
ENDBRANCH  15  32
BRANCH  27  34
ATOM     34  O   UNL A   1      30.397 -30.809 -31.869  0.00  0.00    -0.391 OA
ATOM     35  H   UNL A   1      30.541 -31.228 -32.732  0.00  0.00    +0.000 HD
ENDBRANCH  27  34
TORSDOF 4
ENDMDL
MODEL 12
REMARK VINA RESULT:    -7.471     17.230     20.023
REMARK INTER + INTRA:          -8.703
REMARK INTER:                  -8.133
REMARK INTRA:                  -0.570
REMARK UNBOUND:                 0.078
REMARK  Name = cpd277.pdb
REMARK  10 active torsions:
REMARK  status: ('A' for Active; 'I' for Inactive)
REMARK    1  A    between atoms: C_2  and  C_3
REMARK    2  A    between atoms: C_2  and  C_5
REMARK    3  A    between atoms: C_8  and  C_9
REMARK    4  A    between atoms: C_15  and  C_16
REMARK    5  A    between atoms: C_19  and  O_20
REMARK    6  A    between atoms: C_21  and  C_22
REMARK    7  A    between atoms: C_21  and  C_23
REMARK    8  A    between atoms: C_27  and  C_28
REMARK    9  A    between atoms: C_29  and  C_30
REMARK   10  A    between atoms: C_32  and  O_33
REMARK                            x       y       z     vdW  Elec       q    Type
REMARK                         _______ _______ _______ _____ _____    ______ ____
ROOT
ATOM      1  C   UNL A   1      46.361 -16.117 -36.538  0.00  0.00    -0.010 C 
ATOM      2  C   UNL A   1      47.227 -16.900 -37.548  0.00  0.00    -0.045 C 
ATOM      3  C   UNL A   1      47.265 -18.342 -37.055  0.00  0.00    -0.044 C 
ATOM      4  C   UNL A   1      46.789 -18.299 -35.589  0.00  0.00    -0.002 C 
ATOM      5  C   UNL A   1      47.983 -17.869 -34.689  0.00  0.00    -0.057 C 
ATOM      6  C   UNL A   1      45.674 -17.205 -35.616  0.00  0.00    -0.023 C 
ATOM      7  C   UNL A   1      44.278 -17.720 -36.107  0.00  0.00    -0.031 C 
ATOM      8  C   UNL A   1      43.157 -16.684 -35.907  0.00  0.00    -0.049 C 
ATOM      9  C   UNL A   1      42.608 -16.594 -34.496  0.00  0.00    -0.049 C 
ATOM     10  C   UNL A   1      42.019 -17.898 -33.936  0.00  0.00    -0.029 C 
ATOM     11  C   UNL A   1      40.432 -18.077 -34.098  0.00  0.00    -0.025 C 
ATOM     12  C   UNL A   1      39.957 -17.898 -35.553  0.00  0.00    -0.059 C 
ATOM     13  C   UNL A   1      39.716 -16.966 -33.259  0.00  0.00    -0.045 C 
ATOM     14  C   UNL A   1      38.211 -17.173 -33.100  0.00  0.00    -0.026 C 
ATOM     15  C   UNL A   1      37.870 -18.530 -32.496  0.00  0.00    +0.061 C 
ATOM     16  C   UNL A   1      38.500 -19.738 -33.254  0.00  0.00    -0.006 C 
ATOM     17  C   UNL A   1      38.334 -20.989 -32.341  0.00  0.00    -0.057 C 
ATOM     18  C   UNL A   1      37.729 -20.061 -34.549  0.00  0.00    -0.057 C 
ATOM     19  C   UNL A   1      40.037 -19.458 -33.472  0.00  0.00    -0.028 C 
ATOM     20  C   UNL A   1      40.801 -20.583 -34.182  0.00  0.00    -0.049 C 
ATOM     21  C   UNL A   1      42.290 -20.491 -33.871  0.00  0.00    -0.047 C 
ATOM     22  C   UNL A   1      43.004 -19.129 -34.168  0.00  0.00    -0.023 C 
ATOM     23  C   UNL A   1      44.054 -19.016 -33.010  0.00  0.00    -0.059 C 
ATOM     24  C   UNL A   1      43.792 -19.139 -35.604  0.00  0.00    -0.021 C 
ATOM     25  C   UNL A   1      42.842 -19.677 -36.721  0.00  0.00    -0.059 C 
ATOM     26  C   UNL A   1      44.991 -20.139 -35.653  0.00  0.00    -0.020 C 
ATOM     27  C   UNL A   1      46.323 -19.670 -35.084  0.00  0.00    +0.061 C 
ENDROOT
BRANCH   1  29
ATOM     28  C   UNL A   1      45.267 -13.865 -36.457  0.00  0.00    -0.092 C 
ATOM     29  C   UNL A   1      45.596 -14.970 -37.151  0.00  0.00    -0.012 C 
BRANCH  29  30
ATOM     30  C   UNL A   1      45.217 -14.997 -38.596  0.00  0.00    +0.146 C 
ATOM     31  O   UNL A   1      44.253 -15.612 -39.037  0.00  0.00    -0.296 OA
ENDBRANCH  29  30
ENDBRANCH   1  29
BRANCH  15  32
ATOM     32  O   UNL A   1      36.447 -18.620 -32.444  0.00  0.00    -0.391 OA
ATOM     33  H   UNL A   1      36.058 -17.792 -32.765  0.00  0.00    +0.000 HD
ENDBRANCH  15  32
BRANCH  27  34
ATOM     34  O   UNL A   1      47.313 -20.655 -35.408  0.00  0.00    -0.391 OA
ATOM     35  H   UNL A   1      47.835 -20.351 -36.167  0.00  0.00    +0.000 HD
ENDBRANCH  27  34
TORSDOF 4
ENDMDL
MODEL 13
REMARK VINA RESULT:    -7.275     15.644     19.200
REMARK INTER + INTRA:          -8.472
REMARK INTER:                  -7.903
REMARK INTRA:                  -0.569
REMARK UNBOUND:                 0.078
REMARK  Name = cpd277.pdb
REMARK  10 active torsions:
REMARK  status: ('A' for Active; 'I' for Inactive)
REMARK    1  A    between atoms: C_2  and  C_3
REMARK    2  A    between atoms: C_2  and  C_5
REMARK    3  A    between atoms: C_8  and  C_9
REMARK    4  A    between atoms: C_15  and  C_16
REMARK    5  A    between atoms: C_19  and  O_20
REMARK    6  A    between atoms: C_21  and  C_22
REMARK    7  A    between atoms: C_21  and  C_23
REMARK    8  A    between atoms: C_27  and  C_28
REMARK    9  A    between atoms: C_29  and  C_30
REMARK   10  A    between atoms: C_32  and  O_33
REMARK                            x       y       z     vdW  Elec       q    Type
REMARK                         _______ _______ _______ _____ _____    ______ ____
ROOT
ATOM      1  C   UNL A   1      37.119 -20.196 -34.397  0.00  0.00    -0.010 C 
ATOM      2  C   UNL A   1      36.990 -20.227 -32.859  0.00  0.00    -0.045 C 
ATOM      3  C   UNL A   1      38.220 -20.963 -32.340  0.00  0.00    -0.044 C 
ATOM      4  C   UNL A   1      38.819 -21.695 -33.557  0.00  0.00    -0.002 C 
ATOM      5  C   UNL A   1      38.023 -23.011 -33.789  0.00  0.00    -0.057 C 
ATOM      6  C   UNL A   1      38.590 -20.680 -34.722  0.00  0.00    -0.023 C 
ATOM      7  C   UNL A   1      39.669 -19.546 -34.810  0.00  0.00    -0.031 C 
ATOM      8  C   UNL A   1      39.545 -18.704 -36.093  0.00  0.00    -0.049 C 
ATOM      9  C   UNL A   1      40.135 -19.338 -37.338  0.00  0.00    -0.049 C 
ATOM     10  C   UNL A   1      41.631 -19.680 -37.256  0.00  0.00    -0.029 C 
ATOM     11  C   UNL A   1      42.636 -18.576 -37.845  0.00  0.00    -0.025 C 
ATOM     12  C   UNL A   1      42.408 -17.177 -37.239  0.00  0.00    -0.059 C 
ATOM     13  C   UNL A   1      42.379 -18.437 -39.384  0.00  0.00    -0.045 C 
ATOM     14  C   UNL A   1      43.438 -17.624 -40.124  0.00  0.00    -0.026 C 
ATOM     15  C   UNL A   1      44.845 -18.172 -39.916  0.00  0.00    +0.061 C 
ATOM     16  C   UNL A   1      45.246 -18.337 -38.419  0.00  0.00    -0.006 C 
ATOM     17  C   UNL A   1      46.546 -19.194 -38.385  0.00  0.00    -0.057 C 
ATOM     18  C   UNL A   1      45.621 -16.985 -37.779  0.00  0.00    -0.057 C 
ATOM     19  C   UNL A   1      44.098 -19.111 -37.665  0.00  0.00    -0.028 C 
ATOM     20  C   UNL A   1      44.369 -19.376 -36.179  0.00  0.00    -0.049 C 
ATOM     21  C   UNL A   1      43.524 -20.545 -35.686  0.00  0.00    -0.047 C 
ATOM     22  C   UNL A   1      41.977 -20.459 -35.910  0.00  0.00    -0.023 C 
ATOM     23  C   UNL A   1      41.575 -21.945 -36.201  0.00  0.00    -0.059 C 
ATOM     24  C   UNL A   1      41.182 -19.943 -34.574  0.00  0.00    -0.021 C 
ATOM     25  C   UNL A   1      41.871 -18.656 -34.017  0.00  0.00    -0.059 C 
ATOM     26  C   UNL A   1      41.270 -20.935 -33.371  0.00  0.00    -0.020 C 
ATOM     27  C   UNL A   1      40.284 -22.094 -33.340  0.00  0.00    +0.061 C 
ENDROOT
BRANCH   1  29
ATOM     28  C   UNL A   1      35.989 -18.987 -36.277  0.00  0.00    -0.092 C 
ATOM     29  C   UNL A   1      36.505 -18.974 -35.035  0.00  0.00    -0.012 C 
BRANCH  29  30
ATOM     30  C   UNL A   1      36.396 -17.693 -34.272  0.00  0.00    +0.146 C 
ATOM     31  O   UNL A   1      37.332 -16.921 -34.099  0.00  0.00    -0.296 OA
ENDBRANCH  29  30
ENDBRANCH   1  29
BRANCH  15  32
ATOM     32  O   UNL A   1      45.740 -17.306 -40.613  0.00  0.00    -0.391 OA
ATOM     33  H   UNL A   1      46.143 -17.785 -41.354  0.00  0.00    +0.000 HD
ENDBRANCH  15  32
BRANCH  27  34
ATOM     34  O   UNL A   1      40.412 -22.750 -32.071  0.00  0.00    -0.391 OA
ATOM     35  H   UNL A   1      39.761 -23.467 -32.011  0.00  0.00    +0.000 HD
ENDBRANCH  27  34
TORSDOF 4
ENDMDL
MODEL 14
REMARK VINA RESULT:    -7.157      2.921      7.757
REMARK INTER + INTRA:          -8.334
REMARK INTER:                  -7.769
REMARK INTRA:                  -0.565
REMARK UNBOUND:                 0.078
REMARK  Name = cpd277.pdb
REMARK  10 active torsions:
REMARK  status: ('A' for Active; 'I' for Inactive)
REMARK    1  A    between atoms: C_2  and  C_3
REMARK    2  A    between atoms: C_2  and  C_5
REMARK    3  A    between atoms: C_8  and  C_9
REMARK    4  A    between atoms: C_15  and  C_16
REMARK    5  A    between atoms: C_19  and  O_20
REMARK    6  A    between atoms: C_21  and  C_22
REMARK    7  A    between atoms: C_21  and  C_23
REMARK    8  A    between atoms: C_27  and  C_28
REMARK    9  A    between atoms: C_29  and  C_30
REMARK   10  A    between atoms: C_32  and  O_33
REMARK                            x       y       z     vdW  Elec       q    Type
REMARK                         _______ _______ _______ _____ _____    ______ ____
ROOT
ATOM      1  C   UNL A   1      32.603 -33.489 -29.886  0.00  0.00    -0.010 C 
ATOM      2  C   UNL A   1      32.442 -33.237 -31.400  0.00  0.00    -0.045 C 
ATOM      3  C   UNL A   1      33.484 -34.107 -32.093  0.00  0.00    -0.044 C 
ATOM      4  C   UNL A   1      34.485 -34.520 -30.996  0.00  0.00    -0.002 C 
ATOM      5  C   UNL A   1      35.486 -33.352 -30.769  0.00  0.00    -0.057 C 
ATOM      6  C   UNL A   1      33.568 -34.735 -29.750  0.00  0.00    -0.023 C 
ATOM      7  C   UNL A   1      32.862 -36.133 -29.702  0.00  0.00    -0.031 C 
ATOM      8  C   UNL A   1      32.154 -36.397 -28.361  0.00  0.00    -0.049 C 
ATOM      9  C   UNL A   1      33.062 -36.837 -27.229  0.00  0.00    -0.049 C 
ATOM     10  C   UNL A   1      33.863 -38.122 -27.490  0.00  0.00    -0.029 C 
ATOM     11  C   UNL A   1      33.209 -39.480 -26.940  0.00  0.00    -0.025 C 
ATOM     12  C   UNL A   1      31.760 -39.685 -27.426  0.00  0.00    -0.059 C 
ATOM     13  C   UNL A   1      33.144 -39.406 -25.377  0.00  0.00    -0.045 C 
ATOM     14  C   UNL A   1      32.795 -40.729 -24.700  0.00  0.00    -0.026 C 
ATOM     15  C   UNL A   1      33.748 -41.852 -25.091  0.00  0.00    +0.061 C 
ATOM     16  C   UNL A   1      33.889 -42.058 -26.630  0.00  0.00    -0.006 C 
ATOM     17  C   UNL A   1      35.116 -42.990 -26.857  0.00  0.00    -0.057 C 
ATOM     18  C   UNL A   1      32.678 -42.810 -27.216  0.00  0.00    -0.057 C 
ATOM     19  C   UNL A   1      34.170 -40.662 -27.307  0.00  0.00    -0.028 C 
ATOM     20  C   UNL A   1      34.364 -40.712 -28.828  0.00  0.00    -0.049 C 
ATOM     21  C   UNL A   1      35.142 -39.491 -29.305  0.00  0.00    -0.047 C 
ATOM     22  C   UNL A   1      34.578 -38.083 -28.913  0.00  0.00    -0.023 C 
ATOM     23  C   UNL A   1      35.873 -37.232 -28.680  0.00  0.00    -0.059 C 
ATOM     24  C   UNL A   1      33.705 -37.404 -30.122  0.00  0.00    -0.021 C 
ATOM     25  C   UNL A   1      32.665 -38.437 -30.663  0.00  0.00    -0.059 C 
ATOM     26  C   UNL A   1      34.551 -37.063 -31.390  0.00  0.00    -0.020 C 
ATOM     27  C   UNL A   1      35.316 -35.747 -31.393  0.00  0.00    +0.061 C 
ENDROOT
BRANCH   1  29
ATOM     28  C   UNL A   1      31.282 -33.009 -27.812  0.00  0.00    -0.092 C 
ATOM     29  C   UNL A   1      31.315 -33.368 -29.108  0.00  0.00    -0.012 C 
BRANCH  29  30
ATOM     30  C   UNL A   1      29.999 -33.595 -29.779  0.00  0.00    +0.146 C 
ATOM     31  O   UNL A   1      29.507 -34.703 -29.959  0.00  0.00    -0.296 OA
ENDBRANCH  29  30
ENDBRANCH   1  29
BRANCH  15  32
ATOM     32  O   UNL A   1      33.293 -43.036 -24.437  0.00  0.00    -0.391 OA
ATOM     33  H   UNL A   1      32.323 -43.041 -24.415  0.00  0.00    +0.000 HD
ENDBRANCH  15  32
BRANCH  27  34
ATOM     34  O   UNL A   1      35.852 -35.550 -32.708  0.00  0.00    -0.391 OA
ATOM     35  H   UNL A   1      36.688 -35.062 -32.646  0.00  0.00    +0.000 HD
ENDBRANCH  27  34
TORSDOF 4
ENDMDL
MODEL 15
REMARK VINA RESULT:    -7.105      2.415      5.152
REMARK INTER + INTRA:          -8.272
REMARK INTER:                  -7.711
REMARK INTRA:                  -0.562
REMARK UNBOUND:                 0.078
REMARK  Name = cpd277.pdb
REMARK  10 active torsions:
REMARK  status: ('A' for Active; 'I' for Inactive)
REMARK    1  A    between atoms: C_2  and  C_3
REMARK    2  A    between atoms: C_2  and  C_5
REMARK    3  A    between atoms: C_8  and  C_9
REMARK    4  A    between atoms: C_15  and  C_16
REMARK    5  A    between atoms: C_19  and  O_20
REMARK    6  A    between atoms: C_21  and  C_22
REMARK    7  A    between atoms: C_21  and  C_23
REMARK    8  A    between atoms: C_27  and  C_28
REMARK    9  A    between atoms: C_29  and  C_30
REMARK   10  A    between atoms: C_32  and  O_33
REMARK                            x       y       z     vdW  Elec       q    Type
REMARK                         _______ _______ _______ _____ _____    ______ ____
ROOT
ATOM      1  C   UNL A   1      33.375 -41.415 -29.494  0.00  0.00    -0.010 C 
ATOM      2  C   UNL A   1      34.028 -42.031 -28.238  0.00  0.00    -0.045 C 
ATOM      3  C   UNL A   1      35.230 -41.154 -27.905  0.00  0.00    -0.044 C 
ATOM      4  C   UNL A   1      35.502 -40.315 -29.170  0.00  0.00    -0.002 C 
ATOM      5  C   UNL A   1      36.305 -41.183 -30.181  0.00  0.00    -0.057 C 
ATOM      6  C   UNL A   1      34.066 -40.006 -29.700  0.00  0.00    -0.023 C 
ATOM      7  C   UNL A   1      33.362 -38.800 -28.990  0.00  0.00    -0.031 C 
ATOM      8  C   UNL A   1      32.053 -38.381 -29.684  0.00  0.00    -0.049 C 
ATOM      9  C   UNL A   1      32.227 -37.527 -30.925  0.00  0.00    -0.049 C 
ATOM     10  C   UNL A   1      32.979 -36.204 -30.712  0.00  0.00    -0.029 C 
ATOM     11  C   UNL A   1      32.064 -34.911 -30.455  0.00  0.00    -0.025 C 
ATOM     12  C   UNL A   1      31.062 -35.109 -29.300  0.00  0.00    -0.059 C 
ATOM     13  C   UNL A   1      31.210 -34.640 -31.739  0.00  0.00    -0.045 C 
ATOM     14  C   UNL A   1      30.494 -33.291 -31.742  0.00  0.00    -0.026 C 
ATOM     15  C   UNL A   1      31.451 -32.122 -31.543  0.00  0.00    +0.061 C 
ATOM     16  C   UNL A   1      32.351 -32.249 -30.276  0.00  0.00    -0.006 C 
ATOM     17  C   UNL A   1      33.468 -31.171 -30.399  0.00  0.00    -0.057 C 
ATOM     18  C   UNL A   1      31.574 -31.900 -28.990  0.00  0.00    -0.057 C 
ATOM     19  C   UNL A   1      33.013 -33.679 -30.261  0.00  0.00    -0.028 C 
ATOM     20  C   UNL A   1      33.957 -33.939 -29.080  0.00  0.00    -0.049 C 
ATOM     21  C   UNL A   1      34.933 -35.061 -29.417  0.00  0.00    -0.047 C 
ATOM     22  C   UNL A   1      34.324 -36.425 -29.887  0.00  0.00    -0.023 C 
ATOM     23  C   UNL A   1      35.359 -36.931 -30.950  0.00  0.00    -0.059 C 
ATOM     24  C   UNL A   1      34.232 -37.518 -28.670  0.00  0.00    -0.021 C 
ATOM     25  C   UNL A   1      33.564 -36.858 -27.422  0.00  0.00    -0.059 C 
ATOM     26  C   UNL A   1      35.625 -37.966 -28.125  0.00  0.00    -0.020 C 
ATOM     27  C   UNL A   1      36.353 -39.073 -28.877  0.00  0.00    +0.061 C 
ENDROOT
BRANCH   1  29
ATOM     28  C   UNL A   1      31.209 -41.691 -30.721  0.00  0.00    -0.092 C 
ATOM     29  C   UNL A   1      31.879 -41.605 -29.558  0.00  0.00    -0.012 C 
BRANCH  29  30
ATOM     30  C   UNL A   1      31.079 -41.762 -28.305  0.00  0.00    +0.146 C 
ATOM     31  O   UNL A   1      30.835 -40.843 -27.532  0.00  0.00    -0.296 OA
ENDBRANCH  29  30
ENDBRANCH   1  29
BRANCH  15  32
ATOM     32  O   UNL A   1      30.662 -30.933 -31.517  0.00  0.00    -0.391 OA
ATOM     33  H   UNL A   1      30.454 -30.703 -30.599  0.00  0.00    +0.000 HD
ENDBRANCH  15  32
BRANCH  27  34
ATOM     34  O   UNL A   1      37.497 -39.455 -28.102  0.00  0.00    -0.391 OA
ATOM     35  H   UNL A   1      37.567 -38.881 -27.324  0.00  0.00    +0.000 HD
ENDBRANCH  27  34
TORSDOF 4
ENDMDL
MODEL 16
REMARK VINA RESULT:    -6.972     16.207     19.459
REMARK INTER + INTRA:          -8.117
REMARK INTER:                  -7.624
REMARK INTRA:                  -0.492
REMARK UNBOUND:                 0.078
REMARK  Name = cpd277.pdb
REMARK  10 active torsions:
REMARK  status: ('A' for Active; 'I' for Inactive)
REMARK    1  A    between atoms: C_2  and  C_3
REMARK    2  A    between atoms: C_2  and  C_5
REMARK    3  A    between atoms: C_8  and  C_9
REMARK    4  A    between atoms: C_15  and  C_16
REMARK    5  A    between atoms: C_19  and  O_20
REMARK    6  A    between atoms: C_21  and  C_22
REMARK    7  A    between atoms: C_21  and  C_23
REMARK    8  A    between atoms: C_27  and  C_28
REMARK    9  A    between atoms: C_29  and  C_30
REMARK   10  A    between atoms: C_32  and  O_33
REMARK                            x       y       z     vdW  Elec       q    Type
REMARK                         _______ _______ _______ _____ _____    ______ ____
ROOT
ATOM      1  C   UNL A   1      37.619 -20.188 -33.902  0.00  0.00    -0.010 C 
ATOM      2  C   UNL A   1      38.040 -20.740 -32.523  0.00  0.00    -0.045 C 
ATOM      3  C   UNL A   1      39.264 -21.616 -32.767  0.00  0.00    -0.044 C 
ATOM      4  C   UNL A   1      39.288 -21.894 -34.283  0.00  0.00    -0.002 C 
ATOM      5  C   UNL A   1      38.293 -23.048 -34.594  0.00  0.00    -0.057 C 
ATOM      6  C   UNL A   1      38.800 -20.541 -34.894  0.00  0.00    -0.023 C 
ATOM      7  C   UNL A   1      39.919 -19.452 -35.025  0.00  0.00    -0.031 C 
ATOM      8  C   UNL A   1      39.463 -18.223 -35.832  0.00  0.00    -0.049 C 
ATOM      9  C   UNL A   1      39.482 -18.400 -37.338  0.00  0.00    -0.049 C 
ATOM     10  C   UNL A   1      40.849 -18.758 -37.941  0.00  0.00    -0.029 C 
ATOM     11  C   UNL A   1      41.719 -17.525 -38.489  0.00  0.00    -0.025 C 
ATOM     12  C   UNL A   1      41.911 -16.415 -37.437  0.00  0.00    -0.059 C 
ATOM     13  C   UNL A   1      40.955 -16.870 -39.689  0.00  0.00    -0.045 C 
ATOM     14  C   UNL A   1      41.782 -15.860 -40.481  0.00  0.00    -0.026 C 
ATOM     15  C   UNL A   1      43.084 -16.455 -41.004  0.00  0.00    +0.061 C 
ATOM     16  C   UNL A   1      43.964 -17.121 -39.904  0.00  0.00    -0.006 C 
ATOM     17  C   UNL A   1      45.064 -17.947 -40.634  0.00  0.00    -0.057 C 
ATOM     18  C   UNL A   1      44.718 -16.070 -39.065  0.00  0.00    -0.057 C 
ATOM     19  C   UNL A   1      43.064 -18.098 -39.054  0.00  0.00    -0.028 C 
ATOM     20  C   UNL A   1      43.806 -18.855 -37.944  0.00  0.00    -0.049 C 
ATOM     21  C   UNL A   1      43.043 -20.117 -37.560  0.00  0.00    -0.047 C 
ATOM     22  C   UNL A   1      41.542 -19.950 -37.143  0.00  0.00    -0.023 C 
ATOM     23  C   UNL A   1      40.868 -21.247 -37.708  0.00  0.00    -0.059 C 
ATOM     24  C   UNL A   1      41.350 -19.915 -35.516  0.00  0.00    -0.021 C 
ATOM     25  C   UNL A   1      42.357 -18.898 -34.890  0.00  0.00    -0.059 C 
ATOM     26  C   UNL A   1      41.725 -21.257 -34.812  0.00  0.00    -0.020 C 
ATOM     27  C   UNL A   1      40.668 -22.352 -34.773  0.00  0.00    +0.061 C 
ENDROOT
BRANCH   1  29
ATOM     28  C   UNL A   1      37.244 -17.945 -32.852  0.00  0.00    -0.092 C 
ATOM     29  C   UNL A   1      36.988 -18.818 -33.842  0.00  0.00    -0.012 C 
BRANCH  29  30
ATOM     30  C   UNL A   1      36.079 -18.354 -34.934  0.00  0.00    +0.146 C 
ATOM     31  O   UNL A   1      35.605 -19.093 -35.788  0.00  0.00    -0.296 OA
ENDBRANCH  29  30
ENDBRANCH   1  29
BRANCH  15  32
ATOM     32  O   UNL A   1      43.781 -15.409 -41.680  0.00  0.00    -0.391 OA
ATOM     33  H   UNL A   1      44.487 -15.068 -41.108  0.00  0.00    +0.000 HD
ENDBRANCH  15  32
BRANCH  27  34
ATOM     34  O   UNL A   1      41.148 -23.401 -33.922  0.00  0.00    -0.391 OA
ATOM     35  H   UNL A   1      41.897 -23.845 -34.348  0.00  0.00    +0.000 HD
ENDBRANCH  27  34
TORSDOF 4
ENDMDL
MODEL 17
REMARK VINA RESULT:    -6.913     26.021     30.028
REMARK INTER + INTRA:          -8.047
REMARK INTER:                  -7.516
REMARK INTRA:                  -0.531
REMARK UNBOUND:                 0.078
REMARK  Name = cpd277.pdb
REMARK  10 active torsions:
REMARK  status: ('A' for Active; 'I' for Inactive)
REMARK    1  A    between atoms: C_2  and  C_3
REMARK    2  A    between atoms: C_2  and  C_5
REMARK    3  A    between atoms: C_8  and  C_9
REMARK    4  A    between atoms: C_15  and  C_16
REMARK    5  A    between atoms: C_19  and  O_20
REMARK    6  A    between atoms: C_21  and  C_22
REMARK    7  A    between atoms: C_21  and  C_23
REMARK    8  A    between atoms: C_27  and  C_28
REMARK    9  A    between atoms: C_29  and  C_30
REMARK   10  A    between atoms: C_32  and  O_33
REMARK                            x       y       z     vdW  Elec       q    Type
REMARK                         _______ _______ _______ _____ _____    ______ ____
ROOT
ATOM      1  C   UNL A   1      57.329 -51.102 -44.943  0.00  0.00    -0.010 C 
ATOM      2  C   UNL A   1      58.342 -50.391 -44.021  0.00  0.00    -0.045 C 
ATOM      3  C   UNL A   1      58.557 -49.001 -44.610  0.00  0.00    -0.044 C 
ATOM      4  C   UNL A   1      58.012 -49.065 -46.050  0.00  0.00    -0.002 C 
ATOM      5  C   UNL A   1      59.091 -49.714 -46.964  0.00  0.00    -0.057 C 
ATOM      6  C   UNL A   1      56.758 -49.986 -45.909  0.00  0.00    -0.023 C 
ATOM      7  C   UNL A   1      55.471 -49.250 -45.401  0.00  0.00    -0.031 C 
ATOM      8  C   UNL A   1      54.209 -50.126 -45.490  0.00  0.00    -0.049 C 
ATOM      9  C   UNL A   1      53.588 -50.223 -46.869  0.00  0.00    -0.049 C 
ATOM     10  C   UNL A   1      53.160 -48.885 -47.493  0.00  0.00    -0.029 C 
ATOM     11  C   UNL A   1      51.623 -48.473 -47.283  0.00  0.00    -0.025 C 
ATOM     12  C   UNL A   1      51.195 -48.495 -45.802  0.00  0.00    -0.059 C 
ATOM     13  C   UNL A   1      50.721 -49.521 -48.019  0.00  0.00    -0.045 C 
ATOM     14  C   UNL A   1      49.254 -49.112 -48.134  0.00  0.00    -0.026 C 
ATOM     15  C   UNL A   1      49.077 -47.760 -48.814  0.00  0.00    +0.061 C 
ATOM     16  C   UNL A   1      49.904 -46.610 -48.163  0.00  0.00    -0.006 C 
ATOM     17  C   UNL A   1      49.871 -45.406 -49.151  0.00  0.00    -0.057 C 
ATOM     18  C   UNL A   1      49.246 -46.103 -46.864  0.00  0.00    -0.057 C 
ATOM     19  C   UNL A   1      51.395 -47.091 -47.985  0.00  0.00    -0.028 C 
ATOM     20  C   UNL A   1      52.340 -46.045 -47.380  0.00  0.00    -0.049 C 
ATOM     21  C   UNL A   1      53.786 -46.366 -47.740  0.00  0.00    -0.047 C 
ATOM     22  C   UNL A   1      54.316 -47.795 -47.381  0.00  0.00    -0.023 C 
ATOM     23  C   UNL A   1      55.285 -48.126 -48.567  0.00  0.00    -0.059 C 
ATOM     24  C   UNL A   1      55.165 -47.810 -45.979  0.00  0.00    -0.021 C 
ATOM     25  C   UNL A   1      54.351 -47.075 -44.866  0.00  0.00    -0.059 C 
ATOM     26  C   UNL A   1      56.491 -46.989 -46.042  0.00  0.00    -0.020 C 
ATOM     27  C   UNL A   1      57.717 -47.675 -46.628  0.00  0.00    +0.061 C 
ENDROOT
BRANCH   1  29
ATOM     28  C   UNL A   1      55.976 -53.206 -44.816  0.00  0.00    -0.092 C 
ATOM     29  C   UNL A   1      56.442 -52.090 -44.227  0.00  0.00    -0.012 C 
BRANCH  29  30
ATOM     30  C   UNL A   1      56.086 -51.887 -42.789  0.00  0.00    +0.146 C 
ATOM     31  O   UNL A   1      54.940 -51.925 -42.358  0.00  0.00    -0.296 OA
ENDBRANCH  29  30
ENDBRANCH   1  29
BRANCH  15  32
ATOM     32  O   UNL A   1      47.679 -47.472 -48.819  0.00  0.00    -0.391 OA
ATOM     33  H   UNL A   1      47.225 -48.084 -49.419  0.00  0.00    +0.000 HD
ENDBRANCH  15  32
BRANCH  27  34
ATOM     34  O   UNL A   1      58.849 -46.823 -46.409  0.00  0.00    -0.391 OA
ATOM     35  H   UNL A   1      58.592 -45.899 -46.558  0.00  0.00    +0.000 HD
ENDBRANCH  27  34
TORSDOF 4
ENDMDL
MODEL 18
REMARK VINA RESULT:    -6.899     17.008     19.860
REMARK INTER + INTRA:          -8.030
REMARK INTER:                  -7.462
REMARK INTRA:                  -0.568
REMARK UNBOUND:                 0.078
REMARK  Name = cpd277.pdb
REMARK  10 active torsions:
REMARK  status: ('A' for Active; 'I' for Inactive)
REMARK    1  A    between atoms: C_2  and  C_3
REMARK    2  A    between atoms: C_2  and  C_5
REMARK    3  A    between atoms: C_8  and  C_9
REMARK    4  A    between atoms: C_15  and  C_16
REMARK    5  A    between atoms: C_19  and  O_20
REMARK    6  A    between atoms: C_21  and  C_22
REMARK    7  A    between atoms: C_21  and  C_23
REMARK    8  A    between atoms: C_27  and  C_28
REMARK    9  A    between atoms: C_29  and  C_30
REMARK   10  A    between atoms: C_32  and  O_33
REMARK                            x       y       z     vdW  Elec       q    Type
REMARK                         _______ _______ _______ _____ _____    ______ ____
ROOT
ATOM      1  C   UNL A   1      45.570 -17.179 -39.252  0.00  0.00    -0.010 C 
ATOM      2  C   UNL A   1      46.854 -18.016 -39.437  0.00  0.00    -0.045 C 
ATOM      3  C   UNL A   1      47.187 -18.598 -38.068  0.00  0.00    -0.044 C 
ATOM      4  C   UNL A   1      46.365 -17.782 -37.051  0.00  0.00    -0.002 C 
ATOM      5  C   UNL A   1      47.112 -16.449 -36.762  0.00  0.00    -0.057 C 
ATOM      6  C   UNL A   1      45.023 -17.530 -37.809  0.00  0.00    -0.023 C 
ATOM      7  C   UNL A   1      44.011 -18.724 -37.744  0.00  0.00    -0.031 C 
ATOM      8  C   UNL A   1      42.623 -18.360 -38.301  0.00  0.00    -0.049 C 
ATOM      9  C   UNL A   1      41.734 -17.579 -37.354  0.00  0.00    -0.049 C 
ATOM     10  C   UNL A   1      41.432 -18.269 -36.015  0.00  0.00    -0.029 C 
ATOM     11  C   UNL A   1      40.062 -19.105 -35.950  0.00  0.00    -0.025 C 
ATOM     12  C   UNL A   1      39.939 -20.139 -37.086  0.00  0.00    -0.059 C 
ATOM     13  C   UNL A   1      38.864 -18.112 -36.124  0.00  0.00    -0.045 C 
ATOM     14  C   UNL A   1      37.497 -18.720 -35.816  0.00  0.00    -0.026 C 
ATOM     15  C   UNL A   1      37.429 -19.321 -34.417  0.00  0.00    +0.061 C 
ATOM     16  C   UNL A   1      38.556 -20.354 -34.114  0.00  0.00    -0.006 C 
ATOM     17  C   UNL A   1      38.539 -20.613 -32.578  0.00  0.00    -0.057 C 
ATOM     18  C   UNL A   1      38.267 -21.719 -34.771  0.00  0.00    -0.057 C 
ATOM     19  C   UNL A   1      39.945 -19.726 -34.516  0.00  0.00    -0.028 C 
ATOM     20  C   UNL A   1      41.160 -20.623 -34.244  0.00  0.00    -0.049 C 
ATOM     21  C   UNL A   1      42.427 -19.783 -34.139  0.00  0.00    -0.047 C 
ATOM     22  C   UNL A   1      42.760 -18.832 -35.338  0.00  0.00    -0.023 C 
ATOM     23  C   UNL A   1      43.402 -17.586 -34.637  0.00  0.00    -0.059 C 
ATOM     24  C   UNL A   1      43.853 -19.487 -36.368  0.00  0.00    -0.021 C 
ATOM     25  C   UNL A   1      43.417 -20.940 -36.740  0.00  0.00    -0.059 C 
ATOM     26  C   UNL A   1      45.263 -19.697 -35.732  0.00  0.00    -0.020 C 
ATOM     27  C   UNL A   1      46.210 -18.506 -35.708  0.00  0.00    +0.061 C 
ENDROOT
BRANCH   1  29
ATOM     28  C   UNL A   1      43.881 -16.105 -40.758  0.00  0.00    -0.092 C 
ATOM     29  C   UNL A   1      44.683 -17.146 -40.473  0.00  0.00    -0.012 C 
BRANCH  29  30
ATOM     30  C   UNL A   1      44.706 -18.269 -41.458  0.00  0.00    +0.146 C 
ATOM     31  O   UNL A   1      44.164 -19.352 -41.271  0.00  0.00    -0.296 OA
ENDBRANCH  29  30
ENDBRANCH   1  29
BRANCH  15  32
ATOM     32  O   UNL A   1      36.130 -19.893 -34.269  0.00  0.00    -0.391 OA
ATOM     33  H   UNL A   1      36.214 -20.831 -34.037  0.00  0.00    +0.000 HD
ENDBRANCH  15  32
BRANCH  27  34
ATOM     34  O   UNL A   1      47.494 -18.969 -35.269  0.00  0.00    -0.391 OA
ATOM     35  H   UNL A   1      47.533 -18.942 -34.300  0.00  0.00    +0.000 HD
ENDBRANCH  27  34
TORSDOF 4
ENDMDL
MODEL 19
REMARK VINA RESULT:    -6.883     20.563     23.749
REMARK INTER + INTRA:          -8.011
REMARK INTER:                  -7.472
REMARK INTRA:                  -0.539
REMARK UNBOUND:                 0.078
REMARK  Name = cpd277.pdb
REMARK  10 active torsions:
REMARK  status: ('A' for Active; 'I' for Inactive)
REMARK    1  A    between atoms: C_2  and  C_3
REMARK    2  A    between atoms: C_2  and  C_5
REMARK    3  A    between atoms: C_8  and  C_9
REMARK    4  A    between atoms: C_15  and  C_16
REMARK    5  A    between atoms: C_19  and  O_20
REMARK    6  A    between atoms: C_21  and  C_22
REMARK    7  A    between atoms: C_21  and  C_23
REMARK    8  A    between atoms: C_27  and  C_28
REMARK    9  A    between atoms: C_29  and  C_30
REMARK   10  A    between atoms: C_32  and  O_33
REMARK                            x       y       z     vdW  Elec       q    Type
REMARK                         _______ _______ _______ _____ _____    ______ ____
ROOT
ATOM      1  C   UNL A   1      44.170 -21.223 -40.162  0.00  0.00    -0.010 C 
ATOM      2  C   UNL A   1      42.740 -21.581 -40.619  0.00  0.00    -0.045 C 
ATOM      3  C   UNL A   1      41.807 -20.598 -39.921  0.00  0.00    -0.044 C 
ATOM      4  C   UNL A   1      42.633 -19.971 -38.780  0.00  0.00    -0.002 C 
ATOM      5  C   UNL A   1      42.641 -20.953 -37.573  0.00  0.00    -0.057 C 
ATOM      6  C   UNL A   1      44.055 -19.834 -39.412  0.00  0.00    -0.023 C 
ATOM      7  C   UNL A   1      44.241 -18.565 -40.311  0.00  0.00    -0.031 C 
ATOM      8  C   UNL A   1      45.706 -18.340 -40.729  0.00  0.00    -0.049 C 
ATOM      9  C   UNL A   1      46.586 -17.700 -39.673  0.00  0.00    -0.049 C 
ATOM     10  C   UNL A   1      46.122 -16.322 -39.178  0.00  0.00    -0.029 C 
ATOM     11  C   UNL A   1      46.786 -15.055 -39.907  0.00  0.00    -0.025 C 
ATOM     12  C   UNL A   1      46.647 -15.108 -41.441  0.00  0.00    -0.059 C 
ATOM     13  C   UNL A   1      48.321 -15.051 -39.602  0.00  0.00    -0.045 C 
ATOM     14  C   UNL A   1      49.037 -13.763 -40.002  0.00  0.00    -0.026 C 
ATOM     15  C   UNL A   1      48.414 -12.528 -39.363  0.00  0.00    +0.061 C 
ATOM     16  C   UNL A   1      46.882 -12.389 -39.612  0.00  0.00    -0.006 C 
ATOM     17  C   UNL A   1      46.358 -11.289 -38.641  0.00  0.00    -0.057 C 
ATOM     18  C   UNL A   1      46.581 -11.871 -41.033  0.00  0.00    -0.057 C 
ATOM     19  C   UNL A   1      46.182 -13.759 -39.264  0.00  0.00    -0.028 C 
ATOM     20  C   UNL A   1      44.657 -13.764 -39.432  0.00  0.00    -0.049 C 
ATOM     21  C   UNL A   1      44.034 -14.873 -38.592  0.00  0.00    -0.047 C 
ATOM     22  C   UNL A   1      44.572 -16.328 -38.809  0.00  0.00    -0.023 C 
ATOM     23  C   UNL A   1      44.512 -16.949 -37.372  0.00  0.00    -0.059 C 
ATOM     24  C   UNL A   1      43.613 -17.202 -39.809  0.00  0.00    -0.021 C 
ATOM     25  C   UNL A   1      43.312 -16.378 -41.101  0.00  0.00    -0.059 C 
ATOM     26  C   UNL A   1      42.189 -17.476 -39.229  0.00  0.00    -0.020 C 
ATOM     27  C   UNL A   1      42.031 -18.653 -38.276  0.00  0.00    +0.061 C 
ENDROOT
BRANCH   1  29
ATOM     28  C   UNL A   1      44.982 -21.441 -42.521  0.00  0.00    -0.092 C 
ATOM     29  C   UNL A   1      45.229 -21.501 -41.201  0.00  0.00    -0.012 C 
BRANCH  29  30
ATOM     30  C   UNL A   1      46.633 -21.807 -40.790  0.00  0.00    +0.146 C 
ATOM     31  O   UNL A   1      47.094 -21.543 -39.686  0.00  0.00    -0.296 OA
ENDBRANCH  29  30
ENDBRANCH   1  29
BRANCH  15  32
ATOM     32  O   UNL A   1      49.135 -11.396 -39.848  0.00  0.00    -0.391 OA
ATOM     33  H   UNL A   1      50.088 -11.561 -39.769  0.00  0.00    +0.000 HD
ENDBRANCH  15  32
BRANCH  27  34
ATOM     34  O   UNL A   1      40.631 -18.837 -38.028  0.00  0.00    -0.391 OA
ATOM     35  H   UNL A   1      40.146 -18.048 -38.316  0.00  0.00    +0.000 HD
ENDBRANCH  27  34
TORSDOF 4
ENDMDL
MODEL 20
REMARK VINA RESULT:    -6.563     17.574     20.493
REMARK INTER + INTRA:          -7.636
REMARK INTER:                  -7.173
REMARK INTRA:                  -0.463
REMARK UNBOUND:                 0.078
REMARK  Name = cpd277.pdb
REMARK  10 active torsions:
REMARK  status: ('A' for Active; 'I' for Inactive)
REMARK    1  A    between atoms: C_2  and  C_3
REMARK    2  A    between atoms: C_2  and  C_5
REMARK    3  A    between atoms: C_8  and  C_9
REMARK    4  A    between atoms: C_15  and  C_16
REMARK    5  A    between atoms: C_19  and  O_20
REMARK    6  A    between atoms: C_21  and  C_22
REMARK    7  A    between atoms: C_21  and  C_23
REMARK    8  A    between atoms: C_27  and  C_28
REMARK    9  A    between atoms: C_29  and  C_30
REMARK   10  A    between atoms: C_32  and  O_33
REMARK                            x       y       z     vdW  Elec       q    Type
REMARK                         _______ _______ _______ _____ _____    ______ ____
ROOT
ATOM      1  C   UNL A   1      44.950 -16.255 -39.873  0.00  0.00    -0.010 C 
ATOM      2  C   UNL A   1      45.905 -17.022 -40.812  0.00  0.00    -0.045 C 
ATOM      3  C   UNL A   1      46.573 -18.096 -39.961  0.00  0.00    -0.044 C 
ATOM      4  C   UNL A   1      46.325 -17.687 -38.496  0.00  0.00    -0.002 C 
ATOM      5  C   UNL A   1      47.366 -16.602 -38.097  0.00  0.00    -0.057 C 
ATOM      6  C   UNL A   1      44.878 -17.099 -38.537  0.00  0.00    -0.023 C 
ATOM      7  C   UNL A   1      43.743 -18.177 -38.480  0.00  0.00    -0.031 C 
ATOM      8  C   UNL A   1      42.344 -17.561 -38.294  0.00  0.00    -0.049 C 
ATOM      9  C   UNL A   1      42.005 -17.154 -36.873  0.00  0.00    -0.049 C 
ATOM     10  C   UNL A   1      42.057 -18.285 -35.835  0.00  0.00    -0.029 C 
ATOM     11  C   UNL A   1      40.662 -19.013 -35.520  0.00  0.00    -0.025 C 
ATOM     12  C   UNL A   1      39.959 -19.532 -36.790  0.00  0.00    -0.059 C 
ATOM     13  C   UNL A   1      39.690 -17.971 -34.871  0.00  0.00    -0.045 C 
ATOM     14  C   UNL A   1      38.425 -18.582 -34.273  0.00  0.00    -0.026 C 
ATOM     15  C   UNL A   1      38.730 -19.664 -33.244  0.00  0.00    +0.061 C 
ATOM     16  C   UNL A   1      39.673 -20.789 -33.768  0.00  0.00    -0.006 C 
ATOM     17  C   UNL A   1      40.138 -21.611 -32.529  0.00  0.00    -0.057 C 
ATOM     18  C   UNL A   1      38.919 -21.786 -34.671  0.00  0.00    -0.057 C 
ATOM     19  C   UNL A   1      40.930 -20.126 -34.449  0.00  0.00    -0.028 C 
ATOM     20  C   UNL A   1      41.969 -21.118 -34.988  0.00  0.00    -0.049 C 
ATOM     21  C   UNL A   1      43.330 -20.445 -35.116  0.00  0.00    -0.047 C 
ATOM     22  C   UNL A   1      43.404 -19.128 -35.960  0.00  0.00    -0.023 C 
ATOM     23  C   UNL A   1      44.474 -18.274 -35.198  0.00  0.00    -0.059 C 
ATOM     24  C   UNL A   1      43.927 -19.397 -37.490  0.00  0.00    -0.021 C 
ATOM     25  C   UNL A   1      43.120 -20.576 -38.120  0.00  0.00    -0.059 C 
ATOM     26  C   UNL A   1      45.402 -19.902 -37.566  0.00  0.00    -0.020 C 
ATOM     27  C   UNL A   1      46.508 -18.857 -37.521  0.00  0.00    +0.061 C 
ENDROOT
BRANCH   1  29
ATOM     28  C   UNL A   1      43.224 -16.261 -41.689  0.00  0.00    -0.092 C 
ATOM     29  C   UNL A   1      43.720 -15.717 -40.563  0.00  0.00    -0.012 C 
BRANCH  29  30
ATOM     30  C   UNL A   1      42.962 -14.570 -39.977  0.00  0.00    +0.146 C 
ATOM     31  O   UNL A   1      43.483 -13.661 -39.342  0.00  0.00    -0.296 OA
ENDBRANCH  29  30
ENDBRANCH   1  29
BRANCH  15  32
ATOM     32  O   UNL A   1      37.478 -20.184 -32.798  0.00  0.00    -0.391 OA
ATOM     33  H   UNL A   1      36.875 -20.266 -33.553  0.00  0.00    +0.000 HD
ENDBRANCH  15  32
BRANCH  27  34
ATOM     34  O   UNL A   1      47.751 -19.516 -37.801  0.00  0.00    -0.391 OA
ATOM     35  H   UNL A   1      48.064 -19.967 -37.002  0.00  0.00    +0.000 HD
ENDBRANCH  27  34
TORSDOF 4
ENDMDL
