REMARK  Name = cpd277.pdb
REMARK  10 active torsions:
REMARK  status: ('A' for Active; 'I' for Inactive)
REMARK    1  A    between atoms: C_2  and  C_3
REMARK    2  A    between atoms: C_2  and  C_5
REMARK    3  A    between atoms: C_8  and  C_9
REMARK    4  A    between atoms: C_15  and  C_16
REMARK    5  A    between atoms: C_19  and  O_20
REMARK    6  A    between atoms: C_21  and  C_22
REMARK    7  A    between atoms: C_21  and  C_23
REMARK    8  A    between atoms: C_27  and  C_28
REMARK    9  A    between atoms: C_29  and  C_30
REMARK   10  A    between atoms: C_32  and  O_33
REMARK                            x       y       z     vdW  Elec       q    Type
REMARK                         _______ _______ _______ _____ _____    ______ ____
ROOT
ATOM      1  C   UNL A   1      -3.338  -1.030   0.143  0.00  0.00    -0.010 C 
ATOM      2  C   UNL A   1      -3.812   0.107  -0.788  0.00  0.00    -0.045 C 
ATOM      3  C   UNL A   1      -2.714   1.164  -0.768  0.00  0.00    -0.044 C 
ATOM      4  C   UNL A   1      -1.837   0.838   0.457  0.00  0.00    -0.002 C 
ATOM      5  C   UNL A   1      -2.527   1.407   1.730  0.00  0.00    -0.057 C 
ATOM      6  C   UNL A   1      -1.820  -0.724   0.469  0.00  0.00    -0.023 C 
ATOM      7  C   UNL A   1      -0.778  -1.365  -0.510  0.00  0.00    -0.031 C 
ATOM      8  C   UNL A   1      -0.628  -2.884  -0.310  0.00  0.00    -0.049 C 
ATOM      9  C   UNL A   1       0.244  -3.296   0.860  0.00  0.00    -0.049 C 
ATOM     10  C   UNL A   1       1.690  -2.779   0.816  0.00  0.00    -0.029 C 
ATOM     11  C   UNL A   1       2.775  -3.782   0.189  0.00  0.00    -0.025 C 
ATOM     12  C   UNL A   1       2.381  -4.287  -1.213  0.00  0.00    -0.059 C 
ATOM     13  C   UNL A   1       2.871  -5.049   1.104  0.00  0.00    -0.045 C 
ATOM     14  C   UNL A   1       4.050  -5.965   0.784  0.00  0.00    -0.026 C 
ATOM     15  C   UNL A   1       5.386  -5.233   0.830  0.00  0.00    +0.061 C 
ATOM     16  C   UNL A   1       5.441  -3.957  -0.063  0.00  0.00    -0.006 C 
ATOM     17  C   UNL A   1       6.720  -3.167   0.345  0.00  0.00    -0.057 C 
ATOM     18  C   UNL A   1       5.627  -4.313  -1.552  0.00  0.00    -0.057 C 
ATOM     19  C   UNL A   1       4.171  -3.071   0.234  0.00  0.00    -0.028 C 
ATOM     20  C   UNL A   1       4.104  -1.757  -0.555  0.00  0.00    -0.049 C 
ATOM     21  C   UNL A   1       3.199  -0.757   0.155  0.00  0.00    -0.047 C 
ATOM     22  C   UNL A   1       1.741  -1.220   0.491  0.00  0.00    -0.023 C 
ATOM     23  C   UNL A   1       1.452  -0.522   1.864  0.00  0.00    -0.059 C 
ATOM     24  C   UNL A   1       0.651  -0.695  -0.614  0.00  0.00    -0.021 C 
ATOM     25  C   UNL A   1       1.164  -1.021  -2.053  0.00  0.00    -0.059 C 
ATOM     26  C   UNL A   1       0.489   0.858  -0.644  0.00  0.00    -0.020 C 
ATOM     27  C   UNL A   1      -0.450   1.488   0.375  0.00  0.00    +0.061 C 
ENDROOT
BRANCH   1  29
ATOM     28  C   UNL A   1      -4.427  -3.242   0.584  0.00  0.00    -0.092 C 
ATOM     29  C   UNL A   1      -3.822  -2.398  -0.271  0.00  0.00    -0.012 C 
BRANCH  29  30
ATOM     30  C   UNL A   1      -3.692  -2.852  -1.689  0.00  0.00    +0.146 C 
ATOM     31  O   UNL A   1      -4.140  -3.912  -2.110  0.00  0.00    -0.296 OA
ENDBRANCH  29  30
ENDBRANCH   1  29
BRANCH  15  32
ATOM     32  O   UNL A   1       6.394  -6.177   0.470  0.00  0.00    -0.391 OA
ATOM     33  H   UNL A   1       6.229  -6.499  -0.430  0.00  0.00    +0.000 HD
ENDBRANCH  15  32
BRANCH  27  34
ATOM     34  O   UNL A   1      -0.597   2.875   0.043  0.00  0.00    -0.391 OA
ATOM     35  H   UNL A   1      -1.001   2.956  -0.835  0.00  0.00    +0.000 HD
ENDBRANCH  27  34
TORSDOF 4
