MODEL 1
REMARK VINA RESULT:    -8.684      0.000      0.000
REMARK INTER + INTRA:         -10.152
REMARK INTER:                  -9.953
REMARK INTRA:                  -0.199
REMARK UNBOUND:                -0.199
REMARK  Name = cpd322.pdb
REMARK  4 active torsions:
REMARK  status: ('A' for Active; 'I' for Inactive)
REMARK    1  A    between atoms: C_1  and  O_2
REMARK    2  A    between atoms: O_2  and  C_3
REMARK    3  A    between atoms: C_12  and  O_13
REMARK    4  A    between atoms: N_22  and  C_23
REMARK                            x       y       z     vdW  Elec       q    Type
REMARK                         _______ _______ _______ _____ _____    ______ ____
ROOT
ATOM      1  C   UNL A   1      31.643 -32.493 -28.956  0.00  0.00    +0.162 A 
ATOM      2  C   UNL A   1      32.345 -31.567 -29.722  0.00  0.00    -0.016 A 
ATOM      3  C   UNL A   1      33.450 -31.971 -30.495  0.00  0.00    -0.053 A 
ATOM      4  C   UNL A   1      33.914 -33.302 -30.493  0.00  0.00    -0.022 A 
ATOM      5  C   UNL A   1      33.243 -34.197 -29.664  0.00  0.00    +0.016 A 
ATOM      6  C   UNL A   1      32.108 -33.801 -28.960  0.00  0.00    +0.167 A 
ATOM      7  O   UNL A   1      31.464 -34.835 -28.327  0.00  0.00    -0.484 OA
ATOM      8  C   UNL A   1      32.095 -36.040 -28.845  0.00  0.00    +0.116 C 
ATOM      9  C   UNL A   1      32.092 -37.057 -27.692  0.00  0.00    +0.015 C 
ATOM     10  C   UNL A   1      33.369 -37.882 -27.581  0.00  0.00    +0.077 C 
ATOM     11  C   UNL A   1      34.562 -36.985 -27.615  0.00  0.00    -0.059 C 
ATOM     12  C   UNL A   1      34.605 -35.928 -28.439  0.00  0.00    -0.071 C 
ATOM     13  C   UNL A   1      33.490 -35.655 -29.434  0.00  0.00    +0.056 C 
ATOM     14  C   UNL A   1      33.746 -36.350 -30.785  0.00  0.00    -0.020 C 
ATOM     15  C   UNL A   1      35.172 -36.186 -31.320  0.00  0.00    +0.018 C 
ATOM     16  N   UNL A   1      35.790 -34.863 -31.149  0.00  0.00    -0.281 N 
ATOM     17  C   UNL A   1      37.177 -34.703 -31.241  0.00  0.00    +0.303 C 
ATOM     18  O   UNL A   1      37.723 -33.653 -31.568  0.00  0.00    -0.253 OA
ATOM     19  N   UNL A   1      37.896 -35.835 -30.936  0.00  0.00    -0.296 N 
ATOM     20  C   UNL A   1      34.987 -33.689 -31.487  0.00  0.00    +0.042 C 
ATOM     21  H   UNL A   1      37.423 -36.640 -30.624  0.00  0.00    +0.000 HD
ENDROOT
BRANCH  19  22
ATOM     22  C   UNL A   1      39.351 -35.861 -31.066  0.00  0.00    +0.025 C 
ATOM     23  C   UNL A   1      39.929 -37.040 -30.261  0.00  0.00    -0.034 C 
ATOM     24  C   UNL A   1      41.278 -37.546 -30.780  0.00  0.00    -0.051 C 
ATOM     25  C   UNL A   1      42.068 -36.450 -31.478  0.00  0.00    -0.053 C 
ATOM     26  C   UNL A   1      41.311 -35.887 -32.682  0.00  0.00    -0.051 C 
ATOM     27  C   UNL A   1      39.789 -35.955 -32.535  0.00  0.00    -0.034 C 
ENDBRANCH  19  22
BRANCH   1  29
ATOM     28  C   UNL A   1      29.317 -32.001 -28.931  0.00  0.00    +0.079 C 
ATOM     29  O   UNL A   1      30.522 -32.241 -28.217  0.00  0.00    -0.491 OA
ENDBRANCH   1  29
BRANCH  10  30
ATOM     30  O   UNL A   1      33.390 -38.582 -26.344  0.00  0.00    -0.388 OA
ATOM     31  H   UNL A   1      34.289 -38.566 -25.978  0.00  0.00    +0.000 HD
ENDBRANCH  10  30
TORSDOF 3
ENDMDL
MODEL 2
REMARK VINA RESULT:    -8.617      3.019      7.424
REMARK INTER + INTRA:         -10.075
REMARK INTER:                  -9.768
REMARK INTRA:                  -0.307
REMARK UNBOUND:                -0.199
REMARK  Name = cpd322.pdb
REMARK  4 active torsions:
REMARK  status: ('A' for Active; 'I' for Inactive)
REMARK    1  A    between atoms: C_1  and  O_2
REMARK    2  A    between atoms: O_2  and  C_3
REMARK    3  A    between atoms: C_12  and  O_13
REMARK    4  A    between atoms: N_22  and  C_23
REMARK                            x       y       z     vdW  Elec       q    Type
REMARK                         _______ _______ _______ _____ _____    ______ ____
ROOT
ATOM      1  C   UNL A   1      39.998 -36.012 -31.067  0.00  0.00    +0.162 A 
ATOM      2  C   UNL A   1      39.768 -34.824 -31.757  0.00  0.00    -0.016 A 
ATOM      3  C   UNL A   1      38.485 -34.245 -31.772  0.00  0.00    -0.053 A 
ATOM      4  C   UNL A   1      37.384 -34.854 -31.136  0.00  0.00    -0.022 A 
ATOM      5  C   UNL A   1      37.619 -36.077 -30.514  0.00  0.00    +0.016 A 
ATOM      6  C   UNL A   1      38.907 -36.604 -30.445  0.00  0.00    +0.167 A 
ATOM      7  O   UNL A   1      39.003 -37.724 -29.656  0.00  0.00    -0.484 OA
ATOM      8  C   UNL A   1      37.723 -37.804 -28.968  0.00  0.00    +0.116 C 
ATOM      9  C   UNL A   1      37.421 -39.302 -28.795  0.00  0.00    +0.015 C 
ATOM     10  C   UNL A   1      35.961 -39.677 -29.022  0.00  0.00    +0.077 C 
ATOM     11  C   UNL A   1      35.476 -39.089 -30.307  0.00  0.00    -0.059 C 
ATOM     12  C   UNL A   1      35.839 -37.853 -30.677  0.00  0.00    -0.071 C 
ATOM     13  C   UNL A   1      36.675 -36.968 -29.770  0.00  0.00    +0.056 C 
ATOM     14  C   UNL A   1      35.797 -36.114 -28.835  0.00  0.00    -0.020 C 
ATOM     15  C   UNL A   1      34.615 -35.429 -29.529  0.00  0.00    +0.018 C 
ATOM     16  N   UNL A   1      34.872 -34.867 -30.862  0.00  0.00    -0.281 N 
ATOM     17  C   UNL A   1      33.816 -34.572 -31.731  0.00  0.00    +0.303 C 
ATOM     18  O   UNL A   1      33.875 -33.719 -32.613  0.00  0.00    -0.253 OA
ATOM     19  N   UNL A   1      32.682 -35.320 -31.515  0.00  0.00    -0.296 N 
ATOM     20  C   UNL A   1      36.089 -34.078 -31.044  0.00  0.00    +0.042 C 
ATOM     21  H   UNL A   1      32.694 -36.032 -30.835  0.00  0.00    +0.000 HD
ENDROOT
BRANCH  19  22
ATOM     22  C   UNL A   1      31.462 -35.077 -32.279  0.00  0.00    +0.025 C 
ATOM     23  C   UNL A   1      31.389 -36.043 -33.476  0.00  0.00    -0.034 C 
ATOM     24  C   UNL A   1      29.965 -36.324 -33.965  0.00  0.00    -0.051 C 
ATOM     25  C   UNL A   1      29.025 -35.163 -33.677  0.00  0.00    -0.053 C 
ATOM     26  C   UNL A   1      28.932 -34.870 -32.179  0.00  0.00    -0.051 C 
ATOM     27  C   UNL A   1      30.207 -35.217 -31.406  0.00  0.00    -0.034 C 
ENDBRANCH  19  22
BRANCH   1  29
ATOM     28  C   UNL A   1      42.360 -35.813 -30.881  0.00  0.00    +0.079 C 
ATOM     29  O   UNL A   1      41.203 -36.638 -30.925  0.00  0.00    -0.491 OA
ENDBRANCH   1  29
BRANCH  10  30
ATOM     30  O   UNL A   1      35.830 -41.089 -29.117  0.00  0.00    -0.388 OA
ATOM     31  H   UNL A   1      34.891 -41.330 -29.084  0.00  0.00    +0.000 HD
ENDBRANCH  10  30
TORSDOF 3
ENDMDL
MODEL 3
REMARK VINA RESULT:    -7.815      2.572      7.497
REMARK INTER + INTRA:          -9.156
REMARK INTER:                  -8.847
REMARK INTRA:                  -0.309
REMARK UNBOUND:                -0.199
REMARK  Name = cpd322.pdb
REMARK  4 active torsions:
REMARK  status: ('A' for Active; 'I' for Inactive)
REMARK    1  A    between atoms: C_1  and  O_2
REMARK    2  A    between atoms: O_2  and  C_3
REMARK    3  A    between atoms: C_12  and  O_13
REMARK    4  A    between atoms: N_22  and  C_23
REMARK                            x       y       z     vdW  Elec       q    Type
REMARK                         _______ _______ _______ _____ _____    ______ ____
ROOT
ATOM      1  C   UNL A   1      39.028 -35.597 -31.474  0.00  0.00    +0.162 A 
ATOM      2  C   UNL A   1      39.028 -34.278 -31.921  0.00  0.00    -0.016 A 
ATOM      3  C   UNL A   1      37.901 -33.458 -31.724  0.00  0.00    -0.053 A 
ATOM      4  C   UNL A   1      36.725 -33.940 -31.116  0.00  0.00    -0.022 A 
ATOM      5  C   UNL A   1      36.719 -35.281 -30.742  0.00  0.00    +0.016 A 
ATOM      6  C   UNL A   1      37.864 -36.063 -30.877  0.00  0.00    +0.167 A 
ATOM      7  O   UNL A   1      37.751 -37.308 -30.309  0.00  0.00    -0.484 OA
ATOM      8  C   UNL A   1      36.517 -37.255 -29.540  0.00  0.00    +0.116 C 
ATOM      9  C   UNL A   1      35.906 -38.665 -29.610  0.00  0.00    +0.015 C 
ATOM     10  C   UNL A   1      34.391 -38.684 -29.775  0.00  0.00    +0.077 C 
ATOM     11  C   UNL A   1      33.987 -37.776 -30.889  0.00  0.00    -0.059 C 
ATOM     12  C   UNL A   1      34.591 -36.592 -31.065  0.00  0.00    -0.071 C 
ATOM     13  C   UNL A   1      35.638 -36.086 -30.090  0.00  0.00    +0.056 C 
ATOM     14  C   UNL A   1      35.009 -35.266 -28.948  0.00  0.00    -0.020 C 
ATOM     15  C   UNL A   1      33.973 -34.235 -29.407  0.00  0.00    +0.018 C 
ATOM     16  N   UNL A   1      34.285 -33.493 -30.637  0.00  0.00    -0.281 N 
ATOM     17  C   UNL A   1      33.278 -32.828 -31.347  0.00  0.00    +0.303 C 
ATOM     18  O   UNL A   1      33.480 -31.854 -32.066  0.00  0.00    -0.253 OA
ATOM     19  N   UNL A   1      32.021 -33.357 -31.172  0.00  0.00    -0.296 N 
ATOM     20  C   UNL A   1      35.634 -32.948 -30.779  0.00  0.00    +0.042 C 
ATOM     21  H   UNL A   1      31.910 -34.173 -30.632  0.00  0.00    +0.000 HD
ENDROOT
BRANCH  19  22
ATOM     22  C   UNL A   1      30.849 -32.729 -31.774  0.00  0.00    +0.025 C 
ATOM     23  C   UNL A   1      29.925 -33.806 -32.375  0.00  0.00    -0.034 C 
ATOM     24  C   UNL A   1      28.456 -33.386 -32.467  0.00  0.00    -0.051 C 
ATOM     25  C   UNL A   1      28.301 -31.879 -32.605  0.00  0.00    -0.053 C 
ATOM     26  C   UNL A   1      28.902 -31.138 -31.409  0.00  0.00    -0.051 C 
ATOM     27  C   UNL A   1      30.077 -31.874 -30.759  0.00  0.00    -0.034 C 
ENDBRANCH  19  22
BRANCH   1  29
ATOM     28  C   UNL A   1      41.373 -35.948 -31.304  0.00  0.00    +0.079 C 
ATOM     29  O   UNL A   1      40.074 -36.471 -31.547  0.00  0.00    -0.491 OA
ENDBRANCH   1  29
BRANCH  10  30
ATOM     30  O   UNL A   1      33.954 -39.995 -30.106  0.00  0.00    -0.388 OA
ATOM     31  H   UNL A   1      33.101 -40.170 -29.679  0.00  0.00    +0.000 HD
ENDBRANCH  10  30
TORSDOF 3
ENDMDL
MODEL 4
REMARK VINA RESULT:    -7.657     16.329     19.997
REMARK INTER + INTRA:          -8.974
REMARK INTER:                  -8.642
REMARK INTRA:                  -0.332
REMARK UNBOUND:                -0.199
REMARK  Name = cpd322.pdb
REMARK  4 active torsions:
REMARK  status: ('A' for Active; 'I' for Inactive)
REMARK    1  A    between atoms: C_1  and  O_2
REMARK    2  A    between atoms: O_2  and  C_3
REMARK    3  A    between atoms: C_12  and  O_13
REMARK    4  A    between atoms: N_22  and  C_23
REMARK                            x       y       z     vdW  Elec       q    Type
REMARK                         _______ _______ _______ _____ _____    ______ ____
ROOT
ATOM      1  C   UNL A   1      46.356 -21.131 -41.311  0.00  0.00    +0.162 A 
ATOM      2  C   UNL A   1      45.270 -21.736 -41.940  0.00  0.00    -0.016 A 
ATOM      3  C   UNL A   1      43.979 -21.636 -41.388  0.00  0.00    -0.053 A 
ATOM      4  C   UNL A   1      43.738 -20.967 -40.171  0.00  0.00    -0.022 A 
ATOM      5  C   UNL A   1      44.847 -20.432 -39.521  0.00  0.00    +0.016 A 
ATOM      6  C   UNL A   1      46.108 -20.475 -40.113  0.00  0.00    +0.167 A 
ATOM      7  O   UNL A   1      47.061 -19.758 -39.432  0.00  0.00    -0.484 OA
ATOM      8  C   UNL A   1      46.315 -18.996 -38.442  0.00  0.00    +0.116 C 
ATOM      9  C   UNL A   1      47.225 -18.889 -37.207  0.00  0.00    +0.015 C 
ATOM     10  C   UNL A   1      46.496 -19.043 -35.876  0.00  0.00    +0.077 C 
ATOM     11  C   UNL A   1      45.630 -20.259 -35.906  0.00  0.00    -0.059 C 
ATOM     12  C   UNL A   1      44.936 -20.581 -37.007  0.00  0.00    -0.071 C 
ATOM     13  C   UNL A   1      44.927 -19.680 -38.229  0.00  0.00    +0.056 C 
ATOM     14  C   UNL A   1      43.788 -18.645 -38.170  0.00  0.00    -0.020 C 
ATOM     15  C   UNL A   1      42.430 -19.222 -37.758  0.00  0.00    +0.018 C 
ATOM     16  N   UNL A   1      42.078 -20.535 -38.316  0.00  0.00    -0.281 N 
ATOM     17  C   UNL A   1      41.075 -21.317 -37.731  0.00  0.00    +0.303 C 
ATOM     18  O   UNL A   1      40.415 -22.151 -38.344  0.00  0.00    -0.253 OA
ATOM     19  N   UNL A   1      40.879 -21.072 -36.392  0.00  0.00    -0.296 N 
ATOM     20  C   UNL A   1      42.303 -20.749 -39.744  0.00  0.00    +0.042 C 
ATOM     21  H   UNL A   1      41.467 -20.435 -35.924  0.00  0.00    +0.000 HD
ENDROOT
BRANCH  19  22
ATOM     22  C   UNL A   1      39.812 -21.742 -35.652  0.00  0.00    +0.025 C 
ATOM     23  C   UNL A   1      40.414 -22.785 -34.692  0.00  0.00    -0.034 C 
ATOM     24  C   UNL A   1      39.535 -23.093 -33.476  0.00  0.00    -0.051 C 
ATOM     25  C   UNL A   1      38.058 -22.876 -33.771  0.00  0.00    -0.053 C 
ATOM     26  C   UNL A   1      37.770 -21.429 -34.174  0.00  0.00    -0.051 C 
ATOM     27  C   UNL A   1      38.945 -20.742 -34.874  0.00  0.00    -0.034 C 
ENDBRANCH  19  22
BRANCH   1  29
ATOM     28  C   UNL A   1      48.276 -22.351 -42.000  0.00  0.00    +0.079 C 
ATOM     29  O   UNL A   1      47.640 -21.101 -41.776  0.00  0.00    -0.491 OA
ENDBRANCH   1  29
BRANCH  10  30
ATOM     30  O   UNL A   1      47.436 -19.209 -34.823  0.00  0.00    -0.388 OA
ATOM     31  H   UNL A   1      47.451 -20.139 -34.546  0.00  0.00    +0.000 HD
ENDBRANCH  10  30
TORSDOF 3
ENDMDL
MODEL 5
REMARK VINA RESULT:    -7.639      1.394      1.613
REMARK INTER + INTRA:          -8.954
REMARK INTER:                  -8.662
REMARK INTRA:                  -0.292
REMARK UNBOUND:                -0.199
REMARK  Name = cpd322.pdb
REMARK  4 active torsions:
REMARK  status: ('A' for Active; 'I' for Inactive)
REMARK    1  A    between atoms: C_1  and  O_2
REMARK    2  A    between atoms: O_2  and  C_3
REMARK    3  A    between atoms: C_12  and  O_13
REMARK    4  A    between atoms: N_22  and  C_23
REMARK                            x       y       z     vdW  Elec       q    Type
REMARK                         _______ _______ _______ _____ _____    ______ ____
ROOT
ATOM      1  C   UNL A   1      30.468 -31.830 -29.694  0.00  0.00    +0.162 A 
ATOM      2  C   UNL A   1      31.389 -30.906 -30.184  0.00  0.00    -0.016 A 
ATOM      3  C   UNL A   1      32.588 -31.340 -30.780  0.00  0.00    -0.053 A 
ATOM      4  C   UNL A   1      32.925 -32.706 -30.868  0.00  0.00    -0.022 A 
ATOM      5  C   UNL A   1      32.026 -33.609 -30.309  0.00  0.00    +0.016 A 
ATOM      6  C   UNL A   1      30.810 -33.172 -29.785  0.00  0.00    +0.167 A 
ATOM      7  O   UNL A   1      29.964 -34.194 -29.430  0.00  0.00    -0.484 OA
ATOM      8  C   UNL A   1      30.581 -35.394 -29.975  0.00  0.00    +0.116 C 
ATOM      9  C   UNL A   1      30.257 -36.529 -28.991  0.00  0.00    +0.015 C 
ATOM     10  C   UNL A   1      31.409 -37.499 -28.751  0.00  0.00    +0.077 C 
ATOM     11  C   UNL A   1      32.657 -36.742 -28.438  0.00  0.00    -0.059 C 
ATOM     12  C   UNL A   1      32.957 -35.609 -29.091  0.00  0.00    -0.071 C 
ATOM     13  C   UNL A   1      32.094 -35.102 -30.233  0.00  0.00    +0.056 C 
ATOM     14  C   UNL A   1      32.555 -35.662 -31.591  0.00  0.00    -0.020 C 
ATOM     15  C   UNL A   1      34.069 -35.598 -31.820  0.00  0.00    +0.018 C 
ATOM     16  N   UNL A   1      34.752 -34.381 -31.360  0.00  0.00    -0.281 N 
ATOM     17  C   UNL A   1      36.137 -34.367 -31.166  0.00  0.00    +0.303 C 
ATOM     18  O   UNL A   1      36.827 -33.353 -31.240  0.00  0.00    -0.253 OA
ATOM     19  N   UNL A   1      36.680 -35.599 -30.884  0.00  0.00    -0.296 N 
ATOM     20  C   UNL A   1      34.138 -33.094 -31.684  0.00  0.00    +0.042 C 
ATOM     21  H   UNL A   1      36.085 -36.377 -30.778  0.00  0.00    +0.000 HD
ENDROOT
BRANCH  19  22
ATOM     22  C   UNL A   1      38.123 -35.772 -30.740  0.00  0.00    +0.025 C 
ATOM     23  C   UNL A   1      38.418 -36.942 -29.782  0.00  0.00    -0.034 C 
ATOM     24  C   UNL A   1      39.778 -37.608 -30.014  0.00  0.00    -0.051 C 
ATOM     25  C   UNL A   1      40.792 -36.642 -30.607  0.00  0.00    -0.053 C 
ATOM     26  C   UNL A   1      40.329 -36.094 -31.957  0.00  0.00    -0.051 C 
ATOM     27  C   UNL A   1      38.806 -36.007 -32.094  0.00  0.00    -0.034 C 
ENDBRANCH  19  22
BRANCH   1  29
ATOM     28  C   UNL A   1      29.235 -30.963 -27.856  0.00  0.00    +0.079 C 
ATOM     29  O   UNL A   1      29.248 -31.540 -29.154  0.00  0.00    -0.491 OA
ENDBRANCH   1  29
BRANCH  10  30
ATOM     30  O   UNL A   1      31.119 -38.333 -27.638  0.00  0.00    -0.388 OA
ATOM     31  H   UNL A   1      31.007 -37.787 -26.844  0.00  0.00    +0.000 HD
ENDBRANCH  10  30
TORSDOF 3
ENDMDL
MODEL 6
REMARK VINA RESULT:    -7.333     16.488     18.637
REMARK INTER + INTRA:          -8.603
REMARK INTER:                  -8.294
REMARK INTRA:                  -0.309
REMARK UNBOUND:                -0.199
REMARK  Name = cpd322.pdb
REMARK  4 active torsions:
REMARK  status: ('A' for Active; 'I' for Inactive)
REMARK    1  A    between atoms: C_1  and  O_2
REMARK    2  A    between atoms: O_2  and  C_3
REMARK    3  A    between atoms: C_12  and  O_13
REMARK    4  A    between atoms: N_22  and  C_23
REMARK                            x       y       z     vdW  Elec       q    Type
REMARK                         _______ _______ _______ _____ _____    ______ ____
ROOT
ATOM      1  C   UNL A   1      41.237 -18.274 -33.039  0.00  0.00    +0.162 A 
ATOM      2  C   UNL A   1      42.363 -17.458 -33.113  0.00  0.00    -0.016 A 
ATOM      3  C   UNL A   1      43.101 -17.365 -34.308  0.00  0.00    -0.053 A 
ATOM      4  C   UNL A   1      42.763 -18.115 -35.452  0.00  0.00    -0.022 A 
ATOM      5  C   UNL A   1      41.678 -18.979 -35.336  0.00  0.00    +0.016 A 
ATOM      6  C   UNL A   1      40.913 -19.010 -34.171  0.00  0.00    +0.167 A 
ATOM      7  O   UNL A   1      39.783 -19.782 -34.274  0.00  0.00    -0.484 OA
ATOM      8  C   UNL A   1      39.676 -20.099 -35.690  0.00  0.00    +0.116 C 
ATOM      9  C   UNL A   1      39.069 -21.510 -35.771  0.00  0.00    +0.015 C 
ATOM     10  C   UNL A   1      39.683 -22.396 -36.849  0.00  0.00    +0.077 C 
ATOM     11  C   UNL A   1      41.173 -22.365 -36.749  0.00  0.00    -0.059 C 
ATOM     12  C   UNL A   1      41.820 -21.223 -36.475  0.00  0.00    -0.071 C 
ATOM     13  C   UNL A   1      41.079 -19.904 -36.350  0.00  0.00    +0.056 C 
ATOM     14  C   UNL A   1      40.972 -19.176 -37.704  0.00  0.00    -0.020 C 
ATOM     15  C   UNL A   1      42.278 -19.134 -38.504  0.00  0.00    +0.018 C 
ATOM     16  N   UNL A   1      43.509 -18.892 -37.739  0.00  0.00    -0.281 N 
ATOM     17  C   UNL A   1      44.761 -19.206 -38.278  0.00  0.00    +0.303 C 
ATOM     18  O   UNL A   1      45.805 -18.648 -37.952  0.00  0.00    -0.253 OA
ATOM     19  N   UNL A   1      44.733 -20.204 -39.224  0.00  0.00    -0.296 N 
ATOM     20  C   UNL A   1      43.492 -17.820 -36.745  0.00  0.00    +0.042 C 
ATOM     21  H   UNL A   1      43.884 -20.665 -39.417  0.00  0.00    +0.000 HD
ENDROOT
BRANCH  19  22
ATOM     22  C   UNL A   1      45.941 -20.592 -39.947  0.00  0.00    +0.025 C 
ATOM     23  C   UNL A   1      46.000 -22.125 -40.087  0.00  0.00    -0.034 C 
ATOM     24  C   UNL A   1      46.817 -22.610 -41.289  0.00  0.00    -0.051 C 
ATOM     25  C   UNL A   1      47.907 -21.620 -41.673  0.00  0.00    -0.053 C 
ATOM     26  C   UNL A   1      47.326 -20.258 -42.050  0.00  0.00    -0.051 C 
ATOM     27  C   UNL A   1      46.016 -19.929 -41.329  0.00  0.00    -0.034 C 
ENDBRANCH  19  22
BRANCH   1  29
ATOM     28  C   UNL A   1      39.443 -17.375 -31.765  0.00  0.00    +0.079 C 
ATOM     29  O   UNL A   1      40.405 -18.402 -31.964  0.00  0.00    -0.491 OA
ENDBRANCH   1  29
BRANCH  10  30
ATOM     30  O   UNL A   1      39.266 -23.742 -36.668  0.00  0.00    -0.388 OA
ATOM     31  H   UNL A   1      39.993 -24.340 -36.902  0.00  0.00    +0.000 HD
ENDBRANCH  10  30
TORSDOF 3
ENDMDL
MODEL 7
REMARK VINA RESULT:    -7.263     18.384     20.855
REMARK INTER + INTRA:          -8.523
REMARK INTER:                  -8.212
REMARK INTRA:                  -0.310
REMARK UNBOUND:                -0.199
REMARK  Name = cpd322.pdb
REMARK  4 active torsions:
REMARK  status: ('A' for Active; 'I' for Inactive)
REMARK    1  A    between atoms: C_1  and  O_2
REMARK    2  A    between atoms: O_2  and  C_3
REMARK    3  A    between atoms: C_12  and  O_13
REMARK    4  A    between atoms: N_22  and  C_23
REMARK                            x       y       z     vdW  Elec       q    Type
REMARK                         _______ _______ _______ _____ _____    ______ ____
ROOT
ATOM      1  C   UNL A   1      45.826 -21.674 -40.737  0.00  0.00    +0.162 A 
ATOM      2  C   UNL A   1      47.056 -21.374 -40.158  0.00  0.00    -0.016 A 
ATOM      3  C   UNL A   1      47.122 -20.843 -38.856  0.00  0.00    -0.053 A 
ATOM      4  C   UNL A   1      45.962 -20.555 -38.109  0.00  0.00    -0.022 A 
ATOM      5  C   UNL A   1      44.741 -20.794 -38.733  0.00  0.00    +0.016 A 
ATOM      6  C   UNL A   1      44.689 -21.386 -39.994  0.00  0.00    +0.167 A 
ATOM      7  O   UNL A   1      43.418 -21.712 -40.398  0.00  0.00    -0.484 OA
ATOM      8  C   UNL A   1      42.593 -21.530 -39.213  0.00  0.00    +0.116 C 
ATOM      9  C   UNL A   1      41.224 -21.042 -39.714  0.00  0.00    +0.015 C 
ATOM     10  C   UNL A   1      40.591 -19.957 -38.850  0.00  0.00    +0.077 C 
ATOM     11  C   UNL A   1      41.581 -18.870 -38.590  0.00  0.00    -0.059 C 
ATOM     12  C   UNL A   1      42.867 -19.156 -38.341  0.00  0.00    -0.071 C 
ATOM     13  C   UNL A   1      43.349 -20.590 -38.220  0.00  0.00    +0.056 C 
ATOM     14  C   UNL A   1      43.258 -21.106 -36.772  0.00  0.00    -0.020 C 
ATOM     15  C   UNL A   1      43.796 -20.131 -35.719  0.00  0.00    +0.018 C 
ATOM     16  N   UNL A   1      45.023 -19.401 -36.066  0.00  0.00    -0.281 N 
ATOM     17  C   UNL A   1      45.385 -18.238 -35.376  0.00  0.00    +0.303 C 
ATOM     18  O   UNL A   1      46.541 -17.842 -35.265  0.00  0.00    -0.253 OA
ATOM     19  N   UNL A   1      44.325 -17.562 -34.818  0.00  0.00    -0.296 N 
ATOM     20  C   UNL A   1      46.123 -20.162 -36.657  0.00  0.00    +0.042 C 
ATOM     21  H   UNL A   1      43.408 -17.882 -34.977  0.00  0.00    +0.000 HD
ENDROOT
BRANCH  19  22
ATOM     22  C   UNL A   1      44.539 -16.377 -33.992  0.00  0.00    +0.025 C 
ATOM     23  C   UNL A   1      43.537 -15.275 -34.384  0.00  0.00    -0.034 C 
ATOM     24  C   UNL A   1      43.234 -14.279 -33.261  0.00  0.00    -0.051 C 
ATOM     25  C   UNL A   1      44.397 -14.144 -32.290  0.00  0.00    -0.053 C 
ATOM     26  C   UNL A   1      44.735 -15.478 -31.624  0.00  0.00    -0.051 C 
ATOM     27  C   UNL A   1      44.418 -16.696 -32.495  0.00  0.00    -0.034 C 
ENDBRANCH  19  22
BRANCH   1  29
ATOM     28  C   UNL A   1      46.620 -23.166 -42.409  0.00  0.00    +0.079 C 
ATOM     29  O   UNL A   1      45.632 -22.248 -41.961  0.00  0.00    -0.491 OA
ENDBRANCH   1  29
BRANCH  10  30
ATOM     30  O   UNL A   1      39.484 -19.379 -39.528  0.00  0.00    -0.388 OA
ATOM     31  H   UNL A   1      38.693 -19.919 -39.375  0.00  0.00    +0.000 HD
ENDBRANCH  10  30
TORSDOF 3
ENDMDL
MODEL 8
REMARK VINA RESULT:    -7.203      2.573      4.462
REMARK INTER + INTRA:          -8.454
REMARK INTER:                  -8.157
REMARK INTRA:                  -0.297
REMARK UNBOUND:                -0.199
REMARK  Name = cpd322.pdb
REMARK  4 active torsions:
REMARK  status: ('A' for Active; 'I' for Inactive)
REMARK    1  A    between atoms: C_1  and  O_2
REMARK    2  A    between atoms: O_2  and  C_3
REMARK    3  A    between atoms: C_12  and  O_13
REMARK    4  A    between atoms: N_22  and  C_23
REMARK                            x       y       z     vdW  Elec       q    Type
REMARK                         _______ _______ _______ _____ _____    ______ ____
ROOT
ATOM      1  C   UNL A   1      28.930 -35.895 -31.467  0.00  0.00    +0.162 A 
ATOM      2  C   UNL A   1      29.379 -37.186 -31.731  0.00  0.00    -0.016 A 
ATOM      3  C   UNL A   1      30.696 -37.564 -31.409  0.00  0.00    -0.053 A 
ATOM      4  C   UNL A   1      31.618 -36.655 -30.854  0.00  0.00    -0.022 A 
ATOM      5  C   UNL A   1      31.173 -35.350 -30.664  0.00  0.00    +0.016 A 
ATOM      6  C   UNL A   1      29.847 -35.006 -30.920  0.00  0.00    +0.167 A 
ATOM      7  O   UNL A   1      29.521 -33.732 -30.523  0.00  0.00    -0.484 OA
ATOM      8  C   UNL A   1      30.660 -33.285 -29.736  0.00  0.00    +0.116 C 
ATOM      9  C   UNL A   1      30.789 -31.774 -29.986  0.00  0.00    +0.015 C 
ATOM     10  C   UNL A   1      32.225 -31.282 -30.130  0.00  0.00    +0.077 C 
ATOM     11  C   UNL A   1      32.963 -32.138 -31.106  0.00  0.00    -0.059 C 
ATOM     12  C   UNL A   1      32.782 -33.467 -31.129  0.00  0.00    -0.071 C 
ATOM     13  C   UNL A   1      31.898 -34.163 -30.110  0.00  0.00    +0.056 C 
ATOM     14  C   UNL A   1      32.690 -34.587 -28.859  0.00  0.00    -0.020 C 
ATOM     15  C   UNL A   1      34.027 -35.272 -29.160  0.00  0.00    +0.018 C 
ATOM     16  N   UNL A   1      34.041 -36.220 -30.283  0.00  0.00    -0.281 N 
ATOM     17  C   UNL A   1      35.247 -36.603 -30.882  0.00  0.00    +0.303 C 
ATOM     18  O   UNL A   1      35.410 -37.670 -31.466  0.00  0.00    -0.253 OA
ATOM     19  N   UNL A   1      36.255 -35.676 -30.761  0.00  0.00    -0.296 N 
ATOM     20  C   UNL A   1      32.949 -37.188 -30.370  0.00  0.00    +0.042 C 
ATOM     21  H   UNL A   1      36.068 -34.808 -30.334  0.00  0.00    +0.000 HD
ENDROOT
BRANCH  19  22
ATOM     22  C   UNL A   1      37.600 -35.957 -31.256  0.00  0.00    +0.025 C 
ATOM     23  C   UNL A   1      38.269 -34.653 -31.730  0.00  0.00    -0.034 C 
ATOM     24  C   UNL A   1      39.799 -34.684 -31.682  0.00  0.00    -0.051 C 
ATOM     25  C   UNL A   1      40.346 -36.095 -31.842  0.00  0.00    -0.053 C 
ATOM     26  C   UNL A   1      39.846 -37.023 -30.734  0.00  0.00    -0.051 C 
ATOM     27  C   UNL A   1      38.468 -36.641 -30.190  0.00  0.00    -0.034 C 
ENDBRANCH  19  22
BRANCH   1  29
ATOM     28  C   UNL A   1      26.591 -36.236 -31.215  0.00  0.00    +0.079 C 
ATOM     29  O   UNL A   1      27.665 -35.425 -31.672  0.00  0.00    -0.491 OA
ENDBRANCH   1  29
BRANCH  10  30
ATOM     30  O   UNL A   1      32.237 -29.952 -30.629  0.00  0.00    -0.388 OA
ATOM     31  H   UNL A   1      33.000 -29.476 -30.265  0.00  0.00    +0.000 HD
ENDBRANCH  10  30
TORSDOF 3
ENDMDL
MODEL 9
REMARK VINA RESULT:    -7.096     21.548     24.465
REMARK INTER + INTRA:          -8.331
REMARK INTER:                  -8.000
REMARK INTRA:                  -0.331
REMARK UNBOUND:                -0.199
REMARK  Name = cpd322.pdb
REMARK  4 active torsions:
REMARK  status: ('A' for Active; 'I' for Inactive)
REMARK    1  A    between atoms: C_1  and  O_2
REMARK    2  A    between atoms: O_2  and  C_3
REMARK    3  A    between atoms: C_12  and  O_13
REMARK    4  A    between atoms: N_22  and  C_23
REMARK                            x       y       z     vdW  Elec       q    Type
REMARK                         _______ _______ _______ _____ _____    ______ ____
ROOT
ATOM      1  C   UNL A   1      46.587 -18.979 -36.218  0.00  0.00    +0.162 A 
ATOM      2  C   UNL A   1      47.180 -17.809 -35.753  0.00  0.00    -0.016 A 
ATOM      3  C   UNL A   1      47.424 -16.735 -36.629  0.00  0.00    -0.053 A 
ATOM      4  C   UNL A   1      47.124 -16.811 -38.004  0.00  0.00    -0.022 A 
ATOM      5  C   UNL A   1      46.598 -18.015 -38.463  0.00  0.00    +0.016 A 
ATOM      6  C   UNL A   1      46.295 -19.045 -37.574  0.00  0.00    +0.167 A 
ATOM      7  O   UNL A   1      45.628 -20.095 -38.154  0.00  0.00    -0.484 OA
ATOM      8  C   UNL A   1      45.261 -19.617 -39.479  0.00  0.00    +0.116 C 
ATOM      9  C   UNL A   1      45.321 -20.840 -40.410  0.00  0.00    +0.015 C 
ATOM     10  C   UNL A   1      45.913 -20.551 -41.785  0.00  0.00    +0.077 C 
ATOM     11  C   UNL A   1      47.204 -19.815 -41.642  0.00  0.00    -0.059 C 
ATOM     12  C   UNL A   1      47.349 -18.855 -40.718  0.00  0.00    -0.071 C 
ATOM     13  C   UNL A   1      46.187 -18.413 -39.846  0.00  0.00    +0.056 C 
ATOM     14  C   UNL A   1      45.390 -17.264 -40.493  0.00  0.00    -0.020 C 
ATOM     15  C   UNL A   1      46.258 -16.139 -41.067  0.00  0.00    +0.018 C 
ATOM     16  N   UNL A   1      47.431 -15.744 -40.274  0.00  0.00    -0.281 N 
ATOM     17  C   UNL A   1      48.480 -15.025 -40.857  0.00  0.00    +0.303 C 
ATOM     18  O   UNL A   1      49.230 -14.282 -40.229  0.00  0.00    -0.253 OA
ATOM     19  N   UNL A   1      48.608 -15.214 -42.213  0.00  0.00    -0.296 N 
ATOM     20  C   UNL A   1      47.246 -15.554 -38.836  0.00  0.00    +0.042 C 
ATOM     21  H   UNL A   1      48.023 -15.861 -42.669  0.00  0.00    +0.000 HD
ENDROOT
BRANCH  19  22
ATOM     22  C   UNL A   1      49.599 -14.471 -42.987  0.00  0.00    +0.025 C 
ATOM     23  C   UNL A   1      50.557 -15.450 -43.692  0.00  0.00    -0.034 C 
ATOM     24  C   UNL A   1      51.205 -14.884 -44.959  0.00  0.00    -0.051 C 
ATOM     25  C   UNL A   1      51.333 -13.369 -44.906  0.00  0.00    -0.053 C 
ATOM     26  C   UNL A   1      49.969 -12.693 -44.763  0.00  0.00    -0.051 C 
ATOM     27  C   UNL A   1      48.938 -13.542 -44.016  0.00  0.00    -0.034 C 
ENDBRANCH  19  22
BRANCH   1  29
ATOM     28  C   UNL A   1      45.065 -19.951 -34.672  0.00  0.00    +0.079 C 
ATOM     29  O   UNL A   1      46.241 -20.062 -35.461  0.00  0.00    -0.491 OA
ENDBRANCH   1  29
BRANCH  10  30
ATOM     30  O   UNL A   1      46.184 -21.771 -42.463  0.00  0.00    -0.388 OA
ATOM     31  H   UNL A   1      46.496 -22.433 -41.826  0.00  0.00    +0.000 HD
ENDBRANCH  10  30
TORSDOF 3
ENDMDL
MODEL 10
REMARK VINA RESULT:    -7.023     14.684     16.657
REMARK INTER + INTRA:          -8.248
REMARK INTER:                  -7.918
REMARK INTRA:                  -0.330
REMARK UNBOUND:                -0.199
REMARK  Name = cpd322.pdb
REMARK  4 active torsions:
REMARK  status: ('A' for Active; 'I' for Inactive)
REMARK    1  A    between atoms: C_1  and  O_2
REMARK    2  A    between atoms: O_2  and  C_3
REMARK    3  A    between atoms: C_12  and  O_13
REMARK    4  A    between atoms: N_22  and  C_23
REMARK                            x       y       z     vdW  Elec       q    Type
REMARK                         _______ _______ _______ _____ _____    ______ ____
ROOT
ATOM      1  C   UNL A   1      36.367 -19.105 -34.805  0.00  0.00    +0.162 A 
ATOM      2  C   UNL A   1      36.476 -18.239 -35.890  0.00  0.00    -0.016 A 
ATOM      3  C   UNL A   1      37.413 -18.486 -36.910  0.00  0.00    -0.053 A 
ATOM      4  C   UNL A   1      38.300 -19.580 -36.859  0.00  0.00    -0.022 A 
ATOM      5  C   UNL A   1      38.225 -20.393 -35.731  0.00  0.00    +0.016 A 
ATOM      6  C   UNL A   1      37.246 -20.180 -34.763  0.00  0.00    +0.167 A 
ATOM      7  O   UNL A   1      37.193 -21.163 -33.806  0.00  0.00    -0.484 OA
ATOM      8  C   UNL A   1      38.052 -22.222 -34.313  0.00  0.00    +0.116 C 
ATOM      9  C   UNL A   1      38.705 -22.873 -33.083  0.00  0.00    +0.015 C 
ATOM     10  C   UNL A   1      40.173 -23.238 -33.271  0.00  0.00    +0.077 C 
ATOM     11  C   UNL A   1      40.922 -22.072 -33.827  0.00  0.00    -0.059 C 
ATOM     12  C   UNL A   1      40.376 -21.290 -34.770  0.00  0.00    -0.071 C 
ATOM     13  C   UNL A   1      39.021 -21.611 -35.376  0.00  0.00    +0.056 C 
ATOM     14  C   UNL A   1      39.147 -22.517 -36.615  0.00  0.00    -0.020 C 
ATOM     15  C   UNL A   1      40.234 -22.087 -37.605  0.00  0.00    +0.018 C 
ATOM     16  N   UNL A   1      40.369 -20.644 -37.847  0.00  0.00    -0.281 N 
ATOM     17  C   UNL A   1      41.537 -20.117 -38.410  0.00  0.00    +0.303 C 
ATOM     18  O   UNL A   1      41.574 -19.071 -39.051  0.00  0.00    -0.253 OA
ATOM     19  N   UNL A   1      42.661 -20.878 -38.188  0.00  0.00    -0.296 N 
ATOM     20  C   UNL A   1      39.146 -19.877 -38.077  0.00  0.00    +0.042 C 
ATOM     21  H   UNL A   1      42.600 -21.680 -37.621  0.00  0.00    +0.000 HD
ENDROOT
BRANCH  19  22
ATOM     22  C   UNL A   1      43.945 -20.513 -38.781  0.00  0.00    +0.025 C 
ATOM     23  C   UNL A   1      45.029 -20.448 -37.688  0.00  0.00    -0.034 C 
ATOM     24  C   UNL A   1      46.450 -20.690 -38.204  0.00  0.00    -0.051 C 
ATOM     25  C   UNL A   1      46.605 -20.279 -39.661  0.00  0.00    -0.053 C 
ATOM     26  C   UNL A   1      45.661 -21.065 -40.572  0.00  0.00    -0.051 C 
ATOM     27  C   UNL A   1      44.363 -21.496 -39.884  0.00  0.00    -0.034 C 
ENDBRANCH  19  22
BRANCH   1  29
ATOM     28  C   UNL A   1      35.744 -18.082 -32.752  0.00  0.00    +0.079 C 
ATOM     29  O   UNL A   1      35.460 -19.012 -33.789  0.00  0.00    -0.491 OA
ENDBRANCH   1  29
BRANCH  10  30
ATOM     30  O   UNL A   1      40.757 -23.568 -32.018  0.00  0.00    -0.388 OA
ATOM     31  H   UNL A   1      41.601 -24.025 -32.165  0.00  0.00    +0.000 HD
ENDBRANCH  10  30
TORSDOF 3
ENDMDL
MODEL 11
REMARK VINA RESULT:    -6.829     17.432     20.652
REMARK INTER + INTRA:          -8.026
REMARK INTER:                  -7.717
REMARK INTRA:                  -0.309
REMARK UNBOUND:                -0.199
REMARK  Name = cpd322.pdb
REMARK  4 active torsions:
REMARK  status: ('A' for Active; 'I' for Inactive)
REMARK    1  A    between atoms: C_1  and  O_2
REMARK    2  A    between atoms: O_2  and  C_3
REMARK    3  A    between atoms: C_12  and  O_13
REMARK    4  A    between atoms: N_22  and  C_23
REMARK                            x       y       z     vdW  Elec       q    Type
REMARK                         _______ _______ _______ _____ _____    ______ ____
ROOT
ATOM      1  C   UNL A   1      46.506 -15.728 -37.569  0.00  0.00    +0.162 A 
ATOM      2  C   UNL A   1      45.738 -15.087 -36.601  0.00  0.00    -0.016 A 
ATOM      3  C   UNL A   1      44.968 -15.835 -35.690  0.00  0.00    -0.053 A 
ATOM      4  C   UNL A   1      44.908 -17.242 -35.744  0.00  0.00    -0.022 A 
ATOM      5  C   UNL A   1      45.626 -17.860 -36.764  0.00  0.00    +0.016 A 
ATOM      6  C   UNL A   1      46.440 -17.114 -37.615  0.00  0.00    +0.167 A 
ATOM      7  O   UNL A   1      47.211 -17.882 -38.452  0.00  0.00    -0.484 OA
ATOM      8  C   UNL A   1      47.061 -19.241 -37.955  0.00  0.00    +0.116 C 
ATOM      9  C   UNL A   1      47.123 -20.159 -39.186  0.00  0.00    +0.015 C 
ATOM     10  C   UNL A   1      46.135 -21.320 -39.152  0.00  0.00    +0.077 C 
ATOM     11  C   UNL A   1      44.769 -20.819 -38.818  0.00  0.00    -0.059 C 
ATOM     12  C   UNL A   1      44.594 -19.861 -37.897  0.00  0.00    -0.071 C 
ATOM     13  C   UNL A   1      45.760 -19.314 -37.093  0.00  0.00    +0.056 C 
ATOM     14  C   UNL A   1      45.985 -20.112 -35.795  0.00  0.00    -0.020 C 
ATOM     15  C   UNL A   1      44.706 -20.403 -35.002  0.00  0.00    +0.018 C 
ATOM     16  N   UNL A   1      43.719 -19.317 -34.927  0.00  0.00    -0.281 N 
ATOM     17  C   UNL A   1      42.390 -19.580 -34.576  0.00  0.00    +0.303 C 
ATOM     18  O   UNL A   1      41.646 -18.754 -34.054  0.00  0.00    -0.253 OA
ATOM     19  N   UNL A   1      41.974 -20.859 -34.861  0.00  0.00    -0.296 N 
ATOM     20  C   UNL A   1      44.208 -17.973 -34.620  0.00  0.00    +0.042 C 
ATOM     21  H   UNL A   1      42.584 -21.473 -35.331  0.00  0.00    +0.000 HD
ENDROOT
BRANCH  19  22
ATOM     22  C   UNL A   1      40.642 -21.321 -34.479  0.00  0.00    +0.025 C 
ATOM     23  C   UNL A   1      40.094 -22.285 -35.548  0.00  0.00    -0.034 C 
ATOM     24  C   UNL A   1      39.057 -23.279 -35.018  0.00  0.00    -0.051 C 
ATOM     25  C   UNL A   1      38.300 -22.727 -33.819  0.00  0.00    -0.053 C 
ATOM     26  C   UNL A   1      39.241 -22.403 -32.658  0.00  0.00    -0.051 C 
ATOM     27  C   UNL A   1      40.649 -22.002 -33.104  0.00  0.00    -0.034 C 
ENDBRANCH  19  22
BRANCH   1  29
ATOM     28  C   UNL A   1      48.231 -14.139 -37.957  0.00  0.00    +0.079 C 
ATOM     29  O   UNL A   1      47.340 -15.122 -38.465  0.00  0.00    -0.491 OA
ENDBRANCH   1  29
BRANCH  10  30
ATOM     30  O   UNL A   1      46.068 -21.939 -40.429  0.00  0.00    -0.388 OA
ATOM     31  H   UNL A   1      46.673 -21.489 -41.040  0.00  0.00    +0.000 HD
ENDBRANCH  10  30
TORSDOF 3
ENDMDL
MODEL 12
REMARK VINA RESULT:    -6.735     18.381     21.737
REMARK INTER + INTRA:          -7.918
REMARK INTER:                  -7.857
REMARK INTRA:                  -0.060
REMARK UNBOUND:                -0.199
REMARK  Name = cpd322.pdb
REMARK  4 active torsions:
REMARK  status: ('A' for Active; 'I' for Inactive)
REMARK    1  A    between atoms: C_1  and  O_2
REMARK    2  A    between atoms: O_2  and  C_3
REMARK    3  A    between atoms: C_12  and  O_13
REMARK    4  A    between atoms: N_22  and  C_23
REMARK                            x       y       z     vdW  Elec       q    Type
REMARK                         _______ _______ _______ _____ _____    ______ ____
ROOT
ATOM      1  C   UNL A   1      47.316 -16.154 -40.396  0.00  0.00    +0.162 A 
ATOM      2  C   UNL A   1      47.083 -15.340 -39.290  0.00  0.00    -0.016 A 
ATOM      3  C   UNL A   1      46.548 -15.880 -38.105  0.00  0.00    -0.053 A 
ATOM      4  C   UNL A   1      46.190 -17.239 -38.002  0.00  0.00    -0.022 A 
ATOM      5  C   UNL A   1      46.362 -18.021 -39.140  0.00  0.00    +0.016 A 
ATOM      6  C   UNL A   1      46.958 -17.491 -40.283  0.00  0.00    +0.167 A 
ATOM      7  O   UNL A   1      47.213 -18.427 -41.255  0.00  0.00    -0.484 OA
ATOM      8  C   UNL A   1      46.976 -19.709 -40.609  0.00  0.00    +0.116 C 
ATOM      9  C   UNL A   1      46.414 -20.640 -41.695  0.00  0.00    +0.015 C 
ATOM     10  C   UNL A   1      45.288 -21.551 -41.218  0.00  0.00    +0.077 C 
ATOM     11  C   UNL A   1      44.258 -20.752 -40.491  0.00  0.00    -0.059 C 
ATOM     12  C   UNL A   1      44.616 -19.761 -39.661  0.00  0.00    -0.071 C 
ATOM     13  C   UNL A   1      46.075 -19.474 -39.355  0.00  0.00    +0.056 C 
ATOM     14  C   UNL A   1      46.575 -20.278 -38.140  0.00  0.00    -0.020 C 
ATOM     15  C   UNL A   1      45.626 -20.261 -36.937  0.00  0.00    +0.018 C 
ATOM     16  N   UNL A   1      44.970 -18.981 -36.636  0.00  0.00    -0.281 N 
ATOM     17  C   UNL A   1      43.825 -18.934 -35.832  0.00  0.00    +0.303 C 
ATOM     18  O   UNL A   1      43.496 -17.954 -35.170  0.00  0.00    -0.253 OA
ATOM     19  N   UNL A   1      43.086 -20.094 -35.836  0.00  0.00    -0.296 N 
ATOM     20  C   UNL A   1      45.796 -17.775 -36.643  0.00  0.00    +0.042 C 
ATOM     21  H   UNL A   1      43.353 -20.837 -36.424  0.00  0.00    +0.000 HD
ENDROOT
BRANCH  19  22
ATOM     22  C   UNL A   1      41.909 -20.240 -34.984  0.00  0.00    +0.025 C 
ATOM     23  C   UNL A   1      41.154 -21.533 -35.347  0.00  0.00    -0.034 C 
ATOM     24  C   UNL A   1      40.321 -22.111 -34.199  0.00  0.00    -0.051 C 
ATOM     25  C   UNL A   1      39.861 -21.033 -33.229  0.00  0.00    -0.053 C 
ATOM     26  C   UNL A   1      41.045 -20.301 -32.596  0.00  0.00    -0.051 C 
ATOM     27  C   UNL A   1      42.282 -20.244 -33.495  0.00  0.00    -0.034 C 
ENDBRANCH  19  22
BRANCH   1  29
ATOM     28  C   UNL A   1      47.722 -14.408 -41.956  0.00  0.00    +0.079 C 
ATOM     29  O   UNL A   1      47.886 -15.766 -41.574  0.00  0.00    -0.491 OA
ENDBRANCH   1  29
BRANCH  10  30
ATOM     30  O   UNL A   1      44.652 -22.163 -42.332  0.00  0.00    -0.388 OA
ATOM     31  H   UNL A   1      44.774 -21.609 -43.119  0.00  0.00    +0.000 HD
ENDBRANCH  10  30
TORSDOF 3
ENDMDL
MODEL 13
REMARK VINA RESULT:    -6.734     27.330     32.818
REMARK INTER + INTRA:          -7.917
REMARK INTER:                  -7.580
REMARK INTRA:                  -0.337
REMARK UNBOUND:                -0.199
REMARK  Name = cpd322.pdb
REMARK  4 active torsions:
REMARK  status: ('A' for Active; 'I' for Inactive)
REMARK    1  A    between atoms: C_1  and  O_2
REMARK    2  A    between atoms: O_2  and  C_3
REMARK    3  A    between atoms: C_12  and  O_13
REMARK    4  A    between atoms: N_22  and  C_23
REMARK                            x       y       z     vdW  Elec       q    Type
REMARK                         _______ _______ _______ _____ _____    ______ ____
ROOT
ATOM      1  C   UNL A   1      60.509 -33.207 -55.838  0.00  0.00    +0.162 A 
ATOM      2  C   UNL A   1      61.134 -34.336 -55.316  0.00  0.00    -0.016 A 
ATOM      3  C   UNL A   1      60.427 -35.223 -54.482  0.00  0.00    -0.053 A 
ATOM      4  C   UNL A   1      59.088 -34.987 -54.110  0.00  0.00    -0.022 A 
ATOM      5  C   UNL A   1      58.504 -33.816 -54.583  0.00  0.00    +0.016 A 
ATOM      6  C   UNL A   1      59.191 -32.984 -55.465  0.00  0.00    +0.167 A 
ATOM      7  O   UNL A   1      58.422 -31.966 -55.973  0.00  0.00    -0.484 OA
ATOM      8  C   UNL A   1      57.062 -32.290 -55.572  0.00  0.00    +0.116 C 
ATOM      9  C   UNL A   1      56.355 -30.948 -55.323  0.00  0.00    +0.015 C 
ATOM     10  C   UNL A   1      55.430 -30.941 -54.111  0.00  0.00    +0.077 C 
ATOM     11  C   UNL A   1      56.141 -31.498 -52.923  0.00  0.00    -0.059 C 
ATOM     12  C   UNL A   1      56.959 -32.554 -53.043  0.00  0.00    -0.071 C 
ATOM     13  C   UNL A   1      57.123 -33.281 -54.366  0.00  0.00    +0.056 C 
ATOM     14  C   UNL A   1      56.102 -34.425 -54.520  0.00  0.00    -0.020 C 
ATOM     15  C   UNL A   1      55.959 -35.316 -53.282  0.00  0.00    +0.018 C 
ATOM     16  N   UNL A   1      57.199 -35.652 -52.568  0.00  0.00    -0.281 N 
ATOM     17  C   UNL A   1      57.162 -36.119 -51.250  0.00  0.00    +0.303 C 
ATOM     18  O   UNL A   1      58.030 -36.831 -50.753  0.00  0.00    -0.253 OA
ATOM     19  N   UNL A   1      56.056 -35.715 -50.540  0.00  0.00    -0.296 N 
ATOM     20  C   UNL A   1      58.349 -36.077 -53.365  0.00  0.00    +0.042 C 
ATOM     21  H   UNL A   1      55.411 -35.098 -50.956  0.00  0.00    +0.000 HD
ENDROOT
BRANCH  19  22
ATOM     22  C   UNL A   1      55.822 -36.186 -49.177  0.00  0.00    +0.025 C 
ATOM     23  C   UNL A   1      55.901 -35.004 -48.192  0.00  0.00    -0.034 C 
ATOM     24  C   UNL A   1      55.103 -35.214 -46.902  0.00  0.00    -0.051 C 
ATOM     25  C   UNL A   1      54.975 -36.687 -46.544  0.00  0.00    -0.053 C 
ATOM     26  C   UNL A   1      54.261 -37.475 -47.642  0.00  0.00    -0.051 C 
ATOM     27  C   UNL A   1      54.469 -36.898 -49.045  0.00  0.00    -0.034 C 
ENDBRANCH  19  22
BRANCH   1  29
ATOM     28  C   UNL A   1      61.242 -32.732 -58.049  0.00  0.00    +0.079 C 
ATOM     29  O   UNL A   1      61.064 -32.309 -56.705  0.00  0.00    -0.491 OA
ENDBRANCH   1  29
BRANCH  10  30
ATOM     30  O   UNL A   1      55.045 -29.609 -53.800  0.00  0.00    -0.388 OA
ATOM     31  H   UNL A   1      54.477 -29.263 -54.505  0.00  0.00    +0.000 HD
ENDBRANCH  10  30
TORSDOF 3
ENDMDL
MODEL 14
REMARK VINA RESULT:    -6.623     19.712     22.384
REMARK INTER + INTRA:          -7.789
REMARK INTER:                  -7.473
REMARK INTRA:                  -0.316
REMARK UNBOUND:                -0.199
REMARK  Name = cpd322.pdb
REMARK  4 active torsions:
REMARK  status: ('A' for Active; 'I' for Inactive)
REMARK    1  A    between atoms: C_1  and  O_2
REMARK    2  A    between atoms: O_2  and  C_3
REMARK    3  A    between atoms: C_12  and  O_13
REMARK    4  A    between atoms: N_22  and  C_23
REMARK                            x       y       z     vdW  Elec       q    Type
REMARK                         _______ _______ _______ _____ _____    ______ ____
ROOT
ATOM      1  C   UNL A   1      41.766 -21.316 -38.872  0.00  0.00    +0.162 A 
ATOM      2  C   UNL A   1      40.953 -20.226 -38.575  0.00  0.00    -0.016 A 
ATOM      3  C   UNL A   1      41.392 -18.915 -38.839  0.00  0.00    -0.053 A 
ATOM      4  C   UNL A   1      42.671 -18.650 -39.367  0.00  0.00    -0.022 A 
ATOM      5  C   UNL A   1      43.496 -19.748 -39.590  0.00  0.00    +0.016 A 
ATOM      6  C   UNL A   1      43.025 -21.044 -39.392  0.00  0.00    +0.167 A 
ATOM      7  O   UNL A   1      43.894 -22.018 -39.816  0.00  0.00    -0.484 OA
ATOM      8  C   UNL A   1      44.919 -21.303 -40.562  0.00  0.00    +0.116 C 
ATOM      9  C   UNL A   1      46.234 -22.063 -40.325  0.00  0.00    +0.015 C 
ATOM     10  C   UNL A   1      47.451 -21.165 -40.129  0.00  0.00    +0.077 C 
ATOM     11  C   UNL A   1      47.150 -20.112 -39.114  0.00  0.00    -0.059 C 
ATOM     12  C   UNL A   1      45.953 -19.509 -39.083  0.00  0.00    -0.071 C 
ATOM     13  C   UNL A   1      44.892 -19.802 -40.128  0.00  0.00    +0.056 C 
ATOM     14  C   UNL A   1      45.008 -18.860 -41.342  0.00  0.00    -0.020 C 
ATOM     15  C   UNL A   1      45.197 -17.383 -40.979  0.00  0.00    +0.018 C 
ATOM     16  N   UNL A   1      44.409 -16.879 -39.846  0.00  0.00    -0.281 N 
ATOM     17  C   UNL A   1      44.770 -15.694 -39.194  0.00  0.00    +0.303 C 
ATOM     18  O   UNL A   1      43.975 -14.978 -38.591  0.00  0.00    -0.253 OA
ATOM     19  N   UNL A   1      46.106 -15.384 -39.285  0.00  0.00    -0.296 N 
ATOM     20  C   UNL A   1      42.992 -17.233 -39.791  0.00  0.00    +0.042 C 
ATOM     21  H   UNL A   1      46.720 -16.013 -39.729  0.00  0.00    +0.000 HD
ENDROOT
BRANCH  19  22
ATOM     22  C   UNL A   1      46.630 -14.138 -38.733  0.00  0.00    +0.025 C 
ATOM     23  C   UNL A   1      48.038 -14.371 -38.153  0.00  0.00    -0.034 C 
ATOM     24  C   UNL A   1      48.914 -13.115 -38.119  0.00  0.00    -0.051 C 
ATOM     25  C   UNL A   1      48.084 -11.845 -38.006  0.00  0.00    -0.053 C 
ATOM     26  C   UNL A   1      47.127 -11.688 -39.189  0.00  0.00    -0.051 C 
ATOM     27  C   UNL A   1      46.669 -13.021 -39.786  0.00  0.00    -0.034 C 
ENDBRANCH  19  22
BRANCH   1  29
ATOM     28  C   UNL A   1      40.541 -23.186 -39.680  0.00  0.00    +0.079 C 
ATOM     29  O   UNL A   1      41.433 -22.632 -38.723  0.00  0.00    -0.491 OA
ENDBRANCH   1  29
BRANCH  10  30
ATOM     30  O   UNL A   1      48.547 -21.930 -39.646  0.00  0.00    -0.388 OA
ATOM     31  H   UNL A   1      48.260 -22.466 -38.890  0.00  0.00    +0.000 HD
ENDBRANCH  10  30
TORSDOF 3
ENDMDL
MODEL 15
REMARK VINA RESULT:    -6.604     14.651     17.997
REMARK INTER + INTRA:          -7.768
REMARK INTER:                  -7.462
REMARK INTRA:                  -0.306
REMARK UNBOUND:                -0.199
REMARK  Name = cpd322.pdb
REMARK  4 active torsions:
REMARK  status: ('A' for Active; 'I' for Inactive)
REMARK    1  A    between atoms: C_1  and  O_2
REMARK    2  A    between atoms: O_2  and  C_3
REMARK    3  A    between atoms: C_12  and  O_13
REMARK    4  A    between atoms: N_22  and  C_23
REMARK                            x       y       z     vdW  Elec       q    Type
REMARK                         _______ _______ _______ _____ _____    ______ ____
ROOT
ATOM      1  C   UNL A   1      42.006 -18.772 -32.902  0.00  0.00    +0.162 A 
ATOM      2  C   UNL A   1      41.505 -17.534 -32.506  0.00  0.00    -0.016 A 
ATOM      3  C   UNL A   1      40.116 -17.322 -32.416  0.00  0.00    -0.053 A 
ATOM      4  C   UNL A   1      39.185 -18.322 -32.760  0.00  0.00    -0.022 A 
ATOM      5  C   UNL A   1      39.705 -19.528 -33.223  0.00  0.00    +0.016 A 
ATOM      6  C   UNL A   1      41.080 -19.750 -33.240  0.00  0.00    +0.167 A 
ATOM      7  O   UNL A   1      41.426 -21.040 -33.559  0.00  0.00    -0.484 OA
ATOM      8  C   UNL A   1      40.174 -21.781 -33.524  0.00  0.00    +0.116 C 
ATOM      9  C   UNL A   1      40.285 -22.866 -34.607  0.00  0.00    +0.015 C 
ATOM     10  C   UNL A   1      39.004 -23.091 -35.403  0.00  0.00    +0.077 C 
ATOM     11  C   UNL A   1      38.466 -21.784 -35.885  0.00  0.00    -0.059 C 
ATOM     12  C   UNL A   1      38.498 -20.696 -35.102  0.00  0.00    -0.071 C 
ATOM     13  C   UNL A   1      38.993 -20.767 -33.669  0.00  0.00    +0.056 C 
ATOM     14  C   UNL A   1      37.852 -21.083 -32.684  0.00  0.00    -0.020 C 
ATOM     15  C   UNL A   1      36.578 -20.262 -32.909  0.00  0.00    +0.018 C 
ATOM     16  N   UNL A   1      36.761 -18.844 -33.249  0.00  0.00    -0.281 N 
ATOM     17  C   UNL A   1      35.727 -18.109 -33.839  0.00  0.00    +0.303 C 
ATOM     18  O   UNL A   1      35.610 -16.891 -33.736  0.00  0.00    -0.253 OA
ATOM     19  N   UNL A   1      34.832 -18.870 -34.554  0.00  0.00    -0.296 N 
ATOM     20  C   UNL A   1      37.723 -18.075 -32.461  0.00  0.00    +0.042 C 
ATOM     21  H   UNL A   1      34.993 -19.836 -34.660  0.00  0.00    +0.000 HD
ENDROOT
BRANCH  19  22
ATOM     22  C   UNL A   1      33.647 -18.268 -35.160  0.00  0.00    +0.025 C 
ATOM     23  C   UNL A   1      33.468 -18.793 -36.598  0.00  0.00    -0.034 C 
ATOM     24  C   UNL A   1      32.023 -18.751 -37.101  0.00  0.00    -0.051 C 
ATOM     25  C   UNL A   1      31.217 -17.648 -36.430  0.00  0.00    -0.053 C 
ATOM     26  C   UNL A   1      31.156 -17.836 -34.914  0.00  0.00    -0.051 C 
ATOM     27  C   UNL A   1      32.383 -18.544 -34.334  0.00  0.00    -0.034 C 
ENDBRANCH  19  22
BRANCH   1  29
ATOM     28  C   UNL A   1      44.274 -18.146 -32.561  0.00  0.00    +0.079 C 
ATOM     29  O   UNL A   1      43.324 -19.122 -32.968  0.00  0.00    -0.491 OA
ENDBRANCH   1  29
BRANCH  10  30
ATOM     30  O   UNL A   1      39.275 -23.894 -36.544  0.00  0.00    -0.388 OA
ATOM     31  H   UNL A   1      38.494 -23.911 -37.120  0.00  0.00    +0.000 HD
ENDBRANCH  10  30
TORSDOF 3
ENDMDL
MODEL 16
REMARK VINA RESULT:    -6.525     20.624     22.430
REMARK INTER + INTRA:          -7.677
REMARK INTER:                  -7.342
REMARK INTRA:                  -0.335
REMARK UNBOUND:                -0.199
REMARK  Name = cpd322.pdb
REMARK  4 active torsions:
REMARK  status: ('A' for Active; 'I' for Inactive)
REMARK    1  A    between atoms: C_1  and  O_2
REMARK    2  A    between atoms: O_2  and  C_3
REMARK    3  A    between atoms: C_12  and  O_13
REMARK    4  A    between atoms: N_22  and  C_23
REMARK                            x       y       z     vdW  Elec       q    Type
REMARK                         _______ _______ _______ _____ _____    ______ ____
ROOT
ATOM      1  C   UNL A   1      44.268 -15.852 -33.646  0.00  0.00    +0.162 A 
ATOM      2  C   UNL A   1      44.633 -17.110 -33.174  0.00  0.00    -0.016 A 
ATOM      3  C   UNL A   1      45.352 -18.000 -33.994  0.00  0.00    -0.053 A 
ATOM      4  C   UNL A   1      45.692 -17.679 -35.323  0.00  0.00    -0.022 A 
ATOM      5  C   UNL A   1      45.255 -16.447 -35.801  0.00  0.00    +0.016 A 
ATOM      6  C   UNL A   1      44.606 -15.546 -34.958  0.00  0.00    +0.167 A 
ATOM      7  O   UNL A   1      44.393 -14.315 -35.526  0.00  0.00    -0.484 OA
ATOM      8  C   UNL A   1      45.168 -14.335 -36.758  0.00  0.00    +0.116 C 
ATOM      9  C   UNL A   1      44.381 -13.492 -37.775  0.00  0.00    +0.015 C 
ATOM     10  C   UNL A   1      44.369 -14.065 -39.188  0.00  0.00    +0.077 C 
ATOM     11  C   UNL A   1      43.989 -15.508 -39.151  0.00  0.00    -0.059 C 
ATOM     12  C   UNL A   1      44.449 -16.316 -38.185  0.00  0.00    -0.071 C 
ATOM     13  C   UNL A   1      45.443 -15.823 -37.148  0.00  0.00    +0.056 C 
ATOM     14  C   UNL A   1      46.899 -16.028 -37.608  0.00  0.00    -0.020 C 
ATOM     15  C   UNL A   1      47.186 -17.411 -38.201  0.00  0.00    +0.018 C 
ATOM     16  N   UNL A   1      46.555 -18.557 -37.530  0.00  0.00    -0.281 N 
ATOM     17  C   UNL A   1      46.427 -19.788 -38.184  0.00  0.00    +0.303 C 
ATOM     18  O   UNL A   1      46.358 -20.866 -37.600  0.00  0.00    -0.253 OA
ATOM     19  N   UNL A   1      46.390 -19.697 -39.555  0.00  0.00    -0.296 N 
ATOM     20  C   UNL A   1      46.620 -18.611 -36.071  0.00  0.00    +0.042 C 
ATOM     21  H   UNL A   1      46.392 -18.809 -39.982  0.00  0.00    +0.000 HD
ENDROOT
BRANCH  19  22
ATOM     22  C   UNL A   1      46.347 -20.895 -40.389  0.00  0.00    +0.025 C 
ATOM     23  C   UNL A   1      45.128 -20.837 -41.330  0.00  0.00    -0.034 C 
ATOM     24  C   UNL A   1      45.293 -21.655 -42.614  0.00  0.00    -0.051 C 
ATOM     25  C   UNL A   1      46.237 -22.832 -42.423  0.00  0.00    -0.053 C 
ATOM     26  C   UNL A   1      47.635 -22.373 -42.005  0.00  0.00    -0.051 C 
ATOM     27  C   UNL A   1      47.637 -21.070 -41.202  0.00  0.00    -0.034 C 
ENDBRANCH  19  22
BRANCH   1  29
ATOM     28  C   UNL A   1      44.295 -14.376 -31.784  0.00  0.00    +0.079 C 
ATOM     29  O   UNL A   1      43.628 -14.880 -32.933  0.00  0.00    -0.491 OA
ENDBRANCH   1  29
BRANCH  10  30
ATOM     30  O   UNL A   1      43.405 -13.385 -39.981  0.00  0.00    -0.388 OA
ATOM     31  H   UNL A   1      43.793 -12.569 -40.333  0.00  0.00    +0.000 HD
ENDBRANCH  10  30
TORSDOF 3
ENDMDL
MODEL 17
REMARK VINA RESULT:    -6.380     14.922     16.796
REMARK INTER + INTRA:          -7.511
REMARK INTER:                  -7.214
REMARK INTRA:                  -0.297
REMARK UNBOUND:                -0.199
REMARK  Name = cpd322.pdb
REMARK  4 active torsions:
REMARK  status: ('A' for Active; 'I' for Inactive)
REMARK    1  A    between atoms: C_1  and  O_2
REMARK    2  A    between atoms: O_2  and  C_3
REMARK    3  A    between atoms: C_12  and  O_13
REMARK    4  A    between atoms: N_22  and  C_23
REMARK                            x       y       z     vdW  Elec       q    Type
REMARK                         _______ _______ _______ _____ _____    ______ ____
ROOT
ATOM      1  C   UNL A   1      36.507 -19.403 -33.552  0.00  0.00    +0.162 A 
ATOM      2  C   UNL A   1      36.700 -18.199 -34.224  0.00  0.00    -0.016 A 
ATOM      3  C   UNL A   1      37.823 -18.016 -35.053  0.00  0.00    -0.053 A 
ATOM      4  C   UNL A   1      38.809 -19.011 -35.202  0.00  0.00    -0.022 A 
ATOM      5  C   UNL A   1      38.636 -20.179 -34.466  0.00  0.00    +0.016 A 
ATOM      6  C   UNL A   1      37.485 -20.377 -33.705  0.00  0.00    +0.167 A 
ATOM      7  O   UNL A   1      37.383 -21.641 -33.178  0.00  0.00    -0.484 OA
ATOM      8  C   UNL A   1      38.435 -22.403 -33.833  0.00  0.00    +0.116 C 
ATOM      9  C   UNL A   1      38.936 -23.423 -32.798  0.00  0.00    +0.015 C 
ATOM     10  C   UNL A   1      40.447 -23.625 -32.797  0.00  0.00    +0.077 C 
ATOM     11  C   UNL A   1      41.139 -22.302 -32.751  0.00  0.00    -0.059 C 
ATOM     12  C   UNL A   1      40.677 -21.260 -33.457  0.00  0.00    -0.071 C 
ATOM     13  C   UNL A   1      39.494 -21.403 -34.399  0.00  0.00    +0.056 C 
ATOM     14  C   UNL A   1      39.939 -21.794 -35.821  0.00  0.00    -0.020 C 
ATOM     15  C   UNL A   1      41.124 -20.983 -36.357  0.00  0.00    +0.018 C 
ATOM     16  N   UNL A   1      41.128 -19.546 -36.053  0.00  0.00    -0.281 N 
ATOM     17  C   UNL A   1      42.306 -18.797 -36.149  0.00  0.00    +0.303 C 
ATOM     18  O   UNL A   1      42.331 -17.589 -36.368  0.00  0.00    -0.253 OA
ATOM     19  N   UNL A   1      43.456 -19.531 -35.979  0.00  0.00    -0.296 N 
ATOM     20  C   UNL A   1      39.882 -18.806 -36.249  0.00  0.00    +0.042 C 
ATOM     21  H   UNL A   1      43.392 -20.486 -35.749  0.00  0.00    +0.000 HD
ENDROOT
BRANCH  19  22
ATOM     22  C   UNL A   1      44.772 -18.916 -36.134  0.00  0.00    +0.025 C 
ATOM     23  C   UNL A   1      45.291 -18.435 -34.766  0.00  0.00    -0.034 C 
ATOM     24  C   UNL A   1      46.818 -18.355 -34.672  0.00  0.00    -0.051 C 
ATOM     25  C   UNL A   1      47.460 -18.100 -36.028  0.00  0.00    -0.053 C 
ATOM     26  C   UNL A   1      47.133 -19.212 -37.025  0.00  0.00    -0.051 C 
ATOM     27  C   UNL A   1      45.779 -19.882 -36.774  0.00  0.00    -0.034 C 
ENDBRANCH  19  22
BRANCH   1  29
ATOM     28  C   UNL A   1      34.337 -18.822 -32.775  0.00  0.00    +0.079 C 
ATOM     29  O   UNL A   1      35.433 -19.726 -32.773  0.00  0.00    -0.491 OA
ENDBRANCH   1  29
BRANCH  10  30
ATOM     30  O   UNL A   1      40.840 -24.357 -31.644  0.00  0.00    -0.388 OA
ATOM     31  H   UNL A   1      41.556 -23.887 -31.190  0.00  0.00    +0.000 HD
ENDBRANCH  10  30
TORSDOF 3
ENDMDL
MODEL 18
REMARK VINA RESULT:    -6.253      2.450      3.672
REMARK INTER + INTRA:          -7.366
REMARK INTER:                  -7.068
REMARK INTRA:                  -0.298
REMARK UNBOUND:                -0.199
REMARK  Name = cpd322.pdb
REMARK  4 active torsions:
REMARK  status: ('A' for Active; 'I' for Inactive)
REMARK    1  A    between atoms: C_1  and  O_2
REMARK    2  A    between atoms: O_2  and  C_3
REMARK    3  A    between atoms: C_12  and  O_13
REMARK    4  A    between atoms: N_22  and  C_23
REMARK                            x       y       z     vdW  Elec       q    Type
REMARK                         _______ _______ _______ _____ _____    ______ ____
ROOT
ATOM      1  C   UNL A   1      28.951 -30.910 -29.065  0.00  0.00    +0.162 A 
ATOM      2  C   UNL A   1      30.047 -30.051 -29.084  0.00  0.00    -0.016 A 
ATOM      3  C   UNL A   1      31.283 -30.482 -29.603  0.00  0.00    -0.053 A 
ATOM      4  C   UNL A   1      31.474 -31.795 -30.080  0.00  0.00    -0.022 A 
ATOM      5  C   UNL A   1      30.386 -32.659 -29.986  0.00  0.00    +0.016 A 
ATOM      6  C   UNL A   1      29.150 -32.201 -29.536  0.00  0.00    +0.167 A 
ATOM      7  O   UNL A   1      28.141 -33.123 -29.663  0.00  0.00    -0.484 OA
ATOM      8  C   UNL A   1      28.712 -34.190 -30.471  0.00  0.00    +0.116 C 
ATOM      9  C   UNL A   1      28.076 -35.497 -29.970  0.00  0.00    +0.015 C 
ATOM     10  C   UNL A   1      29.042 -36.674 -29.890  0.00  0.00    +0.077 C 
ATOM     11  C   UNL A   1      30.283 -36.268 -29.165  0.00  0.00    -0.059 C 
ATOM     12  C   UNL A   1      30.830 -35.060 -29.361  0.00  0.00    -0.071 C 
ATOM     13  C   UNL A   1      30.269 -34.095 -30.391  0.00  0.00    +0.056 C 
ATOM     14  C   UNL A   1      30.920 -34.291 -31.773  0.00  0.00    -0.020 C 
ATOM     15  C   UNL A   1      32.447 -34.418 -31.740  0.00  0.00    +0.018 C 
ATOM     16  N   UNL A   1      33.160 -33.529 -30.812  0.00  0.00    -0.281 N 
ATOM     17  C   UNL A   1      34.474 -33.808 -30.420  0.00  0.00    +0.303 C 
ATOM     18  O   UNL A   1      35.274 -32.951 -30.056  0.00  0.00    -0.253 OA
ATOM     19  N   UNL A   1      34.808 -35.141 -30.477  0.00  0.00    -0.296 N 
ATOM     20  C   UNL A   1      32.771 -32.120 -30.787  0.00  0.00    +0.042 C 
ATOM     21  H   UNL A   1      34.120 -35.803 -30.720  0.00  0.00    +0.000 HD
ENDROOT
BRANCH  19  22
ATOM     22  C   UNL A   1      36.166 -35.591 -30.183  0.00  0.00    +0.025 C 
ATOM     23  C   UNL A   1      36.122 -36.881 -29.342  0.00  0.00    -0.034 C 
ATOM     24  C   UNL A   1      37.366 -37.762 -29.487  0.00  0.00    -0.051 C 
ATOM     25  C   UNL A   1      38.603 -36.948 -29.836  0.00  0.00    -0.053 C 
ATOM     26  C   UNL A   1      38.431 -36.200 -31.159  0.00  0.00    -0.051 C 
ATOM     27  C   UNL A   1      36.980 -35.820 -31.464  0.00  0.00    -0.034 C 
ENDBRANCH  19  22
BRANCH   1  29
ATOM     28  C   UNL A   1      27.526 -29.365 -27.954  0.00  0.00    +0.079 C 
ATOM     29  O   UNL A   1      27.689 -30.593 -28.649  0.00  0.00    -0.491 OA
ENDBRANCH   1  29
BRANCH  10  30
ATOM     30  O   UNL A   1      28.448 -37.743 -29.165  0.00  0.00    -0.388 OA
ATOM     31  H   UNL A   1      27.981 -38.330 -29.780  0.00  0.00    +0.000 HD
ENDBRANCH  10  30
TORSDOF 3
ENDMDL
MODEL 19
REMARK VINA RESULT:    -6.140     26.727     29.473
REMARK INTER + INTRA:          -7.236
REMARK INTER:                  -7.017
REMARK INTRA:                  -0.219
REMARK UNBOUND:                -0.199
REMARK  Name = cpd322.pdb
REMARK  4 active torsions:
REMARK  status: ('A' for Active; 'I' for Inactive)
REMARK    1  A    between atoms: C_1  and  O_2
REMARK    2  A    between atoms: O_2  and  C_3
REMARK    3  A    between atoms: C_12  and  O_13
REMARK    4  A    between atoms: N_22  and  C_23
REMARK                            x       y       z     vdW  Elec       q    Type
REMARK                         _______ _______ _______ _____ _____    ______ ____
ROOT
ATOM      1  C   UNL A   1      44.612 -35.322 -55.155  0.00  0.00    +0.162 A 
ATOM      2  C   UNL A   1      45.333 -35.780 -54.056  0.00  0.00    -0.016 A 
ATOM      3  C   UNL A   1      46.486 -35.098 -53.624  0.00  0.00    -0.053 A 
ATOM      4  C   UNL A   1      46.979 -33.964 -54.302  0.00  0.00    -0.022 A 
ATOM      5  C   UNL A   1      46.285 -33.565 -55.441  0.00  0.00    +0.016 A 
ATOM      6  C   UNL A   1      45.106 -34.205 -55.816  0.00  0.00    +0.167 A 
ATOM      7  O   UNL A   1      44.452 -33.590 -56.855  0.00  0.00    -0.484 OA
ATOM      8  C   UNL A   1      45.137 -32.318 -57.024  0.00  0.00    +0.116 C 
ATOM      9  C   UNL A   1      45.095 -32.003 -58.529  0.00  0.00    +0.015 C 
ATOM     10  C   UNL A   1      46.382 -31.399 -59.078  0.00  0.00    +0.077 C 
ATOM     11  C   UNL A   1      47.555 -32.216 -58.647  0.00  0.00    -0.059 C 
ATOM     12  C   UNL A   1      47.618 -32.729 -57.409  0.00  0.00    -0.071 C 
ATOM     13  C   UNL A   1      46.552 -32.424 -56.372  0.00  0.00    +0.056 C 
ATOM     14  C   UNL A   1      46.894 -31.166 -55.552  0.00  0.00    -0.020 C 
ATOM     15  C   UNL A   1      48.343 -31.109 -55.056  0.00  0.00    +0.018 C 
ATOM     16  N   UNL A   1      48.921 -32.370 -54.571  0.00  0.00    -0.281 N 
ATOM     17  C   UNL A   1      50.307 -32.526 -54.461  0.00  0.00    +0.303 C 
ATOM     18  O   UNL A   1      50.846 -33.302 -53.676  0.00  0.00    -0.253 OA
ATOM     19  N   UNL A   1      51.034 -31.727 -55.311  0.00  0.00    -0.296 N 
ATOM     20  C   UNL A   1      48.111 -33.186 -53.668  0.00  0.00    +0.042 C 
ATOM     21  H   UNL A   1      50.563 -31.160 -55.964  0.00  0.00    +0.000 HD
ENDROOT
BRANCH  19  22
ATOM     22  C   UNL A   1      52.494 -31.706 -55.262  0.00  0.00    +0.025 C 
ATOM     23  C   UNL A   1      53.058 -31.200 -56.604  0.00  0.00    -0.034 C 
ATOM     24  C   UNL A   1      54.445 -30.561 -56.495  0.00  0.00    -0.051 C 
ATOM     25  C   UNL A   1      55.243 -31.126 -55.330  0.00  0.00    -0.053 C 
ATOM     26  C   UNL A   1      54.538 -30.889 -53.994  0.00  0.00    -0.051 C 
ATOM     27  C   UNL A   1      53.012 -30.837 -54.107  0.00  0.00    -0.034 C 
ENDBRANCH  19  22
BRANCH   1  29
ATOM     28  C   UNL A   1      42.885 -36.936 -54.902  0.00  0.00    +0.079 C 
ATOM     29  O   UNL A   1      43.448 -35.855 -55.632  0.00  0.00    -0.491 OA
ENDBRANCH   1  29
BRANCH  10  30
ATOM     30  O   UNL A   1      46.353 -31.403 -60.499  0.00  0.00    -0.388 OA
ATOM     31  H   UNL A   1      46.702 -32.246 -60.828  0.00  0.00    +0.000 HD
ENDBRANCH  10  30
TORSDOF 3
ENDMDL
MODEL 20
REMARK VINA RESULT:    -5.949     19.074     21.479
REMARK INTER + INTRA:          -7.017
REMARK INTER:                  -6.733
REMARK INTRA:                  -0.284
REMARK UNBOUND:                -0.199
REMARK  Name = cpd322.pdb
REMARK  4 active torsions:
REMARK  status: ('A' for Active; 'I' for Inactive)
REMARK    1  A    between atoms: C_1  and  O_2
REMARK    2  A    between atoms: O_2  and  C_3
REMARK    3  A    between atoms: C_12  and  O_13
REMARK    4  A    between atoms: N_22  and  C_23
REMARK                            x       y       z     vdW  Elec       q    Type
REMARK                         _______ _______ _______ _____ _____    ______ ____
ROOT
ATOM      1  C   UNL A   1      41.650 -21.436 -37.074  0.00  0.00    +0.162 A 
ATOM      2  C   UNL A   1      41.603 -21.593 -38.457  0.00  0.00    -0.016 A 
ATOM      3  C   UNL A   1      42.606 -21.039 -39.273  0.00  0.00    -0.053 A 
ATOM      4  C   UNL A   1      43.664 -20.275 -38.739  0.00  0.00    -0.022 A 
ATOM      5  C   UNL A   1      43.654 -20.068 -37.363  0.00  0.00    +0.016 A 
ATOM      6  C   UNL A   1      42.695 -20.681 -36.558  0.00  0.00    +0.167 A 
ATOM      7  O   UNL A   1      42.920 -20.521 -35.213  0.00  0.00    -0.484 OA
ATOM      8  C   UNL A   1      44.257 -19.952 -35.125  0.00  0.00    +0.116 C 
ATOM      9  C   UNL A   1      44.245 -19.011 -33.910  0.00  0.00    +0.015 C 
ATOM     10  C   UNL A   1      45.009 -17.708 -34.118  0.00  0.00    +0.077 C 
ATOM     11  C   UNL A   1      44.590 -17.070 -35.402  0.00  0.00    -0.059 C 
ATOM     12  C   UNL A   1      44.365 -17.811 -36.496  0.00  0.00    -0.071 C 
ATOM     13  C   UNL A   1      44.615 -19.309 -36.503  0.00  0.00    +0.056 C 
ATOM     14  C   UNL A   1      46.057 -19.647 -36.928  0.00  0.00    -0.020 C 
ATOM     15  C   UNL A   1      46.547 -18.883 -38.163  0.00  0.00    +0.018 C 
ATOM     16  N   UNL A   1      45.578 -18.708 -39.254  0.00  0.00    -0.281 N 
ATOM     17  C   UNL A   1      45.774 -17.729 -40.235  0.00  0.00    +0.303 C 
ATOM     18  O   UNL A   1      45.318 -17.802 -41.373  0.00  0.00    -0.253 OA
ATOM     19  N   UNL A   1      46.533 -16.660 -39.821  0.00  0.00    -0.296 N 
ATOM     20  C   UNL A   1      44.794 -19.873 -39.661  0.00  0.00    +0.042 C 
ATOM     21  H   UNL A   1      46.832 -16.612 -38.884  0.00  0.00    +0.000 HD
ENDROOT
BRANCH  19  22
ATOM     22  C   UNL A   1      46.902 -15.593 -40.748  0.00  0.00    +0.025 C 
ATOM     23  C   UNL A   1      45.793 -14.524 -40.787  0.00  0.00    -0.034 C 
ATOM     24  C   UNL A   1      46.285 -13.132 -41.194  0.00  0.00    -0.051 C 
ATOM     25  C   UNL A   1      47.512 -13.201 -42.091  0.00  0.00    -0.053 C 
ATOM     26  C   UNL A   1      48.681 -13.899 -41.395  0.00  0.00    -0.051 C 
ATOM     27  C   UNL A   1      48.245 -14.952 -40.373  0.00  0.00    -0.034 C 
ENDBRANCH  19  22
BRANCH   1  29
ATOM     28  C   UNL A   1      39.483 -21.394 -36.098  0.00  0.00    +0.079 C 
ATOM     29  O   UNL A   1      40.777 -21.976 -36.173  0.00  0.00    -0.491 OA
ENDBRANCH   1  29
BRANCH  10  30
ATOM     30  O   UNL A   1      44.713 -16.797 -33.068  0.00  0.00    -0.388 OA
ATOM     31  H   UNL A   1      45.344 -16.925 -32.342  0.00  0.00    +0.000 HD
ENDBRANCH  10  30
TORSDOF 3
ENDMDL
