REMARK  Name = cpd322.pdb
REMARK  4 active torsions:
REMARK  status: ('A' for Active; 'I' for Inactive)
REMARK    1  A    between atoms: C_1  and  O_2
REMARK    2  A    between atoms: O_2  and  C_3
REMARK    3  A    between atoms: C_12  and  O_13
REMARK    4  A    between atoms: N_22  and  C_23
REMARK                            x       y       z     vdW  Elec       q    Type
REMARK                         _______ _______ _______ _____ _____    ______ ____
ROOT
ATOM      1  C   UNL A   1       3.332   2.839  -0.582  0.00  0.00    +0.162 A 
ATOM      2  C   UNL A   1       2.102   3.491  -0.614  0.00  0.00    -0.016 A 
ATOM      3  C   UNL A   1       0.926   2.816  -0.236  0.00  0.00    -0.053 A 
ATOM      4  C   UNL A   1       0.935   1.459   0.144  0.00  0.00    -0.022 A 
ATOM      5  C   UNL A   1       2.163   0.805   0.100  0.00  0.00    +0.016 A 
ATOM      6  C   UNL A   1       3.330   1.502  -0.207  0.00  0.00    +0.167 A 
ATOM      7  O   UNL A   1       4.474   0.761  -0.042  0.00  0.00    -0.484 OA
ATOM      8  C   UNL A   1       4.040  -0.445   0.647  0.00  0.00    +0.116 C 
ATOM      9  C   UNL A   1       4.937  -1.582   0.131  0.00  0.00    +0.015 C 
ATOM     10  C   UNL A   1       4.206  -2.899  -0.105  0.00  0.00    +0.077 C 
ATOM     11  C   UNL A   1       2.975  -2.662  -0.916  0.00  0.00    -0.059 C 
ATOM     12  C   UNL A   1       2.207  -1.584  -0.701  0.00  0.00    -0.071 C 
ATOM     13  C   UNL A   1       2.502  -0.615   0.430  0.00  0.00    +0.056 C 
ATOM     14  C   UNL A   1       1.788  -1.021   1.733  0.00  0.00    -0.020 C 
ATOM     15  C   UNL A   1       0.316  -1.407   1.553  0.00  0.00    +0.018 C 
ATOM     16  N   UNL A   1      -0.468  -0.589   0.617  0.00  0.00    -0.281 N 
ATOM     17  C   UNL A   1      -1.675  -1.062   0.090  0.00  0.00    +0.303 C 
ATOM     18  O   UNL A   1      -2.584  -0.332  -0.295  0.00  0.00    -0.253 OA
ATOM     19  N   UNL A   1      -1.769  -2.433   0.039  0.00  0.00    -0.296 N 
ATOM     20  C   UNL A   1      -0.336   0.864   0.709  0.00  0.00    +0.042 C 
ATOM     21  H   UNL A   1      -0.996  -2.982   0.305  0.00  0.00    +0.000 HD
ENDROOT
BRANCH  19  22
ATOM     22  C   UNL A   1      -2.997  -3.088  -0.404  0.00  0.00    +0.025 C 
ATOM     23  C   UNL A   1      -2.732  -4.584  -0.659  0.00  0.00    -0.034 C 
ATOM     24  C   UNL A   1      -3.974  -5.469  -0.520  0.00  0.00    -0.051 C 
ATOM     25  C   UNL A   1      -5.254  -4.708  -0.831  0.00  0.00    -0.053 C 
ATOM     26  C   UNL A   1      -5.447  -3.519   0.111  0.00  0.00    -0.051 C 
ATOM     27  C   UNL A   1      -4.133  -2.916   0.614  0.00  0.00    -0.034 C 
ENDBRANCH  19  22
BRANCH   1  29
ATOM     28  C   UNL A   1       4.563   4.783  -1.179  0.00  0.00    +0.079 C 
ATOM     29  O   UNL A   1       4.546   3.398  -0.862  0.00  0.00    -0.491 OA
ENDBRANCH   1  29
BRANCH  10  30
ATOM     30  O   UNL A   1       5.037  -3.793  -0.833  0.00  0.00    -0.388 OA
ATOM     31  H   UNL A   1       5.258  -3.402  -1.693  0.00  0.00    +0.000 HD
ENDBRANCH  10  30
TORSDOF 3
